data_str_m2_o1_o1_pcu_sym.8
_audit_creation_date              2020-01-03
_audit_creation_method            'Materials Studio'
_symmetry_space_group_name_H-M    'P1'
_symmetry_Int_Tables_number       1
_symmetry_cell_setting            triclinic
loop_
_symmetry_equiv_pos_as_xyz
  x,y,z
_cell_length_a                    31.9633
_cell_length_b                    29.8048
_cell_length_c                    28.8466
_cell_angle_alpha                 89.2201
_cell_angle_beta                  90.0807
_cell_angle_gamma                 89.9428
loop_
_atom_site_label
_atom_site_type_symbol
_atom_site_fract_x
_atom_site_fract_y
_atom_site_fract_z
_atom_site_U_iso_or_equiv
_atom_site_adp_type
_atom_site_occupancy
C1     C     0.06016   0.19136   0.16677   0.00000  Uiso   1.00
C2     C     0.49936   0.28946   0.30806   0.00000  Uiso   1.00
C3     C     0.00021   0.28944   0.02429   0.00000  Uiso   1.00
C4     C     0.00205   0.21068   0.30913   0.00000  Uiso   1.00
C5     C     0.25245   0.46087   0.02504   0.00000  Uiso   1.00
C6     C     0.25326   0.03910   0.30833   0.00000  Uiso   1.00
C7     C     0.24855   0.03920   0.02398   0.00000  Uiso   1.00
C8     C     0.24778   0.46084   0.30937   0.00000  Uiso   1.00
C9     C     0.37342   0.16102   0.13458   0.00000  Uiso   1.00
C10    C     0.10605   0.36270   0.20904   0.00000  Uiso   1.00
C11    C     0.11716   0.35140   0.12633   0.00000  Uiso   1.00
C12    C     0.43971   0.30859   0.16634   0.00000  Uiso   1.00
C13    C     0.40408   0.12367   0.20242   0.00000  Uiso   1.00
C14    C     0.11938   0.15094   0.20648   0.00000  Uiso   1.00
C15    C     0.39675   0.36794   0.12579   0.00000  Uiso   1.00
C16    C     0.37687   0.34331   0.20321   0.00000  Uiso   1.00
C17    C     0.10535   0.13679   0.12503   0.00000  Uiso   1.00
C18    C     0.15365   0.37704   0.12964   0.00000  Uiso   1.00
C19    C     0.37484   0.08883   0.19873   0.00000  Uiso   1.00
C20    C     0.33967   0.13084   0.13698   0.00000  Uiso   1.00
C21    C     0.13423   0.39859   0.20777   0.00000  Uiso   1.00
C22    C     0.34248   0.37253   0.19976   0.00000  Uiso   1.00
C23    C     0.44033   0.19066   0.16697   0.00000  Uiso   1.00
C24    C     0.13166   0.09958   0.12702   0.00000  Uiso   1.00
C25    C     0.15548   0.12454   0.20261   0.00000  Uiso   1.00
C26    C     0.37354   0.40730   0.13085   0.00000  Uiso   1.00
C27    C     0.09444   0.34167   0.16711   0.00000  Uiso   1.00
C28    C     0.40586   0.15768   0.16770   0.00000  Uiso   1.00
C29    C     0.40486   0.34106   0.16564   0.00000  Uiso   1.00
C30    C     0.09517   0.15926   0.16639   0.00000  Uiso   1.00
C31    C     0.34223   0.09302   0.16648   0.00000  Uiso   1.00
C32    C     0.15902   0.40518   0.16788   0.00000  Uiso   1.00
C33    C     0.15879   0.09454   0.16547   0.00000  Uiso   1.00
C34    C     0.05978   0.30913   0.16663   0.00000  Uiso   1.00
C35    C     0.34335   0.40778   0.16669   0.00000  Uiso   1.00
C36    C     0.49965   0.16835   0.05035   0.00000  Uiso   1.00
C37    C     0.49834   0.33163   0.28291   0.00000  Uiso   1.00
C38    C     0.00205   0.33142   0.04850   0.00000  Uiso   1.00
C39    C     0.00843   0.16907   0.28534   0.00000  Uiso   1.00
C40    C     0.26465   0.41983   0.04798   0.00000  Uiso   1.00
C41    C     0.26643   0.07999   0.28569   0.00000  Uiso   1.00
C42    C     0.23932   0.08104   0.04590   0.00000  Uiso   1.00
C43    C     0.23811   0.41915   0.28737   0.00000  Uiso   1.00
C44    C     0.38580   0.18751   0.05633   0.00000  Uiso   1.00
C45    C     0.30982   0.44121   0.16675   0.00000  Uiso   1.00
C46    C     0.11610   0.31091   0.27261   0.00000  Uiso   1.00
C47    C     0.10323   0.36443   0.04369   0.00000  Uiso   1.00
C48    C     0.40956   0.14657   0.28137   0.00000  Uiso   1.00
C49    C     0.11037   0.14298   0.29068   0.00000  Uiso   1.00
C50    C     0.36614   0.31341   0.07551   0.00000  Uiso   1.00
C51    C     0.39235   0.33081   0.28434   0.00000  Uiso   1.00
C52    C     0.11724   0.19114   0.06434   0.00000  Uiso   1.00
C53    C     0.20028   0.32481   0.08993   0.00000  Uiso   1.00
C54    C     0.40059   0.01332   0.21037   0.00000  Uiso   1.00
C55    C     0.27147   0.16342   0.14416   0.00000  Uiso   1.00
C56    C     0.19121   0.05997   0.16634   0.00000  Uiso   1.00
C57    C     0.11213   0.46547   0.24727   0.00000  Uiso   1.00
C58    C     0.27681   0.33467   0.19456   0.00000  Uiso   1.00
C59    C     0.11024   0.02660   0.09905   0.00000  Uiso   1.00
C60    C     0.20385   0.17726   0.23891   0.00000  Uiso   1.00
C61    C     0.41799   0.45113   0.07719   0.00000  Uiso   1.00
C62    C     0.19149   0.43973   0.16695   0.00000  Uiso   1.00
C63    C     0.30901   0.05955   0.16651   0.00000  Uiso   1.00
C64    C     0.00064   0.21058   0.02529   0.00000  Uiso   1.00
Cu65   Cu    0.00000   0.25000   0.21355   0.00000  Uiso   1.00
Cu66   Cu    0.00000   0.25000   0.11978   0.00000  Uiso   1.00
Cu67   Cu    0.25000   0.00000   0.21355   0.00000  Uiso   1.00
Cu68   Cu    0.25000   0.00000   0.11978   0.00000  Uiso   1.00
H69    H     0.34471   0.21576   0.10326   0.00000  Uiso   1.00
H70    H     0.13279   0.36343   0.02375   0.00000  Uiso   1.00
H71    H     0.09691   0.39930   0.05504   0.00000  Uiso   1.00
H72    H     0.07767   0.35435   0.02033   0.00000  Uiso   1.00
H73    H     0.44359   0.09534   0.25120   0.00000  Uiso   1.00
H74    H     0.43017   0.14445   0.31222   0.00000  Uiso   1.00
H75    H     0.37968   0.12944   0.29011   0.00000  Uiso   1.00
H76    H     0.40299   0.18247   0.27346   0.00000  Uiso   1.00
H77    H     0.11879   0.20403   0.25339   0.00000  Uiso   1.00
H78    H     0.14022   0.14730   0.30962   0.00000  Uiso   1.00
H79    H     0.10591   0.10702   0.28217   0.00000  Uiso   1.00
H80    H     0.36139   0.16831   0.03780   0.00000  Uiso   1.00
H81    H     0.08479   0.15297   0.31390   0.00000  Uiso   1.00
H82    H     0.42527   0.34124   0.06742   0.00000  Uiso   1.00
H83    H     0.37395   0.28501   0.09898   0.00000  Uiso   1.00
H84    H     0.36609   0.30122   0.03950   0.00000  Uiso   1.00
H85    H     0.33432   0.32575   0.08393   0.00000  Uiso   1.00
H86    H     0.35520   0.28970   0.24324   0.00000  Uiso   1.00
H87    H     0.36479   0.34421   0.30293   0.00000  Uiso   1.00
H88    H     0.41500   0.35860   0.27911   0.00000  Uiso   1.00
H89    H     0.40744   0.30432   0.30595   0.00000  Uiso   1.00
H90    H     0.08722   0.12980   0.05621   0.00000  Uiso   1.00
H91    H     0.41488   0.16732   0.05730   0.00000  Uiso   1.00
H92    H     0.14873   0.17919   0.05383   0.00000  Uiso   1.00
H93    H     0.12101   0.21684   0.09158   0.00000  Uiso   1.00
H94    H     0.10155   0.20760   0.03430   0.00000  Uiso   1.00
H95    H     0.18549   0.39108   0.06826   0.00000  Uiso   1.00
H96    H     0.19200   0.31434   0.05427   0.00000  Uiso   1.00
H97    H     0.18615   0.30091   0.11535   0.00000  Uiso   1.00
H98    H     0.23455   0.32200   0.09433   0.00000  Uiso   1.00
H99    H     0.38331   0.05640   0.26301   0.00000  Uiso   1.00
H100   H     0.43421   0.02240   0.20773   0.00000  Uiso   1.00
H101   H     0.38869   0.00427   0.17563   0.00000  Uiso   1.00
H102   H     0.39204   0.21909   0.03672   0.00000  Uiso   1.00
H103   H     0.39734   0.48359   0.23371   0.00000  Uiso   1.00
H104   H     0.30384   0.15664   0.08233   0.00000  Uiso   1.00
H105   H     0.24346   0.17412   0.12413   0.00000  Uiso   1.00
H106   H     0.28561   0.19380   0.15972   0.00000  Uiso   1.00
H107   H     0.26124   0.13991   0.17199   0.00000  Uiso   1.00
H108   H     0.14098   0.41022   0.27883   0.00000  Uiso   1.00
H109   H     0.12006   0.48679   0.27730   0.00000  Uiso   1.00
H110   H     0.07887   0.45498   0.25010   0.00000  Uiso   1.00
H111   H     0.11658   0.48573   0.21502   0.00000  Uiso   1.00
H112   H     0.30778   0.34866   0.25585   0.00000  Uiso   1.00
H113   H     0.08248   0.37096   0.27565   0.00000  Uiso   1.00
H114   H     0.29307   0.30381   0.18290   0.00000  Uiso   1.00
H115   H     0.26613   0.35445   0.16387   0.00000  Uiso   1.00
H116   H     0.24888   0.32414   0.21468   0.00000  Uiso   1.00
H117   H     0.15685   0.06749   0.06895   0.00000  Uiso   1.00
H118   H     0.07798   0.03243   0.11197   0.00000  Uiso   1.00
H119   H     0.12807   0.00678   0.12525   0.00000  Uiso   1.00
H120   H     0.10826   0.00697   0.06668   0.00000  Uiso   1.00
H121   H     0.18898   0.11205   0.26327   0.00000  Uiso   1.00
H122   H     0.19258   0.19950   0.21023   0.00000  Uiso   1.00
H123   H     0.23838   0.17885   0.23863   0.00000  Uiso   1.00
H124   H     0.14673   0.32424   0.28433   0.00000  Uiso   1.00
H125   H     0.19298   0.19060   0.27254   0.00000  Uiso   1.00
H126   H     0.36336   0.47292   0.10631   0.00000  Uiso   1.00
H127   H     0.44157   0.45583   0.10509   0.00000  Uiso   1.00
H128   H     0.41707   0.48204   0.05521   0.00000  Uiso   1.00
H129   H     0.42751   0.42320   0.05453   0.00000  Uiso   1.00
H130   H     0.12173   0.28422   0.24686   0.00000  Uiso   1.00
H131   H     0.09945   0.29555   0.30258   0.00000  Uiso   1.00
H132   H     0.11579   0.30166   0.07572   0.00000  Uiso   1.00
N133   N     0.00000   0.25000   0.28402   0.00000  Uiso   1.00
N134   N     0.27836   0.11290   0.26868   0.00000  Uiso   1.00
N135   N     0.23045   0.11504   0.06193   0.00000  Uiso   1.00
N136   N     0.22905   0.38529   0.27115   0.00000  Uiso   1.00
N137   N     0.37235   0.19795   0.10282   0.00000  Uiso   1.00
N138   N     0.09090   0.34662   0.25249   0.00000  Uiso   1.00
N139   N     0.10506   0.33346   0.08277   0.00000  Uiso   1.00
N140   N     0.42990   0.12559   0.24233   0.00000  Uiso   1.00
N141   N     0.10936   0.17128   0.24946   0.00000  Uiso   1.00
N142   N     0.39662   0.34882   0.08088   0.00000  Uiso   1.00
N143   N     0.37988   0.31183   0.24057   0.00000  Uiso   1.00
N144   N     0.00000   0.25000   0.04931   0.00000  Uiso   1.00
N145   N     0.09219   0.15372   0.08102   0.00000  Uiso   1.00
N146   N     0.18679   0.37082   0.09742   0.00000  Uiso   1.00
N147   N     0.37682   0.05033   0.22869   0.00000  Uiso   1.00
N148   N     0.30122   0.14125   0.11433   0.00000  Uiso   1.00
N149   N     0.13914   0.42654   0.24717   0.00000  Uiso   1.00
N150   N     0.30442   0.36160   0.22281   0.00000  Uiso   1.00
N151   N     0.13065   0.06900   0.08948   0.00000  Uiso   1.00
N152   N     0.18983   0.13117   0.23330   0.00000  Uiso   1.00
N153   N     0.37699   0.44307   0.09711   0.00000  Uiso   1.00
N154   N     0.25000   0.00000   0.28402   0.00000  Uiso   1.00
N155   N     0.25000   0.00000   0.04931   0.00000  Uiso   1.00
N156   N     0.49855   0.13428   0.07009   0.00000  Uiso   1.00
N157   N     0.49739   0.36564   0.26305   0.00000  Uiso   1.00
N158   N     0.00361   0.36528   0.06766   0.00000  Uiso   1.00
N159   N     0.01441   0.13547   0.26681   0.00000  Uiso   1.00
N160   N     0.27579   0.38681   0.06543   0.00000  Uiso   1.00
O161   O     0.04508   0.20491   0.20625   0.00000  Uiso   1.00
O162   O     0.20491   0.04509   0.12709   0.00000  Uiso   1.00
O163   O     0.20491   0.04509   0.20625   0.00000  Uiso   1.00
O164   O     0.29508   0.45491   0.12709   0.00000  Uiso   1.00
O165   O     0.20491   0.45491   0.12709   0.00000  Uiso   1.00
O166   O     0.29508   0.04509   0.20625   0.00000  Uiso   1.00
O167   O     0.29508   0.04509   0.12709   0.00000  Uiso   1.00
O168   O     0.20491   0.45491   0.20625   0.00000  Uiso   1.00
O169   O     0.45491   0.29509   0.12709   0.00000  Uiso   1.00
O170   O     0.45491   0.29509   0.20625   0.00000  Uiso   1.00
O171   O     0.04508   0.20491   0.12709   0.00000  Uiso   1.00
O172   O     0.45491   0.20491   0.12709   0.00000  Uiso   1.00
O173   O     0.04508   0.29509   0.20625   0.00000  Uiso   1.00
O174   O     0.04508   0.29509   0.12709   0.00000  Uiso   1.00
O175   O     0.45491   0.20491   0.20625   0.00000  Uiso   1.00
O176   O     0.29508   0.45491   0.20625   0.00000  Uiso   1.00
C177   C     0.56016   0.19136   0.16677   0.00000  Uiso   1.00
C178   C     0.99936   0.28946   0.30806   0.00000  Uiso   1.00
C179   C     0.50021   0.28944   0.02429   0.00000  Uiso   1.00
C180   C     0.50205   0.21068   0.30913   0.00000  Uiso   1.00
C181   C     0.75245   0.46087   0.02504   0.00000  Uiso   1.00
C182   C     0.75326   0.03910   0.30833   0.00000  Uiso   1.00
C183   C     0.74855   0.03920   0.02398   0.00000  Uiso   1.00
C184   C     0.74778   0.46084   0.30937   0.00000  Uiso   1.00
C185   C     0.87342   0.16102   0.13458   0.00000  Uiso   1.00
C186   C     0.60605   0.36270   0.20904   0.00000  Uiso   1.00
C187   C     0.61716   0.35140   0.12633   0.00000  Uiso   1.00
C188   C     0.93971   0.30859   0.16634   0.00000  Uiso   1.00
C189   C     0.90408   0.12367   0.20242   0.00000  Uiso   1.00
C190   C     0.61938   0.15094   0.20648   0.00000  Uiso   1.00
C191   C     0.89675   0.36794   0.12579   0.00000  Uiso   1.00
C192   C     0.87687   0.34331   0.20321   0.00000  Uiso   1.00
C193   C     0.60535   0.13679   0.12503   0.00000  Uiso   1.00
C194   C     0.65365   0.37704   0.12964   0.00000  Uiso   1.00
C195   C     0.87484   0.08883   0.19873   0.00000  Uiso   1.00
C196   C     0.83967   0.13084   0.13698   0.00000  Uiso   1.00
C197   C     0.63423   0.39859   0.20777   0.00000  Uiso   1.00
C198   C     0.84248   0.37253   0.19976   0.00000  Uiso   1.00
C199   C     0.94033   0.19066   0.16697   0.00000  Uiso   1.00
C200   C     0.63166   0.09958   0.12702   0.00000  Uiso   1.00
C201   C     0.65548   0.12454   0.20261   0.00000  Uiso   1.00
C202   C     0.87354   0.40730   0.13085   0.00000  Uiso   1.00
C203   C     0.59444   0.34167   0.16711   0.00000  Uiso   1.00
C204   C     0.90586   0.15768   0.16770   0.00000  Uiso   1.00
C205   C     0.90486   0.34106   0.16564   0.00000  Uiso   1.00
C206   C     0.59517   0.15926   0.16639   0.00000  Uiso   1.00
C207   C     0.84223   0.09302   0.16648   0.00000  Uiso   1.00
C208   C     0.65902   0.40518   0.16788   0.00000  Uiso   1.00
C209   C     0.65879   0.09454   0.16547   0.00000  Uiso   1.00
C210   C     0.55978   0.30913   0.16663   0.00000  Uiso   1.00
C211   C     0.84335   0.40778   0.16669   0.00000  Uiso   1.00
C212   C     0.99965   0.16835   0.05035   0.00000  Uiso   1.00
C213   C     0.99834   0.33163   0.28291   0.00000  Uiso   1.00
C214   C     0.50205   0.33142   0.04850   0.00000  Uiso   1.00
C215   C     0.50843   0.16907   0.28534   0.00000  Uiso   1.00
C216   C     0.76465   0.41983   0.04798   0.00000  Uiso   1.00
C217   C     0.76643   0.07999   0.28569   0.00000  Uiso   1.00
C218   C     0.73932   0.08104   0.04590   0.00000  Uiso   1.00
C219   C     0.73811   0.41915   0.28737   0.00000  Uiso   1.00
C220   C     0.88580   0.18751   0.05633   0.00000  Uiso   1.00
C221   C     0.80982   0.44121   0.16675   0.00000  Uiso   1.00
C222   C     0.61610   0.31091   0.27261   0.00000  Uiso   1.00
C223   C     0.60323   0.36443   0.04369   0.00000  Uiso   1.00
C224   C     0.90956   0.14657   0.28137   0.00000  Uiso   1.00
C225   C     0.61037   0.14298   0.29068   0.00000  Uiso   1.00
C226   C     0.86614   0.31341   0.07551   0.00000  Uiso   1.00
C227   C     0.89235   0.33081   0.28434   0.00000  Uiso   1.00
C228   C     0.61724   0.19114   0.06434   0.00000  Uiso   1.00
C229   C     0.70028   0.32481   0.08993   0.00000  Uiso   1.00
C230   C     0.90059   0.01332   0.21037   0.00000  Uiso   1.00
C231   C     0.77147   0.16342   0.14416   0.00000  Uiso   1.00
C232   C     0.69121   0.05997   0.16634   0.00000  Uiso   1.00
C233   C     0.61213   0.46547   0.24727   0.00000  Uiso   1.00
C234   C     0.77681   0.33467   0.19456   0.00000  Uiso   1.00
C235   C     0.61024   0.02660   0.09905   0.00000  Uiso   1.00
C236   C     0.70385   0.17726   0.23891   0.00000  Uiso   1.00
C237   C     0.91799   0.45113   0.07719   0.00000  Uiso   1.00
C238   C     0.69149   0.43973   0.16695   0.00000  Uiso   1.00
C239   C     0.80901   0.05955   0.16651   0.00000  Uiso   1.00
C240   C     0.50064   0.21058   0.02529   0.00000  Uiso   1.00
Cu241  Cu    0.50000   0.25000   0.21355   0.00000  Uiso   1.00
Cu242  Cu    0.50000   0.25000   0.11978   0.00000  Uiso   1.00
Cu243  Cu    0.75000   0.00000   0.21355   0.00000  Uiso   1.00
Cu244  Cu    0.75000   0.00000   0.11978   0.00000  Uiso   1.00
H245   H     0.84471   0.21576   0.10326   0.00000  Uiso   1.00
H246   H     0.63279   0.36343   0.02375   0.00000  Uiso   1.00
H247   H     0.59691   0.39930   0.05504   0.00000  Uiso   1.00
H248   H     0.57767   0.35435   0.02033   0.00000  Uiso   1.00
H249   H     0.94359   0.09534   0.25120   0.00000  Uiso   1.00
H250   H     0.93017   0.14445   0.31222   0.00000  Uiso   1.00
H251   H     0.87968   0.12944   0.29011   0.00000  Uiso   1.00
H252   H     0.90299   0.18247   0.27346   0.00000  Uiso   1.00
H253   H     0.61879   0.20403   0.25339   0.00000  Uiso   1.00
H254   H     0.64022   0.14730   0.30962   0.00000  Uiso   1.00
H255   H     0.60591   0.10702   0.28217   0.00000  Uiso   1.00
H256   H     0.86139   0.16831   0.03780   0.00000  Uiso   1.00
H257   H     0.58479   0.15297   0.31390   0.00000  Uiso   1.00
H258   H     0.92527   0.34124   0.06742   0.00000  Uiso   1.00
H259   H     0.87395   0.28501   0.09898   0.00000  Uiso   1.00
H260   H     0.86609   0.30122   0.03950   0.00000  Uiso   1.00
H261   H     0.83432   0.32575   0.08393   0.00000  Uiso   1.00
H262   H     0.85520   0.28970   0.24324   0.00000  Uiso   1.00
H263   H     0.86479   0.34421   0.30293   0.00000  Uiso   1.00
H264   H     0.91500   0.35860   0.27911   0.00000  Uiso   1.00
H265   H     0.90744   0.30432   0.30595   0.00000  Uiso   1.00
H266   H     0.58722   0.12980   0.05621   0.00000  Uiso   1.00
H267   H     0.91488   0.16732   0.05730   0.00000  Uiso   1.00
H268   H     0.64873   0.17919   0.05383   0.00000  Uiso   1.00
H269   H     0.62101   0.21684   0.09158   0.00000  Uiso   1.00
H270   H     0.60155   0.20760   0.03430   0.00000  Uiso   1.00
H271   H     0.68549   0.39108   0.06826   0.00000  Uiso   1.00
H272   H     0.69200   0.31434   0.05427   0.00000  Uiso   1.00
H273   H     0.68615   0.30091   0.11535   0.00000  Uiso   1.00
H274   H     0.73455   0.32200   0.09433   0.00000  Uiso   1.00
H275   H     0.88331   0.05640   0.26301   0.00000  Uiso   1.00
H276   H     0.93421   0.02240   0.20773   0.00000  Uiso   1.00
H277   H     0.88869   0.00427   0.17563   0.00000  Uiso   1.00
H278   H     0.89204   0.21909   0.03672   0.00000  Uiso   1.00
H279   H     0.89734   0.48359   0.23371   0.00000  Uiso   1.00
H280   H     0.80384   0.15664   0.08233   0.00000  Uiso   1.00
H281   H     0.74346   0.17412   0.12413   0.00000  Uiso   1.00
H282   H     0.78561   0.19380   0.15972   0.00000  Uiso   1.00
H283   H     0.76124   0.13991   0.17199   0.00000  Uiso   1.00
H284   H     0.64098   0.41022   0.27883   0.00000  Uiso   1.00
H285   H     0.62006   0.48679   0.27730   0.00000  Uiso   1.00
H286   H     0.57887   0.45498   0.25010   0.00000  Uiso   1.00
H287   H     0.61658   0.48573   0.21502   0.00000  Uiso   1.00
H288   H     0.80778   0.34866   0.25585   0.00000  Uiso   1.00
H289   H     0.58248   0.37096   0.27565   0.00000  Uiso   1.00
H290   H     0.79307   0.30381   0.18290   0.00000  Uiso   1.00
H291   H     0.76613   0.35445   0.16387   0.00000  Uiso   1.00
H292   H     0.74888   0.32414   0.21468   0.00000  Uiso   1.00
H293   H     0.65685   0.06749   0.06895   0.00000  Uiso   1.00
H294   H     0.57798   0.03243   0.11197   0.00000  Uiso   1.00
H295   H     0.62807   0.00678   0.12525   0.00000  Uiso   1.00
H296   H     0.60826   0.00697   0.06668   0.00000  Uiso   1.00
H297   H     0.68898   0.11205   0.26327   0.00000  Uiso   1.00
H298   H     0.69258   0.19950   0.21023   0.00000  Uiso   1.00
H299   H     0.73838   0.17885   0.23863   0.00000  Uiso   1.00
H300   H     0.64673   0.32424   0.28433   0.00000  Uiso   1.00
H301   H     0.69298   0.19060   0.27254   0.00000  Uiso   1.00
H302   H     0.86336   0.47292   0.10631   0.00000  Uiso   1.00
H303   H     0.94157   0.45583   0.10509   0.00000  Uiso   1.00
H304   H     0.91707   0.48204   0.05521   0.00000  Uiso   1.00
H305   H     0.92751   0.42320   0.05453   0.00000  Uiso   1.00
H306   H     0.62173   0.28422   0.24686   0.00000  Uiso   1.00
H307   H     0.59945   0.29555   0.30258   0.00000  Uiso   1.00
H308   H     0.61579   0.30166   0.07572   0.00000  Uiso   1.00
N309   N     0.50000   0.25000   0.28402   0.00000  Uiso   1.00
N310   N     0.77836   0.11290   0.26868   0.00000  Uiso   1.00
N311   N     0.73045   0.11504   0.06193   0.00000  Uiso   1.00
N312   N     0.72905   0.38529   0.27115   0.00000  Uiso   1.00
N313   N     0.87235   0.19795   0.10282   0.00000  Uiso   1.00
N314   N     0.59090   0.34662   0.25249   0.00000  Uiso   1.00
N315   N     0.60506   0.33346   0.08277   0.00000  Uiso   1.00
N316   N     0.92990   0.12559   0.24233   0.00000  Uiso   1.00
N317   N     0.60936   0.17128   0.24946   0.00000  Uiso   1.00
N318   N     0.89662   0.34882   0.08088   0.00000  Uiso   1.00
N319   N     0.87988   0.31183   0.24057   0.00000  Uiso   1.00
N320   N     0.50000   0.25000   0.04931   0.00000  Uiso   1.00
N321   N     0.59219   0.15372   0.08102   0.00000  Uiso   1.00
N322   N     0.68679   0.37082   0.09742   0.00000  Uiso   1.00
N323   N     0.87682   0.05033   0.22869   0.00000  Uiso   1.00
N324   N     0.80122   0.14125   0.11433   0.00000  Uiso   1.00
N325   N     0.63914   0.42654   0.24717   0.00000  Uiso   1.00
N326   N     0.80442   0.36160   0.22281   0.00000  Uiso   1.00
N327   N     0.63065   0.06900   0.08948   0.00000  Uiso   1.00
N328   N     0.68983   0.13117   0.23330   0.00000  Uiso   1.00
N329   N     0.87699   0.44307   0.09711   0.00000  Uiso   1.00
N330   N     0.75000   0.00000   0.28402   0.00000  Uiso   1.00
N331   N     0.75000   0.00000   0.04931   0.00000  Uiso   1.00
N332   N     0.99855   0.13428   0.07009   0.00000  Uiso   1.00
N333   N     0.99739   0.36564   0.26305   0.00000  Uiso   1.00
N334   N     0.50361   0.36528   0.06766   0.00000  Uiso   1.00
N335   N     0.51441   0.13547   0.26681   0.00000  Uiso   1.00
N336   N     0.77579   0.38681   0.06543   0.00000  Uiso   1.00
O337   O     0.54508   0.20491   0.20625   0.00000  Uiso   1.00
O338   O     0.70491   0.04509   0.12709   0.00000  Uiso   1.00
O339   O     0.70491   0.04509   0.20625   0.00000  Uiso   1.00
O340   O     0.79508   0.45491   0.12709   0.00000  Uiso   1.00
O341   O     0.70491   0.45491   0.12709   0.00000  Uiso   1.00
O342   O     0.79508   0.04509   0.20625   0.00000  Uiso   1.00
O343   O     0.79508   0.04509   0.12709   0.00000  Uiso   1.00
O344   O     0.70491   0.45491   0.20625   0.00000  Uiso   1.00
O345   O     0.95491   0.29509   0.12709   0.00000  Uiso   1.00
O346   O     0.95491   0.29509   0.20625   0.00000  Uiso   1.00
O347   O     0.54508   0.20491   0.12709   0.00000  Uiso   1.00
O348   O     0.95491   0.20491   0.12709   0.00000  Uiso   1.00
O349   O     0.54508   0.29509   0.20625   0.00000  Uiso   1.00
O350   O     0.54508   0.29509   0.12709   0.00000  Uiso   1.00
O351   O     0.95491   0.20491   0.20625   0.00000  Uiso   1.00
O352   O     0.79508   0.45491   0.20625   0.00000  Uiso   1.00
C353   C     0.06016   0.69136   0.16677   0.00000  Uiso   1.00
C354   C     0.49936   0.78946   0.30806   0.00000  Uiso   1.00
C355   C     0.00021   0.78944   0.02429   0.00000  Uiso   1.00
C356   C     0.00205   0.71068   0.30913   0.00000  Uiso   1.00
C357   C     0.25245   0.96087   0.02504   0.00000  Uiso   1.00
C358   C     0.25326   0.53910   0.30833   0.00000  Uiso   1.00
C359   C     0.24855   0.53920   0.02398   0.00000  Uiso   1.00
C360   C     0.24778   0.96084   0.30937   0.00000  Uiso   1.00
C361   C     0.37342   0.66102   0.13458   0.00000  Uiso   1.00
C362   C     0.10605   0.86270   0.20904   0.00000  Uiso   1.00
C363   C     0.11716   0.85140   0.12633   0.00000  Uiso   1.00
C364   C     0.43971   0.80859   0.16634   0.00000  Uiso   1.00
C365   C     0.40408   0.62367   0.20242   0.00000  Uiso   1.00
C366   C     0.11938   0.65094   0.20648   0.00000  Uiso   1.00
C367   C     0.39675   0.86794   0.12579   0.00000  Uiso   1.00
C368   C     0.37687   0.84331   0.20321   0.00000  Uiso   1.00
C369   C     0.10535   0.63679   0.12503   0.00000  Uiso   1.00
C370   C     0.15365   0.87704   0.12964   0.00000  Uiso   1.00
C371   C     0.37484   0.58883   0.19873   0.00000  Uiso   1.00
C372   C     0.33967   0.63084   0.13698   0.00000  Uiso   1.00
C373   C     0.13423   0.89859   0.20777   0.00000  Uiso   1.00
C374   C     0.34248   0.87253   0.19976   0.00000  Uiso   1.00
C375   C     0.44033   0.69066   0.16697   0.00000  Uiso   1.00
C376   C     0.13166   0.59958   0.12702   0.00000  Uiso   1.00
C377   C     0.15548   0.62454   0.20261   0.00000  Uiso   1.00
C378   C     0.37354   0.90730   0.13085   0.00000  Uiso   1.00
C379   C     0.09444   0.84167   0.16711   0.00000  Uiso   1.00
C380   C     0.40586   0.65768   0.16770   0.00000  Uiso   1.00
C381   C     0.40486   0.84106   0.16564   0.00000  Uiso   1.00
C382   C     0.09517   0.65926   0.16639   0.00000  Uiso   1.00
C383   C     0.34223   0.59302   0.16648   0.00000  Uiso   1.00
C384   C     0.15902   0.90518   0.16788   0.00000  Uiso   1.00
C385   C     0.15879   0.59454   0.16547   0.00000  Uiso   1.00
C386   C     0.05978   0.80913   0.16663   0.00000  Uiso   1.00
C387   C     0.34335   0.90778   0.16669   0.00000  Uiso   1.00
C388   C     0.49965   0.66835   0.05035   0.00000  Uiso   1.00
C389   C     0.49834   0.83163   0.28291   0.00000  Uiso   1.00
C390   C     0.00205   0.83142   0.04850   0.00000  Uiso   1.00
C391   C     0.00843   0.66907   0.28534   0.00000  Uiso   1.00
C392   C     0.26465   0.91983   0.04798   0.00000  Uiso   1.00
C393   C     0.26643   0.57999   0.28569   0.00000  Uiso   1.00
C394   C     0.23932   0.58104   0.04590   0.00000  Uiso   1.00
C395   C     0.23811   0.91915   0.28737   0.00000  Uiso   1.00
C396   C     0.38580   0.68751   0.05633   0.00000  Uiso   1.00
C397   C     0.30982   0.94121   0.16675   0.00000  Uiso   1.00
C398   C     0.11610   0.81091   0.27261   0.00000  Uiso   1.00
C399   C     0.10323   0.86443   0.04369   0.00000  Uiso   1.00
C400   C     0.40956   0.64657   0.28137   0.00000  Uiso   1.00
C401   C     0.11037   0.64298   0.29068   0.00000  Uiso   1.00
C402   C     0.36614   0.81341   0.07551   0.00000  Uiso   1.00
C403   C     0.39235   0.83081   0.28434   0.00000  Uiso   1.00
C404   C     0.11724   0.69114   0.06434   0.00000  Uiso   1.00
C405   C     0.20028   0.82481   0.08993   0.00000  Uiso   1.00
C406   C     0.40059   0.51332   0.21037   0.00000  Uiso   1.00
C407   C     0.27147   0.66342   0.14416   0.00000  Uiso   1.00
C408   C     0.19121   0.55997   0.16634   0.00000  Uiso   1.00
C409   C     0.11213   0.96547   0.24727   0.00000  Uiso   1.00
C410   C     0.27681   0.83467   0.19456   0.00000  Uiso   1.00
C411   C     0.11024   0.52660   0.09905   0.00000  Uiso   1.00
C412   C     0.20385   0.67726   0.23891   0.00000  Uiso   1.00
C413   C     0.41799   0.95113   0.07719   0.00000  Uiso   1.00
C414   C     0.19149   0.93973   0.16695   0.00000  Uiso   1.00
C415   C     0.30901   0.55955   0.16651   0.00000  Uiso   1.00
C416   C     0.00064   0.71058   0.02529   0.00000  Uiso   1.00
Cu417  Cu    0.00000   0.75000   0.21355   0.00000  Uiso   1.00
Cu418  Cu    0.00000   0.75000   0.11978   0.00000  Uiso   1.00
Cu419  Cu    0.25000   0.50000   0.21355   0.00000  Uiso   1.00
Cu420  Cu    0.25000   0.50000   0.11978   0.00000  Uiso   1.00
H421   H     0.34471   0.71576   0.10326   0.00000  Uiso   1.00
H422   H     0.13279   0.86343   0.02375   0.00000  Uiso   1.00
H423   H     0.09691   0.89930   0.05504   0.00000  Uiso   1.00
H424   H     0.07767   0.85435   0.02033   0.00000  Uiso   1.00
H425   H     0.44359   0.59534   0.25120   0.00000  Uiso   1.00
H426   H     0.43017   0.64445   0.31222   0.00000  Uiso   1.00
H427   H     0.37968   0.62944   0.29011   0.00000  Uiso   1.00
H428   H     0.40299   0.68247   0.27346   0.00000  Uiso   1.00
H429   H     0.11879   0.70403   0.25339   0.00000  Uiso   1.00
H430   H     0.14022   0.64730   0.30962   0.00000  Uiso   1.00
H431   H     0.10591   0.60702   0.28217   0.00000  Uiso   1.00
H432   H     0.36139   0.66831   0.03780   0.00000  Uiso   1.00
H433   H     0.08479   0.65297   0.31390   0.00000  Uiso   1.00
H434   H     0.42527   0.84124   0.06742   0.00000  Uiso   1.00
H435   H     0.37395   0.78501   0.09898   0.00000  Uiso   1.00
H436   H     0.36609   0.80122   0.03950   0.00000  Uiso   1.00
H437   H     0.33432   0.82575   0.08393   0.00000  Uiso   1.00
H438   H     0.35520   0.78970   0.24324   0.00000  Uiso   1.00
H439   H     0.36479   0.84421   0.30293   0.00000  Uiso   1.00
H440   H     0.41500   0.85860   0.27911   0.00000  Uiso   1.00
H441   H     0.40744   0.80432   0.30595   0.00000  Uiso   1.00
H442   H     0.08722   0.62980   0.05621   0.00000  Uiso   1.00
H443   H     0.41488   0.66732   0.05730   0.00000  Uiso   1.00
H444   H     0.14873   0.67919   0.05383   0.00000  Uiso   1.00
H445   H     0.12101   0.71684   0.09158   0.00000  Uiso   1.00
H446   H     0.10155   0.70760   0.03430   0.00000  Uiso   1.00
H447   H     0.18549   0.89108   0.06826   0.00000  Uiso   1.00
H448   H     0.19200   0.81434   0.05427   0.00000  Uiso   1.00
H449   H     0.18615   0.80091   0.11535   0.00000  Uiso   1.00
H450   H     0.23455   0.82200   0.09433   0.00000  Uiso   1.00
H451   H     0.38331   0.55640   0.26301   0.00000  Uiso   1.00
H452   H     0.43421   0.52240   0.20773   0.00000  Uiso   1.00
H453   H     0.38869   0.50427   0.17563   0.00000  Uiso   1.00
H454   H     0.39204   0.71909   0.03672   0.00000  Uiso   1.00
H455   H     0.39734   0.98359   0.23371   0.00000  Uiso   1.00
H456   H     0.30384   0.65664   0.08233   0.00000  Uiso   1.00
H457   H     0.24346   0.67412   0.12413   0.00000  Uiso   1.00
H458   H     0.28561   0.69380   0.15972   0.00000  Uiso   1.00
H459   H     0.26124   0.63991   0.17199   0.00000  Uiso   1.00
H460   H     0.14098   0.91022   0.27883   0.00000  Uiso   1.00
H461   H     0.12006   0.98679   0.27730   0.00000  Uiso   1.00
H462   H     0.07887   0.95498   0.25010   0.00000  Uiso   1.00
H463   H     0.11658   0.98573   0.21502   0.00000  Uiso   1.00
H464   H     0.30778   0.84866   0.25585   0.00000  Uiso   1.00
H465   H     0.08248   0.87096   0.27565   0.00000  Uiso   1.00
H466   H     0.29307   0.80381   0.18290   0.00000  Uiso   1.00
H467   H     0.26613   0.85445   0.16387   0.00000  Uiso   1.00
H468   H     0.24888   0.82414   0.21468   0.00000  Uiso   1.00
H469   H     0.15685   0.56749   0.06895   0.00000  Uiso   1.00
H470   H     0.07798   0.53243   0.11197   0.00000  Uiso   1.00
H471   H     0.12807   0.50678   0.12525   0.00000  Uiso   1.00
H472   H     0.10826   0.50697   0.06668   0.00000  Uiso   1.00
H473   H     0.18898   0.61205   0.26327   0.00000  Uiso   1.00
H474   H     0.19258   0.69950   0.21023   0.00000  Uiso   1.00
H475   H     0.23838   0.67885   0.23863   0.00000  Uiso   1.00
H476   H     0.14673   0.82424   0.28433   0.00000  Uiso   1.00
H477   H     0.19298   0.69060   0.27254   0.00000  Uiso   1.00
H478   H     0.36336   0.97292   0.10631   0.00000  Uiso   1.00
H479   H     0.44157   0.95583   0.10509   0.00000  Uiso   1.00
H480   H     0.41707   0.98204   0.05521   0.00000  Uiso   1.00
H481   H     0.42751   0.92320   0.05453   0.00000  Uiso   1.00
H482   H     0.12173   0.78422   0.24686   0.00000  Uiso   1.00
H483   H     0.09945   0.79555   0.30258   0.00000  Uiso   1.00
H484   H     0.11579   0.80166   0.07572   0.00000  Uiso   1.00
N485   N     0.00000   0.75000   0.28402   0.00000  Uiso   1.00
N486   N     0.27836   0.61290   0.26868   0.00000  Uiso   1.00
N487   N     0.23045   0.61504   0.06193   0.00000  Uiso   1.00
N488   N     0.22905   0.88529   0.27115   0.00000  Uiso   1.00
N489   N     0.37235   0.69795   0.10282   0.00000  Uiso   1.00
N490   N     0.09090   0.84662   0.25249   0.00000  Uiso   1.00
N491   N     0.10506   0.83346   0.08277   0.00000  Uiso   1.00
N492   N     0.42990   0.62559   0.24233   0.00000  Uiso   1.00
N493   N     0.10936   0.67128   0.24946   0.00000  Uiso   1.00
N494   N     0.39662   0.84882   0.08088   0.00000  Uiso   1.00
N495   N     0.37988   0.81183   0.24057   0.00000  Uiso   1.00
N496   N     0.00000   0.75000   0.04931   0.00000  Uiso   1.00
N497   N     0.09219   0.65372   0.08102   0.00000  Uiso   1.00
N498   N     0.18679   0.87082   0.09742   0.00000  Uiso   1.00
N499   N     0.37682   0.55033   0.22869   0.00000  Uiso   1.00
N500   N     0.30122   0.64125   0.11433   0.00000  Uiso   1.00
N501   N     0.13914   0.92654   0.24717   0.00000  Uiso   1.00
N502   N     0.30442   0.86160   0.22281   0.00000  Uiso   1.00
N503   N     0.13065   0.56900   0.08948   0.00000  Uiso   1.00
N504   N     0.18983   0.63117   0.23330   0.00000  Uiso   1.00
N505   N     0.37699   0.94307   0.09711   0.00000  Uiso   1.00
N506   N     0.25000   0.50000   0.28402   0.00000  Uiso   1.00
N507   N     0.25000   0.50000   0.04931   0.00000  Uiso   1.00
N508   N     0.49855   0.63428   0.07009   0.00000  Uiso   1.00
N509   N     0.49739   0.86564   0.26305   0.00000  Uiso   1.00
N510   N     0.00361   0.86528   0.06766   0.00000  Uiso   1.00
N511   N     0.01441   0.63547   0.26681   0.00000  Uiso   1.00
N512   N     0.27579   0.88681   0.06543   0.00000  Uiso   1.00
O513   O     0.04508   0.70491   0.20625   0.00000  Uiso   1.00
O514   O     0.20491   0.54509   0.12709   0.00000  Uiso   1.00
O515   O     0.20491   0.54509   0.20625   0.00000  Uiso   1.00
O516   O     0.29508   0.95491   0.12709   0.00000  Uiso   1.00
O517   O     0.20491   0.95491   0.12709   0.00000  Uiso   1.00
O518   O     0.29508   0.54509   0.20625   0.00000  Uiso   1.00
O519   O     0.29508   0.54509   0.12709   0.00000  Uiso   1.00
O520   O     0.20491   0.95491   0.20625   0.00000  Uiso   1.00
O521   O     0.45491   0.79509   0.12709   0.00000  Uiso   1.00
O522   O     0.45491   0.79509   0.20625   0.00000  Uiso   1.00
O523   O     0.04508   0.70491   0.12709   0.00000  Uiso   1.00
O524   O     0.45491   0.70491   0.12709   0.00000  Uiso   1.00
O525   O     0.04508   0.79509   0.20625   0.00000  Uiso   1.00
O526   O     0.04508   0.79509   0.12709   0.00000  Uiso   1.00
O527   O     0.45491   0.70491   0.20625   0.00000  Uiso   1.00
O528   O     0.29508   0.95491   0.20625   0.00000  Uiso   1.00
C529   C     0.56016   0.69136   0.16677   0.00000  Uiso   1.00
C530   C     0.99936   0.78946   0.30806   0.00000  Uiso   1.00
C531   C     0.50021   0.78944   0.02429   0.00000  Uiso   1.00
C532   C     0.50205   0.71068   0.30913   0.00000  Uiso   1.00
C533   C     0.75245   0.96087   0.02504   0.00000  Uiso   1.00
C534   C     0.75326   0.53910   0.30833   0.00000  Uiso   1.00
C535   C     0.74855   0.53920   0.02398   0.00000  Uiso   1.00
C536   C     0.74778   0.96084   0.30937   0.00000  Uiso   1.00
C537   C     0.87342   0.66102   0.13458   0.00000  Uiso   1.00
C538   C     0.60605   0.86270   0.20904   0.00000  Uiso   1.00
C539   C     0.61716   0.85140   0.12633   0.00000  Uiso   1.00
C540   C     0.93971   0.80859   0.16634   0.00000  Uiso   1.00
C541   C     0.90408   0.62367   0.20242   0.00000  Uiso   1.00
C542   C     0.61938   0.65094   0.20648   0.00000  Uiso   1.00
C543   C     0.89675   0.86794   0.12579   0.00000  Uiso   1.00
C544   C     0.87687   0.84331   0.20321   0.00000  Uiso   1.00
C545   C     0.60535   0.63679   0.12503   0.00000  Uiso   1.00
C546   C     0.65365   0.87704   0.12964   0.00000  Uiso   1.00
C547   C     0.87484   0.58883   0.19873   0.00000  Uiso   1.00
C548   C     0.83967   0.63084   0.13698   0.00000  Uiso   1.00
C549   C     0.63423   0.89859   0.20777   0.00000  Uiso   1.00
C550   C     0.84248   0.87253   0.19976   0.00000  Uiso   1.00
C551   C     0.94033   0.69066   0.16697   0.00000  Uiso   1.00
C552   C     0.63166   0.59958   0.12702   0.00000  Uiso   1.00
C553   C     0.65548   0.62454   0.20261   0.00000  Uiso   1.00
C554   C     0.87354   0.90730   0.13085   0.00000  Uiso   1.00
C555   C     0.59444   0.84167   0.16711   0.00000  Uiso   1.00
C556   C     0.90586   0.65768   0.16770   0.00000  Uiso   1.00
C557   C     0.90486   0.84106   0.16564   0.00000  Uiso   1.00
C558   C     0.59517   0.65926   0.16639   0.00000  Uiso   1.00
C559   C     0.84223   0.59302   0.16648   0.00000  Uiso   1.00
C560   C     0.65902   0.90518   0.16788   0.00000  Uiso   1.00
C561   C     0.65879   0.59454   0.16547   0.00000  Uiso   1.00
C562   C     0.55978   0.80913   0.16663   0.00000  Uiso   1.00
C563   C     0.84335   0.90778   0.16669   0.00000  Uiso   1.00
C564   C     0.99965   0.66835   0.05035   0.00000  Uiso   1.00
C565   C     0.99834   0.83163   0.28291   0.00000  Uiso   1.00
C566   C     0.50205   0.83142   0.04850   0.00000  Uiso   1.00
C567   C     0.50843   0.66907   0.28534   0.00000  Uiso   1.00
C568   C     0.76465   0.91983   0.04798   0.00000  Uiso   1.00
C569   C     0.76643   0.57999   0.28569   0.00000  Uiso   1.00
C570   C     0.73932   0.58104   0.04590   0.00000  Uiso   1.00
C571   C     0.73811   0.91915   0.28737   0.00000  Uiso   1.00
C572   C     0.88580   0.68751   0.05633   0.00000  Uiso   1.00
C573   C     0.80982   0.94121   0.16675   0.00000  Uiso   1.00
C574   C     0.61610   0.81091   0.27261   0.00000  Uiso   1.00
C575   C     0.60323   0.86443   0.04369   0.00000  Uiso   1.00
C576   C     0.90956   0.64657   0.28137   0.00000  Uiso   1.00
C577   C     0.61037   0.64298   0.29068   0.00000  Uiso   1.00
C578   C     0.86614   0.81341   0.07551   0.00000  Uiso   1.00
C579   C     0.89235   0.83081   0.28434   0.00000  Uiso   1.00
C580   C     0.61724   0.69114   0.06434   0.00000  Uiso   1.00
C581   C     0.70028   0.82481   0.08993   0.00000  Uiso   1.00
C582   C     0.90059   0.51332   0.21037   0.00000  Uiso   1.00
C583   C     0.77147   0.66342   0.14416   0.00000  Uiso   1.00
C584   C     0.69121   0.55997   0.16634   0.00000  Uiso   1.00
C585   C     0.61213   0.96547   0.24727   0.00000  Uiso   1.00
C586   C     0.77681   0.83467   0.19456   0.00000  Uiso   1.00
C587   C     0.61024   0.52660   0.09905   0.00000  Uiso   1.00
C588   C     0.70385   0.67726   0.23891   0.00000  Uiso   1.00
C589   C     0.91799   0.95113   0.07719   0.00000  Uiso   1.00
C590   C     0.69149   0.93973   0.16695   0.00000  Uiso   1.00
C591   C     0.80901   0.55955   0.16651   0.00000  Uiso   1.00
C592   C     0.50064   0.71058   0.02529   0.00000  Uiso   1.00
Cu593  Cu    0.50000   0.75000   0.21355   0.00000  Uiso   1.00
Cu594  Cu    0.50000   0.75000   0.11978   0.00000  Uiso   1.00
Cu595  Cu    0.75000   0.50000   0.21355   0.00000  Uiso   1.00
Cu596  Cu    0.75000   0.50000   0.11978   0.00000  Uiso   1.00
H597   H     0.84471   0.71576   0.10326   0.00000  Uiso   1.00
H598   H     0.63279   0.86343   0.02375   0.00000  Uiso   1.00
H599   H     0.59691   0.89930   0.05504   0.00000  Uiso   1.00
H600   H     0.57767   0.85435   0.02033   0.00000  Uiso   1.00
H601   H     0.94359   0.59534   0.25120   0.00000  Uiso   1.00
H602   H     0.93017   0.64445   0.31222   0.00000  Uiso   1.00
H603   H     0.87968   0.62944   0.29011   0.00000  Uiso   1.00
H604   H     0.90299   0.68247   0.27346   0.00000  Uiso   1.00
H605   H     0.61879   0.70403   0.25339   0.00000  Uiso   1.00
H606   H     0.64022   0.64730   0.30962   0.00000  Uiso   1.00
H607   H     0.60591   0.60702   0.28217   0.00000  Uiso   1.00
H608   H     0.86139   0.66831   0.03780   0.00000  Uiso   1.00
H609   H     0.58479   0.65297   0.31390   0.00000  Uiso   1.00
H610   H     0.92527   0.84124   0.06742   0.00000  Uiso   1.00
H611   H     0.87395   0.78501   0.09898   0.00000  Uiso   1.00
H612   H     0.86609   0.80122   0.03950   0.00000  Uiso   1.00
H613   H     0.83432   0.82575   0.08393   0.00000  Uiso   1.00
H614   H     0.85520   0.78970   0.24324   0.00000  Uiso   1.00
H615   H     0.86479   0.84421   0.30293   0.00000  Uiso   1.00
H616   H     0.91500   0.85860   0.27911   0.00000  Uiso   1.00
H617   H     0.90744   0.80432   0.30595   0.00000  Uiso   1.00
H618   H     0.58722   0.62980   0.05621   0.00000  Uiso   1.00
H619   H     0.91488   0.66732   0.05730   0.00000  Uiso   1.00
H620   H     0.64873   0.67919   0.05383   0.00000  Uiso   1.00
H621   H     0.62101   0.71684   0.09158   0.00000  Uiso   1.00
H622   H     0.60155   0.70760   0.03430   0.00000  Uiso   1.00
H623   H     0.68549   0.89108   0.06826   0.00000  Uiso   1.00
H624   H     0.69200   0.81434   0.05427   0.00000  Uiso   1.00
H625   H     0.68615   0.80091   0.11535   0.00000  Uiso   1.00
H626   H     0.73455   0.82200   0.09433   0.00000  Uiso   1.00
H627   H     0.88331   0.55640   0.26301   0.00000  Uiso   1.00
H628   H     0.93421   0.52240   0.20773   0.00000  Uiso   1.00
H629   H     0.88869   0.50427   0.17563   0.00000  Uiso   1.00
H630   H     0.89204   0.71909   0.03672   0.00000  Uiso   1.00
H631   H     0.89734   0.98359   0.23371   0.00000  Uiso   1.00
H632   H     0.80384   0.65664   0.08233   0.00000  Uiso   1.00
H633   H     0.74346   0.67412   0.12413   0.00000  Uiso   1.00
H634   H     0.78561   0.69380   0.15972   0.00000  Uiso   1.00
H635   H     0.76124   0.63991   0.17199   0.00000  Uiso   1.00
H636   H     0.64098   0.91022   0.27883   0.00000  Uiso   1.00
H637   H     0.62006   0.98679   0.27730   0.00000  Uiso   1.00
H638   H     0.57887   0.95498   0.25010   0.00000  Uiso   1.00
H639   H     0.61658   0.98573   0.21502   0.00000  Uiso   1.00
H640   H     0.80778   0.84866   0.25585   0.00000  Uiso   1.00
H641   H     0.58248   0.87096   0.27565   0.00000  Uiso   1.00
H642   H     0.79307   0.80381   0.18290   0.00000  Uiso   1.00
H643   H     0.76613   0.85445   0.16387   0.00000  Uiso   1.00
H644   H     0.74888   0.82414   0.21468   0.00000  Uiso   1.00
H645   H     0.65685   0.56749   0.06895   0.00000  Uiso   1.00
H646   H     0.57798   0.53243   0.11197   0.00000  Uiso   1.00
H647   H     0.62807   0.50678   0.12525   0.00000  Uiso   1.00
H648   H     0.60826   0.50697   0.06668   0.00000  Uiso   1.00
H649   H     0.68898   0.61205   0.26327   0.00000  Uiso   1.00
H650   H     0.69258   0.69950   0.21023   0.00000  Uiso   1.00
H651   H     0.73838   0.67885   0.23863   0.00000  Uiso   1.00
H652   H     0.64673   0.82424   0.28433   0.00000  Uiso   1.00
H653   H     0.69298   0.69060   0.27254   0.00000  Uiso   1.00
H654   H     0.86336   0.97292   0.10631   0.00000  Uiso   1.00
H655   H     0.94157   0.95583   0.10509   0.00000  Uiso   1.00
H656   H     0.91707   0.98204   0.05521   0.00000  Uiso   1.00
H657   H     0.92751   0.92320   0.05453   0.00000  Uiso   1.00
H658   H     0.62173   0.78422   0.24686   0.00000  Uiso   1.00
H659   H     0.59945   0.79555   0.30258   0.00000  Uiso   1.00
H660   H     0.61579   0.80166   0.07572   0.00000  Uiso   1.00
N661   N     0.50000   0.75000   0.28402   0.00000  Uiso   1.00
N662   N     0.77836   0.61290   0.26868   0.00000  Uiso   1.00
N663   N     0.73045   0.61504   0.06193   0.00000  Uiso   1.00
N664   N     0.72905   0.88529   0.27115   0.00000  Uiso   1.00
N665   N     0.87235   0.69795   0.10282   0.00000  Uiso   1.00
N666   N     0.59090   0.84662   0.25249   0.00000  Uiso   1.00
N667   N     0.60506   0.83346   0.08277   0.00000  Uiso   1.00
N668   N     0.92990   0.62559   0.24233   0.00000  Uiso   1.00
N669   N     0.60936   0.67128   0.24946   0.00000  Uiso   1.00
N670   N     0.89662   0.84882   0.08088   0.00000  Uiso   1.00
N671   N     0.87988   0.81183   0.24057   0.00000  Uiso   1.00
N672   N     0.50000   0.75000   0.04931   0.00000  Uiso   1.00
N673   N     0.59219   0.65372   0.08102   0.00000  Uiso   1.00
N674   N     0.68679   0.87082   0.09742   0.00000  Uiso   1.00
N675   N     0.87682   0.55033   0.22869   0.00000  Uiso   1.00
N676   N     0.80122   0.64125   0.11433   0.00000  Uiso   1.00
N677   N     0.63914   0.92654   0.24717   0.00000  Uiso   1.00
N678   N     0.80442   0.86160   0.22281   0.00000  Uiso   1.00
N679   N     0.63065   0.56900   0.08948   0.00000  Uiso   1.00
N680   N     0.68983   0.63117   0.23330   0.00000  Uiso   1.00
N681   N     0.87699   0.94307   0.09711   0.00000  Uiso   1.00
N682   N     0.75000   0.50000   0.28402   0.00000  Uiso   1.00
N683   N     0.75000   0.50000   0.04931   0.00000  Uiso   1.00
N684   N     0.99855   0.63428   0.07009   0.00000  Uiso   1.00
N685   N     0.99739   0.86564   0.26305   0.00000  Uiso   1.00
N686   N     0.50361   0.86528   0.06766   0.00000  Uiso   1.00
N687   N     0.51441   0.63547   0.26681   0.00000  Uiso   1.00
N688   N     0.77579   0.88681   0.06543   0.00000  Uiso   1.00
O689   O     0.54508   0.70491   0.20625   0.00000  Uiso   1.00
O690   O     0.70491   0.54509   0.12709   0.00000  Uiso   1.00
O691   O     0.70491   0.54509   0.20625   0.00000  Uiso   1.00
O692   O     0.79508   0.95491   0.12709   0.00000  Uiso   1.00
O693   O     0.70491   0.95491   0.12709   0.00000  Uiso   1.00
O694   O     0.79508   0.54509   0.20625   0.00000  Uiso   1.00
O695   O     0.79508   0.54509   0.12709   0.00000  Uiso   1.00
O696   O     0.70491   0.95491   0.20625   0.00000  Uiso   1.00
O697   O     0.95491   0.79509   0.12709   0.00000  Uiso   1.00
O698   O     0.95491   0.79509   0.20625   0.00000  Uiso   1.00
O699   O     0.54508   0.70491   0.12709   0.00000  Uiso   1.00
O700   O     0.95491   0.70491   0.12709   0.00000  Uiso   1.00
O701   O     0.54508   0.79509   0.20625   0.00000  Uiso   1.00
O702   O     0.54508   0.79509   0.12709   0.00000  Uiso   1.00
O703   O     0.95491   0.70491   0.20625   0.00000  Uiso   1.00
O704   O     0.79508   0.95491   0.20625   0.00000  Uiso   1.00
C705   C     0.06016   0.19136   0.50010   0.00000  Uiso   1.00
C706   C     0.49936   0.28946   0.64139   0.00000  Uiso   1.00
C707   C     0.00021   0.28944   0.35762   0.00000  Uiso   1.00
C708   C     0.00205   0.21068   0.64246   0.00000  Uiso   1.00
C709   C     0.25245   0.46087   0.35838   0.00000  Uiso   1.00
C710   C     0.25326   0.03910   0.64167   0.00000  Uiso   1.00
C711   C     0.24855   0.03920   0.35731   0.00000  Uiso   1.00
C712   C     0.24778   0.46084   0.64270   0.00000  Uiso   1.00
C713   C     0.37342   0.16102   0.46792   0.00000  Uiso   1.00
C714   C     0.10605   0.36270   0.54238   0.00000  Uiso   1.00
C715   C     0.11716   0.35140   0.45966   0.00000  Uiso   1.00
C716   C     0.43971   0.30859   0.49968   0.00000  Uiso   1.00
C717   C     0.40408   0.12367   0.53575   0.00000  Uiso   1.00
C718   C     0.11938   0.15094   0.53981   0.00000  Uiso   1.00
C719   C     0.39675   0.36794   0.45913   0.00000  Uiso   1.00
C720   C     0.37687   0.34331   0.53654   0.00000  Uiso   1.00
C721   C     0.10535   0.13679   0.45836   0.00000  Uiso   1.00
C722   C     0.15365   0.37704   0.46297   0.00000  Uiso   1.00
C723   C     0.37484   0.08883   0.53207   0.00000  Uiso   1.00
C724   C     0.33967   0.13084   0.47031   0.00000  Uiso   1.00
C725   C     0.13423   0.39859   0.54111   0.00000  Uiso   1.00
C726   C     0.34248   0.37253   0.53309   0.00000  Uiso   1.00
C727   C     0.44033   0.19066   0.50030   0.00000  Uiso   1.00
C728   C     0.13166   0.09958   0.46035   0.00000  Uiso   1.00
C729   C     0.15548   0.12454   0.53594   0.00000  Uiso   1.00
C730   C     0.37354   0.40730   0.46418   0.00000  Uiso   1.00
C731   C     0.09444   0.34167   0.50044   0.00000  Uiso   1.00
C732   C     0.40586   0.15768   0.50104   0.00000  Uiso   1.00
C733   C     0.40486   0.34106   0.49897   0.00000  Uiso   1.00
C734   C     0.09517   0.15926   0.49973   0.00000  Uiso   1.00
C735   C     0.34223   0.09302   0.49981   0.00000  Uiso   1.00
C736   C     0.15902   0.40518   0.50121   0.00000  Uiso   1.00
C737   C     0.15879   0.09454   0.49880   0.00000  Uiso   1.00
C738   C     0.05978   0.30913   0.49996   0.00000  Uiso   1.00
C739   C     0.34335   0.40778   0.50002   0.00000  Uiso   1.00
C740   C     0.49965   0.16835   0.38368   0.00000  Uiso   1.00
C741   C     0.49834   0.33163   0.61625   0.00000  Uiso   1.00
C742   C     0.00205   0.33142   0.38183   0.00000  Uiso   1.00
C743   C     0.00843   0.16907   0.61867   0.00000  Uiso   1.00
C744   C     0.26465   0.41983   0.38131   0.00000  Uiso   1.00
C745   C     0.26643   0.07999   0.61902   0.00000  Uiso   1.00
C746   C     0.23932   0.08104   0.37923   0.00000  Uiso   1.00
C747   C     0.23811   0.41915   0.62070   0.00000  Uiso   1.00
C748   C     0.38580   0.18751   0.38966   0.00000  Uiso   1.00
C749   C     0.30982   0.44121   0.50009   0.00000  Uiso   1.00
C750   C     0.11610   0.31091   0.60594   0.00000  Uiso   1.00
C751   C     0.10323   0.36443   0.37702   0.00000  Uiso   1.00
C752   C     0.40956   0.14657   0.61471   0.00000  Uiso   1.00
C753   C     0.11037   0.14298   0.62401   0.00000  Uiso   1.00
C754   C     0.36614   0.31341   0.40884   0.00000  Uiso   1.00
C755   C     0.39235   0.33081   0.61767   0.00000  Uiso   1.00
C756   C     0.11724   0.19114   0.39768   0.00000  Uiso   1.00
C757   C     0.20028   0.32481   0.42326   0.00000  Uiso   1.00
C758   C     0.40059   0.01332   0.54371   0.00000  Uiso   1.00
C759   C     0.27147   0.16342   0.47750   0.00000  Uiso   1.00
C760   C     0.19121   0.05997   0.49967   0.00000  Uiso   1.00
C761   C     0.11213   0.46547   0.58060   0.00000  Uiso   1.00
C762   C     0.27681   0.33467   0.52789   0.00000  Uiso   1.00
C763   C     0.11024   0.02660   0.43238   0.00000  Uiso   1.00
C764   C     0.20385   0.17726   0.57224   0.00000  Uiso   1.00
C765   C     0.41799   0.45113   0.41052   0.00000  Uiso   1.00
C766   C     0.19149   0.43973   0.50029   0.00000  Uiso   1.00
C767   C     0.30901   0.05955   0.49984   0.00000  Uiso   1.00
C768   C     0.00064   0.21058   0.35862   0.00000  Uiso   1.00
Cu769  Cu    0.00000   0.25000   0.54689   0.00000  Uiso   1.00
Cu770  Cu    0.00000   0.25000   0.45311   0.00000  Uiso   1.00
Cu771  Cu    0.25000   0.00000   0.54689   0.00000  Uiso   1.00
Cu772  Cu    0.25000   0.00000   0.45311   0.00000  Uiso   1.00
H773   H     0.34471   0.21576   0.43660   0.00000  Uiso   1.00
H774   H     0.13279   0.36343   0.35708   0.00000  Uiso   1.00
H775   H     0.09691   0.39930   0.38837   0.00000  Uiso   1.00
H776   H     0.07767   0.35435   0.35367   0.00000  Uiso   1.00
H777   H     0.44359   0.09534   0.58453   0.00000  Uiso   1.00
H778   H     0.43017   0.14445   0.64556   0.00000  Uiso   1.00
H779   H     0.37968   0.12944   0.62345   0.00000  Uiso   1.00
H780   H     0.40299   0.18247   0.60679   0.00000  Uiso   1.00
H781   H     0.11879   0.20403   0.58673   0.00000  Uiso   1.00
H782   H     0.14022   0.14730   0.64295   0.00000  Uiso   1.00
H783   H     0.10591   0.10702   0.61550   0.00000  Uiso   1.00
H784   H     0.36139   0.16831   0.37113   0.00000  Uiso   1.00
H785   H     0.08479   0.15297   0.64723   0.00000  Uiso   1.00
H786   H     0.42527   0.34124   0.40075   0.00000  Uiso   1.00
H787   H     0.37395   0.28501   0.43231   0.00000  Uiso   1.00
H788   H     0.36609   0.30122   0.37284   0.00000  Uiso   1.00
H789   H     0.33432   0.32575   0.41726   0.00000  Uiso   1.00
H790   H     0.35520   0.28970   0.57658   0.00000  Uiso   1.00
H791   H     0.36479   0.34421   0.63626   0.00000  Uiso   1.00
H792   H     0.41500   0.35860   0.61244   0.00000  Uiso   1.00
H793   H     0.40744   0.30432   0.63928   0.00000  Uiso   1.00
H794   H     0.08722   0.12980   0.38954   0.00000  Uiso   1.00
H795   H     0.41488   0.16732   0.39063   0.00000  Uiso   1.00
H796   H     0.14873   0.17919   0.38716   0.00000  Uiso   1.00
H797   H     0.12101   0.21684   0.42492   0.00000  Uiso   1.00
H798   H     0.10155   0.20760   0.36763   0.00000  Uiso   1.00
H799   H     0.18549   0.39108   0.40159   0.00000  Uiso   1.00
H800   H     0.19200   0.31434   0.38761   0.00000  Uiso   1.00
H801   H     0.18615   0.30091   0.44869   0.00000  Uiso   1.00
H802   H     0.23455   0.32200   0.42766   0.00000  Uiso   1.00
H803   H     0.38331   0.05640   0.59634   0.00000  Uiso   1.00
H804   H     0.43421   0.02240   0.54107   0.00000  Uiso   1.00
H805   H     0.38869   0.00427   0.50896   0.00000  Uiso   1.00
H806   H     0.39204   0.21909   0.37006   0.00000  Uiso   1.00
H807   H     0.39734   0.48359   0.56705   0.00000  Uiso   1.00
H808   H     0.30384   0.15664   0.41566   0.00000  Uiso   1.00
H809   H     0.24346   0.17412   0.45746   0.00000  Uiso   1.00
H810   H     0.28561   0.19380   0.49305   0.00000  Uiso   1.00
H811   H     0.26124   0.13991   0.50533   0.00000  Uiso   1.00
H812   H     0.14098   0.41022   0.61216   0.00000  Uiso   1.00
H813   H     0.12006   0.48679   0.61063   0.00000  Uiso   1.00
H814   H     0.07887   0.45498   0.58343   0.00000  Uiso   1.00
H815   H     0.11658   0.48573   0.54835   0.00000  Uiso   1.00
H816   H     0.30778   0.34866   0.58918   0.00000  Uiso   1.00
H817   H     0.08248   0.37096   0.60898   0.00000  Uiso   1.00
H818   H     0.29307   0.30381   0.51624   0.00000  Uiso   1.00
H819   H     0.26613   0.35445   0.49720   0.00000  Uiso   1.00
H820   H     0.24888   0.32414   0.54801   0.00000  Uiso   1.00
H821   H     0.15685   0.06749   0.40229   0.00000  Uiso   1.00
H822   H     0.07798   0.03243   0.44530   0.00000  Uiso   1.00
H823   H     0.12807   0.00678   0.45858   0.00000  Uiso   1.00
H824   H     0.10826   0.00697   0.40001   0.00000  Uiso   1.00
H825   H     0.18898   0.11205   0.59661   0.00000  Uiso   1.00
H826   H     0.19258   0.19950   0.54356   0.00000  Uiso   1.00
H827   H     0.23838   0.17885   0.57197   0.00000  Uiso   1.00
H828   H     0.14673   0.32424   0.61767   0.00000  Uiso   1.00
H829   H     0.19298   0.19060   0.60587   0.00000  Uiso   1.00
H830   H     0.36336   0.47292   0.43965   0.00000  Uiso   1.00
H831   H     0.44157   0.45583   0.43842   0.00000  Uiso   1.00
H832   H     0.41707   0.48204   0.38854   0.00000  Uiso   1.00
H833   H     0.42751   0.42320   0.38786   0.00000  Uiso   1.00
H834   H     0.12173   0.28422   0.58019   0.00000  Uiso   1.00
H835   H     0.09945   0.29555   0.63591   0.00000  Uiso   1.00
H836   H     0.11579   0.30166   0.40905   0.00000  Uiso   1.00
N837   N     0.00000   0.25000   0.61736   0.00000  Uiso   1.00
N838   N     0.27836   0.11290   0.60201   0.00000  Uiso   1.00
N839   N     0.23045   0.11504   0.39527   0.00000  Uiso   1.00
N840   N     0.22905   0.38529   0.60449   0.00000  Uiso   1.00
N841   N     0.37235   0.19795   0.43615   0.00000  Uiso   1.00
N842   N     0.09090   0.34662   0.58583   0.00000  Uiso   1.00
N843   N     0.10506   0.33346   0.41610   0.00000  Uiso   1.00
N844   N     0.42990   0.12559   0.57566   0.00000  Uiso   1.00
N845   N     0.10936   0.17128   0.58280   0.00000  Uiso   1.00
N846   N     0.39662   0.34882   0.41422   0.00000  Uiso   1.00
N847   N     0.37988   0.31183   0.57391   0.00000  Uiso   1.00
N848   N     0.00000   0.25000   0.38264   0.00000  Uiso   1.00
N849   N     0.09219   0.15372   0.41435   0.00000  Uiso   1.00
N850   N     0.18679   0.37082   0.43076   0.00000  Uiso   1.00
N851   N     0.37682   0.05033   0.56202   0.00000  Uiso   1.00
N852   N     0.30122   0.14125   0.44766   0.00000  Uiso   1.00
N853   N     0.13914   0.42654   0.58051   0.00000  Uiso   1.00
N854   N     0.30442   0.36160   0.55614   0.00000  Uiso   1.00
N855   N     0.13065   0.06900   0.42282   0.00000  Uiso   1.00
N856   N     0.18983   0.13117   0.56663   0.00000  Uiso   1.00
N857   N     0.37699   0.44307   0.43044   0.00000  Uiso   1.00
N858   N     0.25000   0.00000   0.61736   0.00000  Uiso   1.00
N859   N     0.25000   0.00000   0.38264   0.00000  Uiso   1.00
N860   N     0.49855   0.13428   0.40342   0.00000  Uiso   1.00
N861   N     0.49739   0.36564   0.59639   0.00000  Uiso   1.00
N862   N     0.00361   0.36528   0.40099   0.00000  Uiso   1.00
N863   N     0.01441   0.13547   0.60014   0.00000  Uiso   1.00
N864   N     0.27579   0.38681   0.39877   0.00000  Uiso   1.00
O865   O     0.04508   0.20491   0.53958   0.00000  Uiso   1.00
O866   O     0.20491   0.04509   0.46042   0.00000  Uiso   1.00
O867   O     0.20491   0.04509   0.53958   0.00000  Uiso   1.00
O868   O     0.29508   0.45491   0.46042   0.00000  Uiso   1.00
O869   O     0.20491   0.45491   0.46042   0.00000  Uiso   1.00
O870   O     0.29508   0.04509   0.53958   0.00000  Uiso   1.00
O871   O     0.29508   0.04509   0.46042   0.00000  Uiso   1.00
O872   O     0.20491   0.45491   0.53958   0.00000  Uiso   1.00
O873   O     0.45491   0.29509   0.46042   0.00000  Uiso   1.00
O874   O     0.45491   0.29509   0.53958   0.00000  Uiso   1.00
O875   O     0.04508   0.20491   0.46042   0.00000  Uiso   1.00
O876   O     0.45491   0.20491   0.46042   0.00000  Uiso   1.00
O877   O     0.04508   0.29509   0.53958   0.00000  Uiso   1.00
O878   O     0.04508   0.29509   0.46042   0.00000  Uiso   1.00
O879   O     0.45491   0.20491   0.53958   0.00000  Uiso   1.00
O880   O     0.29508   0.45491   0.53958   0.00000  Uiso   1.00
C881   C     0.56016   0.19136   0.50010   0.00000  Uiso   1.00
C882   C     0.99936   0.28946   0.64139   0.00000  Uiso   1.00
C883   C     0.50021   0.28944   0.35762   0.00000  Uiso   1.00
C884   C     0.50205   0.21068   0.64246   0.00000  Uiso   1.00
C885   C     0.75245   0.46087   0.35838   0.00000  Uiso   1.00
C886   C     0.75326   0.03910   0.64167   0.00000  Uiso   1.00
C887   C     0.74855   0.03920   0.35731   0.00000  Uiso   1.00
C888   C     0.74778   0.46084   0.64270   0.00000  Uiso   1.00
C889   C     0.87342   0.16102   0.46792   0.00000  Uiso   1.00
C890   C     0.60605   0.36270   0.54238   0.00000  Uiso   1.00
C891   C     0.61716   0.35140   0.45966   0.00000  Uiso   1.00
C892   C     0.93971   0.30859   0.49968   0.00000  Uiso   1.00
C893   C     0.90408   0.12367   0.53575   0.00000  Uiso   1.00
C894   C     0.61938   0.15094   0.53981   0.00000  Uiso   1.00
C895   C     0.89675   0.36794   0.45913   0.00000  Uiso   1.00
C896   C     0.87687   0.34331   0.53654   0.00000  Uiso   1.00
C897   C     0.60535   0.13679   0.45836   0.00000  Uiso   1.00
C898   C     0.65365   0.37704   0.46297   0.00000  Uiso   1.00
C899   C     0.87484   0.08883   0.53207   0.00000  Uiso   1.00
C900   C     0.83967   0.13084   0.47031   0.00000  Uiso   1.00
C901   C     0.63423   0.39859   0.54111   0.00000  Uiso   1.00
C902   C     0.84248   0.37253   0.53309   0.00000  Uiso   1.00
C903   C     0.94033   0.19066   0.50030   0.00000  Uiso   1.00
C904   C     0.63166   0.09958   0.46035   0.00000  Uiso   1.00
C905   C     0.65548   0.12454   0.53594   0.00000  Uiso   1.00
C906   C     0.87354   0.40730   0.46418   0.00000  Uiso   1.00
C907   C     0.59444   0.34167   0.50044   0.00000  Uiso   1.00
C908   C     0.90586   0.15768   0.50104   0.00000  Uiso   1.00
C909   C     0.90486   0.34106   0.49897   0.00000  Uiso   1.00
C910   C     0.59517   0.15926   0.49973   0.00000  Uiso   1.00
C911   C     0.84223   0.09302   0.49981   0.00000  Uiso   1.00
C912   C     0.65902   0.40518   0.50121   0.00000  Uiso   1.00
C913   C     0.65879   0.09454   0.49880   0.00000  Uiso   1.00
C914   C     0.55978   0.30913   0.49996   0.00000  Uiso   1.00
C915   C     0.84335   0.40778   0.50002   0.00000  Uiso   1.00
C916   C     0.99965   0.16835   0.38368   0.00000  Uiso   1.00
C917   C     0.99834   0.33163   0.61625   0.00000  Uiso   1.00
C918   C     0.50205   0.33142   0.38183   0.00000  Uiso   1.00
C919   C     0.50843   0.16907   0.61867   0.00000  Uiso   1.00
C920   C     0.76465   0.41983   0.38131   0.00000  Uiso   1.00
C921   C     0.76643   0.07999   0.61902   0.00000  Uiso   1.00
C922   C     0.73932   0.08104   0.37923   0.00000  Uiso   1.00
C923   C     0.73811   0.41915   0.62070   0.00000  Uiso   1.00
C924   C     0.88580   0.18751   0.38966   0.00000  Uiso   1.00
C925   C     0.80982   0.44121   0.50009   0.00000  Uiso   1.00
C926   C     0.61610   0.31091   0.60594   0.00000  Uiso   1.00
C927   C     0.60323   0.36443   0.37702   0.00000  Uiso   1.00
C928   C     0.90956   0.14657   0.61471   0.00000  Uiso   1.00
C929   C     0.61037   0.14298   0.62401   0.00000  Uiso   1.00
C930   C     0.86614   0.31341   0.40884   0.00000  Uiso   1.00
C931   C     0.89235   0.33081   0.61767   0.00000  Uiso   1.00
C932   C     0.61724   0.19114   0.39768   0.00000  Uiso   1.00
C933   C     0.70028   0.32481   0.42326   0.00000  Uiso   1.00
C934   C     0.90059   0.01332   0.54371   0.00000  Uiso   1.00
C935   C     0.77147   0.16342   0.47750   0.00000  Uiso   1.00
C936   C     0.69121   0.05997   0.49967   0.00000  Uiso   1.00
C937   C     0.61213   0.46547   0.58060   0.00000  Uiso   1.00
C938   C     0.77681   0.33467   0.52789   0.00000  Uiso   1.00
C939   C     0.61024   0.02660   0.43238   0.00000  Uiso   1.00
C940   C     0.70385   0.17726   0.57224   0.00000  Uiso   1.00
C941   C     0.91799   0.45113   0.41052   0.00000  Uiso   1.00
C942   C     0.69149   0.43973   0.50029   0.00000  Uiso   1.00
C943   C     0.80901   0.05955   0.49984   0.00000  Uiso   1.00
C944   C     0.50064   0.21058   0.35862   0.00000  Uiso   1.00
Cu945  Cu    0.50000   0.25000   0.54689   0.00000  Uiso   1.00
Cu946  Cu    0.50000   0.25000   0.45311   0.00000  Uiso   1.00
Cu947  Cu    0.75000   0.00000   0.54689   0.00000  Uiso   1.00
Cu948  Cu    0.75000   0.00000   0.45311   0.00000  Uiso   1.00
H949   H     0.84471   0.21576   0.43660   0.00000  Uiso   1.00
H950   H     0.63279   0.36343   0.35708   0.00000  Uiso   1.00
H951   H     0.59691   0.39930   0.38837   0.00000  Uiso   1.00
H952   H     0.57767   0.35435   0.35367   0.00000  Uiso   1.00
H953   H     0.94359   0.09534   0.58453   0.00000  Uiso   1.00
H954   H     0.93017   0.14445   0.64556   0.00000  Uiso   1.00
H955   H     0.87968   0.12944   0.62345   0.00000  Uiso   1.00
H956   H     0.90299   0.18247   0.60679   0.00000  Uiso   1.00
H957   H     0.61879   0.20403   0.58673   0.00000  Uiso   1.00
H958   H     0.64022   0.14730   0.64295   0.00000  Uiso   1.00
H959   H     0.60591   0.10702   0.61550   0.00000  Uiso   1.00
H960   H     0.86139   0.16831   0.37113   0.00000  Uiso   1.00
H961   H     0.58479   0.15297   0.64723   0.00000  Uiso   1.00
H962   H     0.92527   0.34124   0.40075   0.00000  Uiso   1.00
H963   H     0.87395   0.28501   0.43231   0.00000  Uiso   1.00
H964   H     0.86609   0.30122   0.37284   0.00000  Uiso   1.00
H965   H     0.83432   0.32575   0.41726   0.00000  Uiso   1.00
H966   H     0.85520   0.28970   0.57658   0.00000  Uiso   1.00
H967   H     0.86479   0.34421   0.63626   0.00000  Uiso   1.00
H968   H     0.91500   0.35860   0.61244   0.00000  Uiso   1.00
H969   H     0.90744   0.30432   0.63928   0.00000  Uiso   1.00
H970   H     0.58722   0.12980   0.38954   0.00000  Uiso   1.00
H971   H     0.91488   0.16732   0.39063   0.00000  Uiso   1.00
H972   H     0.64873   0.17919   0.38716   0.00000  Uiso   1.00
H973   H     0.62101   0.21684   0.42492   0.00000  Uiso   1.00
H974   H     0.60155   0.20760   0.36763   0.00000  Uiso   1.00
H975   H     0.68549   0.39108   0.40159   0.00000  Uiso   1.00
H976   H     0.69200   0.31434   0.38761   0.00000  Uiso   1.00
H977   H     0.68615   0.30091   0.44869   0.00000  Uiso   1.00
H978   H     0.73455   0.32200   0.42766   0.00000  Uiso   1.00
H979   H     0.88331   0.05640   0.59634   0.00000  Uiso   1.00
H980   H     0.93421   0.02240   0.54107   0.00000  Uiso   1.00
H981   H     0.88869   0.00427   0.50896   0.00000  Uiso   1.00
H982   H     0.89204   0.21909   0.37006   0.00000  Uiso   1.00
H983   H     0.89734   0.48359   0.56705   0.00000  Uiso   1.00
H984   H     0.80384   0.15664   0.41566   0.00000  Uiso   1.00
H985   H     0.74346   0.17412   0.45746   0.00000  Uiso   1.00
H986   H     0.78561   0.19380   0.49305   0.00000  Uiso   1.00
H987   H     0.76124   0.13991   0.50533   0.00000  Uiso   1.00
H988   H     0.64098   0.41022   0.61216   0.00000  Uiso   1.00
H989   H     0.62006   0.48679   0.61063   0.00000  Uiso   1.00
H990   H     0.57887   0.45498   0.58343   0.00000  Uiso   1.00
H991   H     0.61658   0.48573   0.54835   0.00000  Uiso   1.00
H992   H     0.80778   0.34866   0.58918   0.00000  Uiso   1.00
H993   H     0.58248   0.37096   0.60898   0.00000  Uiso   1.00
H994   H     0.79307   0.30381   0.51624   0.00000  Uiso   1.00
H995   H     0.76613   0.35445   0.49720   0.00000  Uiso   1.00
H996   H     0.74888   0.32414   0.54801   0.00000  Uiso   1.00
H997   H     0.65685   0.06749   0.40229   0.00000  Uiso   1.00
H998   H     0.57798   0.03243   0.44530   0.00000  Uiso   1.00
H999   H     0.62807   0.00678   0.45858   0.00000  Uiso   1.00
H1000  H     0.60826   0.00697   0.40001   0.00000  Uiso   1.00
H1001  H     0.68898   0.11205   0.59661   0.00000  Uiso   1.00
H1002  H     0.69258   0.19950   0.54356   0.00000  Uiso   1.00
H1003  H     0.73838   0.17885   0.57197   0.00000  Uiso   1.00
H1004  H     0.64673   0.32424   0.61767   0.00000  Uiso   1.00
H1005  H     0.69298   0.19060   0.60587   0.00000  Uiso   1.00
H1006  H     0.86336   0.47292   0.43965   0.00000  Uiso   1.00
H1007  H     0.94157   0.45583   0.43842   0.00000  Uiso   1.00
H1008  H     0.91707   0.48204   0.38854   0.00000  Uiso   1.00
H1009  H     0.92751   0.42320   0.38786   0.00000  Uiso   1.00
H1010  H     0.62173   0.28422   0.58019   0.00000  Uiso   1.00
H1011  H     0.59945   0.29555   0.63591   0.00000  Uiso   1.00
H1012  H     0.61579   0.30166   0.40905   0.00000  Uiso   1.00
N1013  N     0.50000   0.25000   0.61736   0.00000  Uiso   1.00
N1014  N     0.77836   0.11290   0.60201   0.00000  Uiso   1.00
N1015  N     0.73045   0.11504   0.39527   0.00000  Uiso   1.00
N1016  N     0.72905   0.38529   0.60449   0.00000  Uiso   1.00
N1017  N     0.87235   0.19795   0.43615   0.00000  Uiso   1.00
N1018  N     0.59090   0.34662   0.58583   0.00000  Uiso   1.00
N1019  N     0.60506   0.33346   0.41610   0.00000  Uiso   1.00
N1020  N     0.92990   0.12559   0.57566   0.00000  Uiso   1.00
N1021  N     0.60936   0.17128   0.58280   0.00000  Uiso   1.00
N1022  N     0.89662   0.34882   0.41422   0.00000  Uiso   1.00
N1023  N     0.87988   0.31183   0.57391   0.00000  Uiso   1.00
N1024  N     0.50000   0.25000   0.38264   0.00000  Uiso   1.00
N1025  N     0.59219   0.15372   0.41435   0.00000  Uiso   1.00
N1026  N     0.68679   0.37082   0.43076   0.00000  Uiso   1.00
N1027  N     0.87682   0.05033   0.56202   0.00000  Uiso   1.00
N1028  N     0.80122   0.14125   0.44766   0.00000  Uiso   1.00
N1029  N     0.63914   0.42654   0.58051   0.00000  Uiso   1.00
N1030  N     0.80442   0.36160   0.55614   0.00000  Uiso   1.00
N1031  N     0.63065   0.06900   0.42282   0.00000  Uiso   1.00
N1032  N     0.68983   0.13117   0.56663   0.00000  Uiso   1.00
N1033  N     0.87699   0.44307   0.43044   0.00000  Uiso   1.00
N1034  N     0.75000   0.00000   0.61736   0.00000  Uiso   1.00
N1035  N     0.75000   0.00000   0.38264   0.00000  Uiso   1.00
N1036  N     0.99855   0.13428   0.40342   0.00000  Uiso   1.00
N1037  N     0.99739   0.36564   0.59639   0.00000  Uiso   1.00
N1038  N     0.50361   0.36528   0.40099   0.00000  Uiso   1.00
N1039  N     0.51441   0.13547   0.60014   0.00000  Uiso   1.00
N1040  N     0.77579   0.38681   0.39877   0.00000  Uiso   1.00
O1041  O     0.54508   0.20491   0.53958   0.00000  Uiso   1.00
O1042  O     0.70491   0.04509   0.46042   0.00000  Uiso   1.00
O1043  O     0.70491   0.04509   0.53958   0.00000  Uiso   1.00
O1044  O     0.79508   0.45491   0.46042   0.00000  Uiso   1.00
O1045  O     0.70491   0.45491   0.46042   0.00000  Uiso   1.00
O1046  O     0.79508   0.04509   0.53958   0.00000  Uiso   1.00
O1047  O     0.79508   0.04509   0.46042   0.00000  Uiso   1.00
O1048  O     0.70491   0.45491   0.53958   0.00000  Uiso   1.00
O1049  O     0.95491   0.29509   0.46042   0.00000  Uiso   1.00
O1050  O     0.95491   0.29509   0.53958   0.00000  Uiso   1.00
O1051  O     0.54508   0.20491   0.46042   0.00000  Uiso   1.00
O1052  O     0.95491   0.20491   0.46042   0.00000  Uiso   1.00
O1053  O     0.54508   0.29509   0.53958   0.00000  Uiso   1.00
O1054  O     0.54508   0.29509   0.46042   0.00000  Uiso   1.00
O1055  O     0.95491   0.20491   0.53958   0.00000  Uiso   1.00
O1056  O     0.79508   0.45491   0.53958   0.00000  Uiso   1.00
C1057  C     0.06016   0.69136   0.50010   0.00000  Uiso   1.00
C1058  C     0.49936   0.78946   0.64139   0.00000  Uiso   1.00
C1059  C     0.00021   0.78944   0.35762   0.00000  Uiso   1.00
C1060  C     0.00205   0.71068   0.64246   0.00000  Uiso   1.00
C1061  C     0.25245   0.96087   0.35838   0.00000  Uiso   1.00
C1062  C     0.25326   0.53910   0.64167   0.00000  Uiso   1.00
C1063  C     0.24855   0.53920   0.35731   0.00000  Uiso   1.00
C1064  C     0.24778   0.96084   0.64270   0.00000  Uiso   1.00
C1065  C     0.37342   0.66102   0.46792   0.00000  Uiso   1.00
C1066  C     0.10605   0.86270   0.54238   0.00000  Uiso   1.00
C1067  C     0.11716   0.85140   0.45966   0.00000  Uiso   1.00
C1068  C     0.43971   0.80859   0.49968   0.00000  Uiso   1.00
C1069  C     0.40408   0.62367   0.53575   0.00000  Uiso   1.00
C1070  C     0.11938   0.65094   0.53981   0.00000  Uiso   1.00
C1071  C     0.39675   0.86794   0.45913   0.00000  Uiso   1.00
C1072  C     0.37687   0.84331   0.53654   0.00000  Uiso   1.00
C1073  C     0.10535   0.63679   0.45836   0.00000  Uiso   1.00
C1074  C     0.15365   0.87704   0.46297   0.00000  Uiso   1.00
C1075  C     0.37484   0.58883   0.53207   0.00000  Uiso   1.00
C1076  C     0.33967   0.63084   0.47031   0.00000  Uiso   1.00
C1077  C     0.13423   0.89859   0.54111   0.00000  Uiso   1.00
C1078  C     0.34248   0.87253   0.53309   0.00000  Uiso   1.00
C1079  C     0.44033   0.69066   0.50030   0.00000  Uiso   1.00
C1080  C     0.13166   0.59958   0.46035   0.00000  Uiso   1.00
C1081  C     0.15548   0.62454   0.53594   0.00000  Uiso   1.00
C1082  C     0.37354   0.90730   0.46418   0.00000  Uiso   1.00
C1083  C     0.09444   0.84167   0.50044   0.00000  Uiso   1.00
C1084  C     0.40586   0.65768   0.50104   0.00000  Uiso   1.00
C1085  C     0.40486   0.84106   0.49897   0.00000  Uiso   1.00
C1086  C     0.09517   0.65926   0.49973   0.00000  Uiso   1.00
C1087  C     0.34223   0.59302   0.49981   0.00000  Uiso   1.00
C1088  C     0.15902   0.90518   0.50121   0.00000  Uiso   1.00
C1089  C     0.15879   0.59454   0.49880   0.00000  Uiso   1.00
C1090  C     0.05978   0.80913   0.49996   0.00000  Uiso   1.00
C1091  C     0.34335   0.90778   0.50002   0.00000  Uiso   1.00
C1092  C     0.49965   0.66835   0.38368   0.00000  Uiso   1.00
C1093  C     0.49834   0.83163   0.61625   0.00000  Uiso   1.00
C1094  C     0.00205   0.83142   0.38183   0.00000  Uiso   1.00
C1095  C     0.00843   0.66907   0.61867   0.00000  Uiso   1.00
C1096  C     0.26465   0.91983   0.38131   0.00000  Uiso   1.00
C1097  C     0.26643   0.57999   0.61902   0.00000  Uiso   1.00
C1098  C     0.23932   0.58104   0.37923   0.00000  Uiso   1.00
C1099  C     0.23811   0.91915   0.62070   0.00000  Uiso   1.00
C1100  C     0.38580   0.68751   0.38966   0.00000  Uiso   1.00
C1101  C     0.30982   0.94121   0.50009   0.00000  Uiso   1.00
C1102  C     0.11610   0.81091   0.60594   0.00000  Uiso   1.00
C1103  C     0.10323   0.86443   0.37702   0.00000  Uiso   1.00
C1104  C     0.40956   0.64657   0.61471   0.00000  Uiso   1.00
C1105  C     0.11037   0.64298   0.62401   0.00000  Uiso   1.00
C1106  C     0.36614   0.81341   0.40884   0.00000  Uiso   1.00
C1107  C     0.39235   0.83081   0.61767   0.00000  Uiso   1.00
C1108  C     0.11724   0.69114   0.39768   0.00000  Uiso   1.00
C1109  C     0.20028   0.82481   0.42326   0.00000  Uiso   1.00
C1110  C     0.40059   0.51332   0.54371   0.00000  Uiso   1.00
C1111  C     0.27147   0.66342   0.47750   0.00000  Uiso   1.00
C1112  C     0.19121   0.55997   0.49967   0.00000  Uiso   1.00
C1113  C     0.11213   0.96547   0.58060   0.00000  Uiso   1.00
C1114  C     0.27681   0.83467   0.52789   0.00000  Uiso   1.00
C1115  C     0.11024   0.52660   0.43238   0.00000  Uiso   1.00
C1116  C     0.20385   0.67726   0.57224   0.00000  Uiso   1.00
C1117  C     0.41799   0.95113   0.41052   0.00000  Uiso   1.00
C1118  C     0.19149   0.93973   0.50029   0.00000  Uiso   1.00
C1119  C     0.30901   0.55955   0.49984   0.00000  Uiso   1.00
C1120  C     0.00064   0.71058   0.35862   0.00000  Uiso   1.00
Cu1121 Cu    0.00000   0.75000   0.54689   0.00000  Uiso   1.00
Cu1122 Cu    0.00000   0.75000   0.45311   0.00000  Uiso   1.00
Cu1123 Cu    0.25000   0.50000   0.54689   0.00000  Uiso   1.00
Cu1124 Cu    0.25000   0.50000   0.45311   0.00000  Uiso   1.00
H1125  H     0.34471   0.71576   0.43660   0.00000  Uiso   1.00
H1126  H     0.13279   0.86343   0.35708   0.00000  Uiso   1.00
H1127  H     0.09691   0.89930   0.38837   0.00000  Uiso   1.00
H1128  H     0.07767   0.85435   0.35367   0.00000  Uiso   1.00
H1129  H     0.44359   0.59534   0.58453   0.00000  Uiso   1.00
H1130  H     0.43017   0.64445   0.64556   0.00000  Uiso   1.00
H1131  H     0.37968   0.62944   0.62345   0.00000  Uiso   1.00
H1132  H     0.40299   0.68247   0.60679   0.00000  Uiso   1.00
H1133  H     0.11879   0.70403   0.58673   0.00000  Uiso   1.00
H1134  H     0.14022   0.64730   0.64295   0.00000  Uiso   1.00
H1135  H     0.10591   0.60702   0.61550   0.00000  Uiso   1.00
H1136  H     0.36139   0.66831   0.37113   0.00000  Uiso   1.00
H1137  H     0.08479   0.65297   0.64723   0.00000  Uiso   1.00
H1138  H     0.42527   0.84124   0.40075   0.00000  Uiso   1.00
H1139  H     0.37395   0.78501   0.43231   0.00000  Uiso   1.00
H1140  H     0.36609   0.80122   0.37284   0.00000  Uiso   1.00
H1141  H     0.33432   0.82575   0.41726   0.00000  Uiso   1.00
H1142  H     0.35520   0.78970   0.57658   0.00000  Uiso   1.00
H1143  H     0.36479   0.84421   0.63626   0.00000  Uiso   1.00
H1144  H     0.41500   0.85860   0.61244   0.00000  Uiso   1.00
H1145  H     0.40744   0.80432   0.63928   0.00000  Uiso   1.00
H1146  H     0.08722   0.62980   0.38954   0.00000  Uiso   1.00
H1147  H     0.41488   0.66732   0.39063   0.00000  Uiso   1.00
H1148  H     0.14873   0.67919   0.38716   0.00000  Uiso   1.00
H1149  H     0.12101   0.71684   0.42492   0.00000  Uiso   1.00
H1150  H     0.10155   0.70760   0.36763   0.00000  Uiso   1.00
H1151  H     0.18549   0.89108   0.40159   0.00000  Uiso   1.00
H1152  H     0.19200   0.81434   0.38761   0.00000  Uiso   1.00
H1153  H     0.18615   0.80091   0.44869   0.00000  Uiso   1.00
H1154  H     0.23455   0.82200   0.42766   0.00000  Uiso   1.00
H1155  H     0.38331   0.55640   0.59634   0.00000  Uiso   1.00
H1156  H     0.43421   0.52240   0.54107   0.00000  Uiso   1.00
H1157  H     0.38869   0.50427   0.50896   0.00000  Uiso   1.00
H1158  H     0.39204   0.71909   0.37006   0.00000  Uiso   1.00
H1159  H     0.39734   0.98359   0.56705   0.00000  Uiso   1.00
H1160  H     0.30384   0.65664   0.41566   0.00000  Uiso   1.00
H1161  H     0.24346   0.67412   0.45746   0.00000  Uiso   1.00
H1162  H     0.28561   0.69380   0.49305   0.00000  Uiso   1.00
H1163  H     0.26124   0.63991   0.50533   0.00000  Uiso   1.00
H1164  H     0.14098   0.91022   0.61216   0.00000  Uiso   1.00
H1165  H     0.12006   0.98679   0.61063   0.00000  Uiso   1.00
H1166  H     0.07887   0.95498   0.58343   0.00000  Uiso   1.00
H1167  H     0.11658   0.98573   0.54835   0.00000  Uiso   1.00
H1168  H     0.30778   0.84866   0.58918   0.00000  Uiso   1.00
H1169  H     0.08248   0.87096   0.60898   0.00000  Uiso   1.00
H1170  H     0.29307   0.80381   0.51624   0.00000  Uiso   1.00
H1171  H     0.26613   0.85445   0.49720   0.00000  Uiso   1.00
H1172  H     0.24888   0.82414   0.54801   0.00000  Uiso   1.00
H1173  H     0.15685   0.56749   0.40229   0.00000  Uiso   1.00
H1174  H     0.07798   0.53243   0.44530   0.00000  Uiso   1.00
H1175  H     0.12807   0.50678   0.45858   0.00000  Uiso   1.00
H1176  H     0.10826   0.50697   0.40001   0.00000  Uiso   1.00
H1177  H     0.18898   0.61205   0.59661   0.00000  Uiso   1.00
H1178  H     0.19258   0.69950   0.54356   0.00000  Uiso   1.00
H1179  H     0.23838   0.67885   0.57197   0.00000  Uiso   1.00
H1180  H     0.14673   0.82424   0.61767   0.00000  Uiso   1.00
H1181  H     0.19298   0.69060   0.60587   0.00000  Uiso   1.00
H1182  H     0.36336   0.97292   0.43965   0.00000  Uiso   1.00
H1183  H     0.44157   0.95583   0.43842   0.00000  Uiso   1.00
H1184  H     0.41707   0.98204   0.38854   0.00000  Uiso   1.00
H1185  H     0.42751   0.92320   0.38786   0.00000  Uiso   1.00
H1186  H     0.12173   0.78422   0.58019   0.00000  Uiso   1.00
H1187  H     0.09945   0.79555   0.63591   0.00000  Uiso   1.00
H1188  H     0.11579   0.80166   0.40905   0.00000  Uiso   1.00
N1189  N     0.00000   0.75000   0.61736   0.00000  Uiso   1.00
N1190  N     0.27836   0.61290   0.60201   0.00000  Uiso   1.00
N1191  N     0.23045   0.61504   0.39527   0.00000  Uiso   1.00
N1192  N     0.22905   0.88529   0.60449   0.00000  Uiso   1.00
N1193  N     0.37235   0.69795   0.43615   0.00000  Uiso   1.00
N1194  N     0.09090   0.84662   0.58583   0.00000  Uiso   1.00
N1195  N     0.10506   0.83346   0.41610   0.00000  Uiso   1.00
N1196  N     0.42990   0.62559   0.57566   0.00000  Uiso   1.00
N1197  N     0.10936   0.67128   0.58280   0.00000  Uiso   1.00
N1198  N     0.39662   0.84882   0.41422   0.00000  Uiso   1.00
N1199  N     0.37988   0.81183   0.57391   0.00000  Uiso   1.00
N1200  N     0.00000   0.75000   0.38264   0.00000  Uiso   1.00
N1201  N     0.09219   0.65372   0.41435   0.00000  Uiso   1.00
N1202  N     0.18679   0.87082   0.43076   0.00000  Uiso   1.00
N1203  N     0.37682   0.55033   0.56202   0.00000  Uiso   1.00
N1204  N     0.30122   0.64125   0.44766   0.00000  Uiso   1.00
N1205  N     0.13914   0.92654   0.58051   0.00000  Uiso   1.00
N1206  N     0.30442   0.86160   0.55614   0.00000  Uiso   1.00
N1207  N     0.13065   0.56900   0.42282   0.00000  Uiso   1.00
N1208  N     0.18983   0.63117   0.56663   0.00000  Uiso   1.00
N1209  N     0.37699   0.94307   0.43044   0.00000  Uiso   1.00
N1210  N     0.25000   0.50000   0.61736   0.00000  Uiso   1.00
N1211  N     0.25000   0.50000   0.38264   0.00000  Uiso   1.00
N1212  N     0.49855   0.63428   0.40342   0.00000  Uiso   1.00
N1213  N     0.49739   0.86564   0.59639   0.00000  Uiso   1.00
N1214  N     0.00361   0.86528   0.40099   0.00000  Uiso   1.00
N1215  N     0.01441   0.63547   0.60014   0.00000  Uiso   1.00
N1216  N     0.27579   0.88681   0.39877   0.00000  Uiso   1.00
O1217  O     0.04508   0.70491   0.53958   0.00000  Uiso   1.00
O1218  O     0.20491   0.54509   0.46042   0.00000  Uiso   1.00
O1219  O     0.20491   0.54509   0.53958   0.00000  Uiso   1.00
O1220  O     0.29508   0.95491   0.46042   0.00000  Uiso   1.00
O1221  O     0.20491   0.95491   0.46042   0.00000  Uiso   1.00
O1222  O     0.29508   0.54509   0.53958   0.00000  Uiso   1.00
O1223  O     0.29508   0.54509   0.46042   0.00000  Uiso   1.00
O1224  O     0.20491   0.95491   0.53958   0.00000  Uiso   1.00
O1225  O     0.45491   0.79509   0.46042   0.00000  Uiso   1.00
O1226  O     0.45491   0.79509   0.53958   0.00000  Uiso   1.00
O1227  O     0.04508   0.70491   0.46042   0.00000  Uiso   1.00
O1228  O     0.45491   0.70491   0.46042   0.00000  Uiso   1.00
O1229  O     0.04508   0.79509   0.53958   0.00000  Uiso   1.00
O1230  O     0.04508   0.79509   0.46042   0.00000  Uiso   1.00
O1231  O     0.45491   0.70491   0.53958   0.00000  Uiso   1.00
O1232  O     0.29508   0.95491   0.53958   0.00000  Uiso   1.00
C1233  C     0.56016   0.69136   0.50010   0.00000  Uiso   1.00
C1234  C     0.99936   0.78946   0.64139   0.00000  Uiso   1.00
C1235  C     0.50021   0.78944   0.35762   0.00000  Uiso   1.00
C1236  C     0.50205   0.71068   0.64246   0.00000  Uiso   1.00
C1237  C     0.75245   0.96087   0.35838   0.00000  Uiso   1.00
C1238  C     0.75326   0.53910   0.64167   0.00000  Uiso   1.00
C1239  C     0.74855   0.53920   0.35731   0.00000  Uiso   1.00
C1240  C     0.74778   0.96084   0.64270   0.00000  Uiso   1.00
C1241  C     0.87342   0.66102   0.46792   0.00000  Uiso   1.00
C1242  C     0.60605   0.86270   0.54238   0.00000  Uiso   1.00
C1243  C     0.61716   0.85140   0.45966   0.00000  Uiso   1.00
C1244  C     0.93971   0.80859   0.49968   0.00000  Uiso   1.00
C1245  C     0.90408   0.62367   0.53575   0.00000  Uiso   1.00
C1246  C     0.61938   0.65094   0.53981   0.00000  Uiso   1.00
C1247  C     0.89675   0.86794   0.45913   0.00000  Uiso   1.00
C1248  C     0.87687   0.84331   0.53654   0.00000  Uiso   1.00
C1249  C     0.60535   0.63679   0.45836   0.00000  Uiso   1.00
C1250  C     0.65365   0.87704   0.46297   0.00000  Uiso   1.00
C1251  C     0.87484   0.58883   0.53207   0.00000  Uiso   1.00
C1252  C     0.83967   0.63084   0.47031   0.00000  Uiso   1.00
C1253  C     0.63423   0.89859   0.54111   0.00000  Uiso   1.00
C1254  C     0.84248   0.87253   0.53309   0.00000  Uiso   1.00
C1255  C     0.94033   0.69066   0.50030   0.00000  Uiso   1.00
C1256  C     0.63166   0.59958   0.46035   0.00000  Uiso   1.00
C1257  C     0.65548   0.62454   0.53594   0.00000  Uiso   1.00
C1258  C     0.87354   0.90730   0.46418   0.00000  Uiso   1.00
C1259  C     0.59444   0.84167   0.50044   0.00000  Uiso   1.00
C1260  C     0.90586   0.65768   0.50104   0.00000  Uiso   1.00
C1261  C     0.90486   0.84106   0.49897   0.00000  Uiso   1.00
C1262  C     0.59517   0.65926   0.49973   0.00000  Uiso   1.00
C1263  C     0.84223   0.59302   0.49981   0.00000  Uiso   1.00
C1264  C     0.65902   0.90518   0.50121   0.00000  Uiso   1.00
C1265  C     0.65879   0.59454   0.49880   0.00000  Uiso   1.00
C1266  C     0.55978   0.80913   0.49996   0.00000  Uiso   1.00
C1267  C     0.84335   0.90778   0.50002   0.00000  Uiso   1.00
C1268  C     0.99965   0.66835   0.38368   0.00000  Uiso   1.00
C1269  C     0.99834   0.83163   0.61625   0.00000  Uiso   1.00
C1270  C     0.50205   0.83142   0.38183   0.00000  Uiso   1.00
C1271  C     0.50843   0.66907   0.61867   0.00000  Uiso   1.00
C1272  C     0.76465   0.91983   0.38131   0.00000  Uiso   1.00
C1273  C     0.76643   0.57999   0.61902   0.00000  Uiso   1.00
C1274  C     0.73932   0.58104   0.37923   0.00000  Uiso   1.00
C1275  C     0.73811   0.91915   0.62070   0.00000  Uiso   1.00
C1276  C     0.88580   0.68751   0.38966   0.00000  Uiso   1.00
C1277  C     0.80982   0.94121   0.50009   0.00000  Uiso   1.00
C1278  C     0.61610   0.81091   0.60594   0.00000  Uiso   1.00
C1279  C     0.60323   0.86443   0.37702   0.00000  Uiso   1.00
C1280  C     0.90956   0.64657   0.61471   0.00000  Uiso   1.00
C1281  C     0.61037   0.64298   0.62401   0.00000  Uiso   1.00
C1282  C     0.86614   0.81341   0.40884   0.00000  Uiso   1.00
C1283  C     0.89235   0.83081   0.61767   0.00000  Uiso   1.00
C1284  C     0.61724   0.69114   0.39768   0.00000  Uiso   1.00
C1285  C     0.70028   0.82481   0.42326   0.00000  Uiso   1.00
C1286  C     0.90059   0.51332   0.54371   0.00000  Uiso   1.00
C1287  C     0.77147   0.66342   0.47750   0.00000  Uiso   1.00
C1288  C     0.69121   0.55997   0.49967   0.00000  Uiso   1.00
C1289  C     0.61213   0.96547   0.58060   0.00000  Uiso   1.00
C1290  C     0.77681   0.83467   0.52789   0.00000  Uiso   1.00
C1291  C     0.61024   0.52660   0.43238   0.00000  Uiso   1.00
C1292  C     0.70385   0.67726   0.57224   0.00000  Uiso   1.00
C1293  C     0.91799   0.95113   0.41052   0.00000  Uiso   1.00
C1294  C     0.69149   0.93973   0.50029   0.00000  Uiso   1.00
C1295  C     0.80901   0.55955   0.49984   0.00000  Uiso   1.00
C1296  C     0.50064   0.71058   0.35862   0.00000  Uiso   1.00
Cu1297 Cu    0.50000   0.75000   0.54689   0.00000  Uiso   1.00
Cu1298 Cu    0.50000   0.75000   0.45311   0.00000  Uiso   1.00
Cu1299 Cu    0.75000   0.50000   0.54689   0.00000  Uiso   1.00
Cu1300 Cu    0.75000   0.50000   0.45311   0.00000  Uiso   1.00
H1301  H     0.84471   0.71576   0.43660   0.00000  Uiso   1.00
H1302  H     0.63279   0.86343   0.35708   0.00000  Uiso   1.00
H1303  H     0.59691   0.89930   0.38837   0.00000  Uiso   1.00
H1304  H     0.57767   0.85435   0.35367   0.00000  Uiso   1.00
H1305  H     0.94359   0.59534   0.58453   0.00000  Uiso   1.00
H1306  H     0.93017   0.64445   0.64556   0.00000  Uiso   1.00
H1307  H     0.87968   0.62944   0.62345   0.00000  Uiso   1.00
H1308  H     0.90299   0.68247   0.60679   0.00000  Uiso   1.00
H1309  H     0.61879   0.70403   0.58673   0.00000  Uiso   1.00
H1310  H     0.64022   0.64730   0.64295   0.00000  Uiso   1.00
H1311  H     0.60591   0.60702   0.61550   0.00000  Uiso   1.00
H1312  H     0.86139   0.66831   0.37113   0.00000  Uiso   1.00
H1313  H     0.58479   0.65297   0.64723   0.00000  Uiso   1.00
H1314  H     0.92527   0.84124   0.40075   0.00000  Uiso   1.00
H1315  H     0.87395   0.78501   0.43231   0.00000  Uiso   1.00
H1316  H     0.86609   0.80122   0.37284   0.00000  Uiso   1.00
H1317  H     0.83432   0.82575   0.41726   0.00000  Uiso   1.00
H1318  H     0.85520   0.78970   0.57658   0.00000  Uiso   1.00
H1319  H     0.86479   0.84421   0.63626   0.00000  Uiso   1.00
H1320  H     0.91500   0.85860   0.61244   0.00000  Uiso   1.00
H1321  H     0.90744   0.80432   0.63928   0.00000  Uiso   1.00
H1322  H     0.58722   0.62980   0.38954   0.00000  Uiso   1.00
H1323  H     0.91488   0.66732   0.39063   0.00000  Uiso   1.00
H1324  H     0.64873   0.67919   0.38716   0.00000  Uiso   1.00
H1325  H     0.62101   0.71684   0.42492   0.00000  Uiso   1.00
H1326  H     0.60155   0.70760   0.36763   0.00000  Uiso   1.00
H1327  H     0.68549   0.89108   0.40159   0.00000  Uiso   1.00
H1328  H     0.69200   0.81434   0.38761   0.00000  Uiso   1.00
H1329  H     0.68615   0.80091   0.44869   0.00000  Uiso   1.00
H1330  H     0.73455   0.82200   0.42766   0.00000  Uiso   1.00
H1331  H     0.88331   0.55640   0.59634   0.00000  Uiso   1.00
H1332  H     0.93421   0.52240   0.54107   0.00000  Uiso   1.00
H1333  H     0.88869   0.50427   0.50896   0.00000  Uiso   1.00
H1334  H     0.89204   0.71909   0.37006   0.00000  Uiso   1.00
H1335  H     0.89734   0.98359   0.56705   0.00000  Uiso   1.00
H1336  H     0.80384   0.65664   0.41566   0.00000  Uiso   1.00
H1337  H     0.74346   0.67412   0.45746   0.00000  Uiso   1.00
H1338  H     0.78561   0.69380   0.49305   0.00000  Uiso   1.00
H1339  H     0.76124   0.63991   0.50533   0.00000  Uiso   1.00
H1340  H     0.64098   0.91022   0.61216   0.00000  Uiso   1.00
H1341  H     0.62006   0.98679   0.61063   0.00000  Uiso   1.00
H1342  H     0.57887   0.95498   0.58343   0.00000  Uiso   1.00
H1343  H     0.61658   0.98573   0.54835   0.00000  Uiso   1.00
H1344  H     0.80778   0.84866   0.58918   0.00000  Uiso   1.00
H1345  H     0.58248   0.87096   0.60898   0.00000  Uiso   1.00
H1346  H     0.79307   0.80381   0.51624   0.00000  Uiso   1.00
H1347  H     0.76613   0.85445   0.49720   0.00000  Uiso   1.00
H1348  H     0.74888   0.82414   0.54801   0.00000  Uiso   1.00
H1349  H     0.65685   0.56749   0.40229   0.00000  Uiso   1.00
H1350  H     0.57798   0.53243   0.44530   0.00000  Uiso   1.00
H1351  H     0.62807   0.50678   0.45858   0.00000  Uiso   1.00
H1352  H     0.60826   0.50697   0.40001   0.00000  Uiso   1.00
H1353  H     0.68898   0.61205   0.59661   0.00000  Uiso   1.00
H1354  H     0.69258   0.69950   0.54356   0.00000  Uiso   1.00
H1355  H     0.73838   0.67885   0.57197   0.00000  Uiso   1.00
H1356  H     0.64673   0.82424   0.61767   0.00000  Uiso   1.00
H1357  H     0.69298   0.69060   0.60587   0.00000  Uiso   1.00
H1358  H     0.86336   0.97292   0.43965   0.00000  Uiso   1.00
H1359  H     0.94157   0.95583   0.43842   0.00000  Uiso   1.00
H1360  H     0.91707   0.98204   0.38854   0.00000  Uiso   1.00
H1361  H     0.92751   0.92320   0.38786   0.00000  Uiso   1.00
H1362  H     0.62173   0.78422   0.58019   0.00000  Uiso   1.00
H1363  H     0.59945   0.79555   0.63591   0.00000  Uiso   1.00
H1364  H     0.61579   0.80166   0.40905   0.00000  Uiso   1.00
N1365  N     0.50000   0.75000   0.61736   0.00000  Uiso   1.00
N1366  N     0.77836   0.61290   0.60201   0.00000  Uiso   1.00
N1367  N     0.73045   0.61504   0.39527   0.00000  Uiso   1.00
N1368  N     0.72905   0.88529   0.60449   0.00000  Uiso   1.00
N1369  N     0.87235   0.69795   0.43615   0.00000  Uiso   1.00
N1370  N     0.59090   0.84662   0.58583   0.00000  Uiso   1.00
N1371  N     0.60506   0.83346   0.41610   0.00000  Uiso   1.00
N1372  N     0.92990   0.62559   0.57566   0.00000  Uiso   1.00
N1373  N     0.60936   0.67128   0.58280   0.00000  Uiso   1.00
N1374  N     0.89662   0.84882   0.41422   0.00000  Uiso   1.00
N1375  N     0.87988   0.81183   0.57391   0.00000  Uiso   1.00
N1376  N     0.50000   0.75000   0.38264   0.00000  Uiso   1.00
N1377  N     0.59219   0.65372   0.41435   0.00000  Uiso   1.00
N1378  N     0.68679   0.87082   0.43076   0.00000  Uiso   1.00
N1379  N     0.87682   0.55033   0.56202   0.00000  Uiso   1.00
N1380  N     0.80122   0.64125   0.44766   0.00000  Uiso   1.00
N1381  N     0.63914   0.92654   0.58051   0.00000  Uiso   1.00
N1382  N     0.80442   0.86160   0.55614   0.00000  Uiso   1.00
N1383  N     0.63065   0.56900   0.42282   0.00000  Uiso   1.00
N1384  N     0.68983   0.63117   0.56663   0.00000  Uiso   1.00
N1385  N     0.87699   0.94307   0.43044   0.00000  Uiso   1.00
N1386  N     0.75000   0.50000   0.61736   0.00000  Uiso   1.00
N1387  N     0.75000   0.50000   0.38264   0.00000  Uiso   1.00
N1388  N     0.99855   0.63428   0.40342   0.00000  Uiso   1.00
N1389  N     0.99739   0.86564   0.59639   0.00000  Uiso   1.00
N1390  N     0.50361   0.86528   0.40099   0.00000  Uiso   1.00
N1391  N     0.51441   0.63547   0.60014   0.00000  Uiso   1.00
N1392  N     0.77579   0.88681   0.39877   0.00000  Uiso   1.00
O1393  O     0.54508   0.70491   0.53958   0.00000  Uiso   1.00
O1394  O     0.70491   0.54509   0.46042   0.00000  Uiso   1.00
O1395  O     0.70491   0.54509   0.53958   0.00000  Uiso   1.00
O1396  O     0.79508   0.95491   0.46042   0.00000  Uiso   1.00
O1397  O     0.70491   0.95491   0.46042   0.00000  Uiso   1.00
O1398  O     0.79508   0.54509   0.53958   0.00000  Uiso   1.00
O1399  O     0.79508   0.54509   0.46042   0.00000  Uiso   1.00
O1400  O     0.70491   0.95491   0.53958   0.00000  Uiso   1.00
O1401  O     0.95491   0.79509   0.46042   0.00000  Uiso   1.00
O1402  O     0.95491   0.79509   0.53958   0.00000  Uiso   1.00
O1403  O     0.54508   0.70491   0.46042   0.00000  Uiso   1.00
O1404  O     0.95491   0.70491   0.46042   0.00000  Uiso   1.00
O1405  O     0.54508   0.79509   0.53958   0.00000  Uiso   1.00
O1406  O     0.54508   0.79509   0.46042   0.00000  Uiso   1.00
O1407  O     0.95491   0.70491   0.53958   0.00000  Uiso   1.00
O1408  O     0.79508   0.95491   0.53958   0.00000  Uiso   1.00
C1409  C     0.06016   0.19136   0.83343   0.00000  Uiso   1.00
C1410  C     0.49936   0.28946   0.97472   0.00000  Uiso   1.00
C1411  C     0.00021   0.28944   0.69095   0.00000  Uiso   1.00
C1412  C     0.00205   0.21068   0.97580   0.00000  Uiso   1.00
C1413  C     0.25245   0.46087   0.69171   0.00000  Uiso   1.00
C1414  C     0.25326   0.03910   0.97500   0.00000  Uiso   1.00
C1415  C     0.24855   0.03920   0.69064   0.00000  Uiso   1.00
C1416  C     0.24778   0.46084   0.97604   0.00000  Uiso   1.00
C1417  C     0.37342   0.16102   0.80125   0.00000  Uiso   1.00
C1418  C     0.10605   0.36270   0.87571   0.00000  Uiso   1.00
C1419  C     0.11716   0.35140   0.79299   0.00000  Uiso   1.00
C1420  C     0.43971   0.30859   0.83301   0.00000  Uiso   1.00
C1421  C     0.40408   0.12367   0.86909   0.00000  Uiso   1.00
C1422  C     0.11938   0.15094   0.87315   0.00000  Uiso   1.00
C1423  C     0.39675   0.36794   0.79246   0.00000  Uiso   1.00
C1424  C     0.37687   0.34331   0.86987   0.00000  Uiso   1.00
C1425  C     0.10535   0.13679   0.79170   0.00000  Uiso   1.00
C1426  C     0.15365   0.37704   0.79631   0.00000  Uiso   1.00
C1427  C     0.37484   0.08883   0.86540   0.00000  Uiso   1.00
C1428  C     0.33967   0.13084   0.80364   0.00000  Uiso   1.00
C1429  C     0.13423   0.39859   0.87444   0.00000  Uiso   1.00
C1430  C     0.34248   0.37253   0.86643   0.00000  Uiso   1.00
C1431  C     0.44033   0.19066   0.83363   0.00000  Uiso   1.00
C1432  C     0.13166   0.09958   0.79369   0.00000  Uiso   1.00
C1433  C     0.15548   0.12454   0.86928   0.00000  Uiso   1.00
C1434  C     0.37354   0.40730   0.79751   0.00000  Uiso   1.00
C1435  C     0.09444   0.34167   0.83378   0.00000  Uiso   1.00
C1436  C     0.40586   0.15768   0.83437   0.00000  Uiso   1.00
C1437  C     0.40486   0.34106   0.83230   0.00000  Uiso   1.00
C1438  C     0.09517   0.15926   0.83306   0.00000  Uiso   1.00
C1439  C     0.34223   0.09302   0.83315   0.00000  Uiso   1.00
C1440  C     0.15902   0.40518   0.83455   0.00000  Uiso   1.00
C1441  C     0.15879   0.09454   0.83213   0.00000  Uiso   1.00
C1442  C     0.05978   0.30913   0.83330   0.00000  Uiso   1.00
C1443  C     0.34335   0.40778   0.83336   0.00000  Uiso   1.00
C1444  C     0.49965   0.16835   0.71702   0.00000  Uiso   1.00
C1445  C     0.49834   0.33163   0.94958   0.00000  Uiso   1.00
C1446  C     0.00205   0.33142   0.71516   0.00000  Uiso   1.00
C1447  C     0.00843   0.16907   0.95201   0.00000  Uiso   1.00
C1448  C     0.26465   0.41983   0.71465   0.00000  Uiso   1.00
C1449  C     0.26643   0.07999   0.95236   0.00000  Uiso   1.00
C1450  C     0.23932   0.08104   0.71256   0.00000  Uiso   1.00
C1451  C     0.23811   0.41915   0.95404   0.00000  Uiso   1.00
C1452  C     0.38580   0.18751   0.72299   0.00000  Uiso   1.00
C1453  C     0.30982   0.44121   0.83342   0.00000  Uiso   1.00
C1454  C     0.11610   0.31091   0.93928   0.00000  Uiso   1.00
C1455  C     0.10323   0.36443   0.71035   0.00000  Uiso   1.00
C1456  C     0.40956   0.14657   0.94804   0.00000  Uiso   1.00
C1457  C     0.11037   0.14298   0.95735   0.00000  Uiso   1.00
C1458  C     0.36614   0.31341   0.74217   0.00000  Uiso   1.00
C1459  C     0.39235   0.33081   0.95101   0.00000  Uiso   1.00
C1460  C     0.11724   0.19114   0.73101   0.00000  Uiso   1.00
C1461  C     0.20028   0.32481   0.75659   0.00000  Uiso   1.00
C1462  C     0.40059   0.01332   0.87704   0.00000  Uiso   1.00
C1463  C     0.27147   0.16342   0.81083   0.00000  Uiso   1.00
C1464  C     0.19121   0.05997   0.83300   0.00000  Uiso   1.00
C1465  C     0.11213   0.46547   0.91393   0.00000  Uiso   1.00
C1466  C     0.27681   0.33467   0.86122   0.00000  Uiso   1.00
C1467  C     0.11024   0.02660   0.76571   0.00000  Uiso   1.00
C1468  C     0.20385   0.17726   0.90558   0.00000  Uiso   1.00
C1469  C     0.41799   0.45113   0.74386   0.00000  Uiso   1.00
C1470  C     0.19149   0.43973   0.83362   0.00000  Uiso   1.00
C1471  C     0.30901   0.05955   0.83317   0.00000  Uiso   1.00
C1472  C     0.00064   0.21058   0.69196   0.00000  Uiso   1.00
Cu1473 Cu    0.00000   0.25000   0.88022   0.00000  Uiso   1.00
Cu1474 Cu    0.00000   0.25000   0.78645   0.00000  Uiso   1.00
Cu1475 Cu    0.25000   0.00000   0.88022   0.00000  Uiso   1.00
Cu1476 Cu    0.25000   0.00000   0.78645   0.00000  Uiso   1.00
H1477  H     0.34471   0.21576   0.76993   0.00000  Uiso   1.00
H1478  H     0.13279   0.36343   0.69042   0.00000  Uiso   1.00
H1479  H     0.09691   0.39930   0.72171   0.00000  Uiso   1.00
H1480  H     0.07767   0.35435   0.68700   0.00000  Uiso   1.00
H1481  H     0.44359   0.09534   0.91786   0.00000  Uiso   1.00
H1482  H     0.43017   0.14445   0.97889   0.00000  Uiso   1.00
H1483  H     0.37968   0.12944   0.95678   0.00000  Uiso   1.00
H1484  H     0.40299   0.18247   0.94012   0.00000  Uiso   1.00
H1485  H     0.11879   0.20403   0.92006   0.00000  Uiso   1.00
H1486  H     0.14022   0.14730   0.97628   0.00000  Uiso   1.00
H1487  H     0.10591   0.10702   0.94884   0.00000  Uiso   1.00
H1488  H     0.36139   0.16831   0.70447   0.00000  Uiso   1.00
H1489  H     0.08479   0.15297   0.98057   0.00000  Uiso   1.00
H1490  H     0.42527   0.34124   0.73408   0.00000  Uiso   1.00
H1491  H     0.37395   0.28501   0.76565   0.00000  Uiso   1.00
H1492  H     0.36609   0.30122   0.70617   0.00000  Uiso   1.00
H1493  H     0.33432   0.32575   0.75059   0.00000  Uiso   1.00
H1494  H     0.35520   0.28970   0.90991   0.00000  Uiso   1.00
H1495  H     0.36479   0.34421   0.96960   0.00000  Uiso   1.00
H1496  H     0.41500   0.35860   0.94577   0.00000  Uiso   1.00
H1497  H     0.40744   0.30432   0.97261   0.00000  Uiso   1.00
H1498  H     0.08722   0.12980   0.72287   0.00000  Uiso   1.00
H1499  H     0.41488   0.16732   0.72397   0.00000  Uiso   1.00
H1500  H     0.14873   0.17919   0.72050   0.00000  Uiso   1.00
H1501  H     0.12101   0.21684   0.75825   0.00000  Uiso   1.00
H1502  H     0.10155   0.20760   0.70096   0.00000  Uiso   1.00
H1503  H     0.18549   0.39108   0.73492   0.00000  Uiso   1.00
H1504  H     0.19200   0.31434   0.72094   0.00000  Uiso   1.00
H1505  H     0.18615   0.30091   0.78202   0.00000  Uiso   1.00
H1506  H     0.23455   0.32200   0.76099   0.00000  Uiso   1.00
H1507  H     0.38331   0.05640   0.92967   0.00000  Uiso   1.00
H1508  H     0.43421   0.02240   0.87440   0.00000  Uiso   1.00
H1509  H     0.38869   0.00427   0.84229   0.00000  Uiso   1.00
H1510  H     0.39204   0.21909   0.70339   0.00000  Uiso   1.00
H1511  H     0.39734   0.48359   0.90038   0.00000  Uiso   1.00
H1512  H     0.30384   0.15664   0.74900   0.00000  Uiso   1.00
H1513  H     0.24346   0.17412   0.79079   0.00000  Uiso   1.00
H1514  H     0.28561   0.19380   0.82638   0.00000  Uiso   1.00
H1515  H     0.26124   0.13991   0.83866   0.00000  Uiso   1.00
H1516  H     0.14098   0.41022   0.94549   0.00000  Uiso   1.00
H1517  H     0.12006   0.48679   0.94396   0.00000  Uiso   1.00
H1518  H     0.07887   0.45498   0.91676   0.00000  Uiso   1.00
H1519  H     0.11658   0.48573   0.88169   0.00000  Uiso   1.00
H1520  H     0.30778   0.34866   0.92252   0.00000  Uiso   1.00
H1521  H     0.08248   0.37096   0.94232   0.00000  Uiso   1.00
H1522  H     0.29307   0.30381   0.84957   0.00000  Uiso   1.00
H1523  H     0.26613   0.35445   0.83053   0.00000  Uiso   1.00
H1524  H     0.24888   0.32414   0.88134   0.00000  Uiso   1.00
H1525  H     0.15685   0.06749   0.73562   0.00000  Uiso   1.00
H1526  H     0.07798   0.03243   0.77864   0.00000  Uiso   1.00
H1527  H     0.12807   0.00678   0.79191   0.00000  Uiso   1.00
H1528  H     0.10826   0.00697   0.73334   0.00000  Uiso   1.00
H1529  H     0.18898   0.11205   0.92994   0.00000  Uiso   1.00
H1530  H     0.19258   0.19950   0.87689   0.00000  Uiso   1.00
H1531  H     0.23838   0.17885   0.90530   0.00000  Uiso   1.00
H1532  H     0.14673   0.32424   0.95100   0.00000  Uiso   1.00
H1533  H     0.19298   0.19060   0.93920   0.00000  Uiso   1.00
H1534  H     0.36336   0.47292   0.77298   0.00000  Uiso   1.00
H1535  H     0.44157   0.45583   0.77175   0.00000  Uiso   1.00
H1536  H     0.41707   0.48204   0.72188   0.00000  Uiso   1.00
H1537  H     0.42751   0.42320   0.72120   0.00000  Uiso   1.00
H1538  H     0.12173   0.28422   0.91352   0.00000  Uiso   1.00
H1539  H     0.09945   0.29555   0.96925   0.00000  Uiso   1.00
H1540  H     0.11579   0.30166   0.74239   0.00000  Uiso   1.00
N1541  N     0.00000   0.25000   0.95069   0.00000  Uiso   1.00
N1542  N     0.27836   0.11290   0.93534   0.00000  Uiso   1.00
N1543  N     0.23045   0.11504   0.72860   0.00000  Uiso   1.00
N1544  N     0.22905   0.38529   0.93782   0.00000  Uiso   1.00
N1545  N     0.37235   0.19795   0.76948   0.00000  Uiso   1.00
N1546  N     0.09090   0.34662   0.91916   0.00000  Uiso   1.00
N1547  N     0.10506   0.33346   0.74944   0.00000  Uiso   1.00
N1548  N     0.42990   0.12559   0.90900   0.00000  Uiso   1.00
N1549  N     0.10936   0.17128   0.91613   0.00000  Uiso   1.00
N1550  N     0.39662   0.34882   0.74755   0.00000  Uiso   1.00
N1551  N     0.37988   0.31183   0.90724   0.00000  Uiso   1.00
N1552  N     0.00000   0.25000   0.71598   0.00000  Uiso   1.00
N1553  N     0.09219   0.15372   0.74768   0.00000  Uiso   1.00
N1554  N     0.18679   0.37082   0.76409   0.00000  Uiso   1.00
N1555  N     0.37682   0.05033   0.89536   0.00000  Uiso   1.00
N1556  N     0.30122   0.14125   0.78100   0.00000  Uiso   1.00
N1557  N     0.13914   0.42654   0.91384   0.00000  Uiso   1.00
N1558  N     0.30442   0.36160   0.88947   0.00000  Uiso   1.00
N1559  N     0.13065   0.06900   0.75615   0.00000  Uiso   1.00
N1560  N     0.18983   0.13117   0.89996   0.00000  Uiso   1.00
N1561  N     0.37699   0.44307   0.76378   0.00000  Uiso   1.00
N1562  N     0.25000   0.00000   0.95069   0.00000  Uiso   1.00
N1563  N     0.25000   0.00000   0.71598   0.00000  Uiso   1.00
N1564  N     0.49855   0.13428   0.73675   0.00000  Uiso   1.00
N1565  N     0.49739   0.36564   0.92972   0.00000  Uiso   1.00
N1566  N     0.00361   0.36528   0.73433   0.00000  Uiso   1.00
N1567  N     0.01441   0.13547   0.93348   0.00000  Uiso   1.00
N1568  N     0.27579   0.38681   0.73210   0.00000  Uiso   1.00
O1569  O     0.04508   0.20491   0.87291   0.00000  Uiso   1.00
O1570  O     0.20491   0.04509   0.79375   0.00000  Uiso   1.00
O1571  O     0.20491   0.04509   0.87291   0.00000  Uiso   1.00
O1572  O     0.29508   0.45491   0.79375   0.00000  Uiso   1.00
O1573  O     0.20491   0.45491   0.79375   0.00000  Uiso   1.00
O1574  O     0.29508   0.04509   0.87291   0.00000  Uiso   1.00
O1575  O     0.29508   0.04509   0.79375   0.00000  Uiso   1.00
O1576  O     0.20491   0.45491   0.87291   0.00000  Uiso   1.00
O1577  O     0.45491   0.29509   0.79375   0.00000  Uiso   1.00
O1578  O     0.45491   0.29509   0.87291   0.00000  Uiso   1.00
O1579  O     0.04508   0.20491   0.79375   0.00000  Uiso   1.00
O1580  O     0.45491   0.20491   0.79375   0.00000  Uiso   1.00
O1581  O     0.04508   0.29509   0.87291   0.00000  Uiso   1.00
O1582  O     0.04508   0.29509   0.79375   0.00000  Uiso   1.00
O1583  O     0.45491   0.20491   0.87291   0.00000  Uiso   1.00
O1584  O     0.29508   0.45491   0.87291   0.00000  Uiso   1.00
C1585  C     0.56016   0.19136   0.83343   0.00000  Uiso   1.00
C1586  C     0.99936   0.28946   0.97472   0.00000  Uiso   1.00
C1587  C     0.50021   0.28944   0.69095   0.00000  Uiso   1.00
C1588  C     0.50205   0.21068   0.97580   0.00000  Uiso   1.00
C1589  C     0.75245   0.46087   0.69171   0.00000  Uiso   1.00
C1590  C     0.75326   0.03910   0.97500   0.00000  Uiso   1.00
C1591  C     0.74855   0.03920   0.69064   0.00000  Uiso   1.00
C1592  C     0.74778   0.46084   0.97604   0.00000  Uiso   1.00
C1593  C     0.87342   0.16102   0.80125   0.00000  Uiso   1.00
C1594  C     0.60605   0.36270   0.87571   0.00000  Uiso   1.00
C1595  C     0.61716   0.35140   0.79299   0.00000  Uiso   1.00
C1596  C     0.93971   0.30859   0.83301   0.00000  Uiso   1.00
C1597  C     0.90408   0.12367   0.86909   0.00000  Uiso   1.00
C1598  C     0.61938   0.15094   0.87315   0.00000  Uiso   1.00
C1599  C     0.89675   0.36794   0.79246   0.00000  Uiso   1.00
C1600  C     0.87687   0.34331   0.86987   0.00000  Uiso   1.00
C1601  C     0.60535   0.13679   0.79170   0.00000  Uiso   1.00
C1602  C     0.65365   0.37704   0.79631   0.00000  Uiso   1.00
C1603  C     0.87484   0.08883   0.86540   0.00000  Uiso   1.00
C1604  C     0.83967   0.13084   0.80364   0.00000  Uiso   1.00
C1605  C     0.63423   0.39859   0.87444   0.00000  Uiso   1.00
C1606  C     0.84248   0.37253   0.86643   0.00000  Uiso   1.00
C1607  C     0.94033   0.19066   0.83363   0.00000  Uiso   1.00
C1608  C     0.63166   0.09958   0.79369   0.00000  Uiso   1.00
C1609  C     0.65548   0.12454   0.86928   0.00000  Uiso   1.00
C1610  C     0.87354   0.40730   0.79751   0.00000  Uiso   1.00
C1611  C     0.59444   0.34167   0.83378   0.00000  Uiso   1.00
C1612  C     0.90586   0.15768   0.83437   0.00000  Uiso   1.00
C1613  C     0.90486   0.34106   0.83230   0.00000  Uiso   1.00
C1614  C     0.59517   0.15926   0.83306   0.00000  Uiso   1.00
C1615  C     0.84223   0.09302   0.83315   0.00000  Uiso   1.00
C1616  C     0.65902   0.40518   0.83455   0.00000  Uiso   1.00
C1617  C     0.65879   0.09454   0.83213   0.00000  Uiso   1.00
C1618  C     0.55978   0.30913   0.83330   0.00000  Uiso   1.00
C1619  C     0.84335   0.40778   0.83336   0.00000  Uiso   1.00
C1620  C     0.99965   0.16835   0.71702   0.00000  Uiso   1.00
C1621  C     0.99834   0.33163   0.94958   0.00000  Uiso   1.00
C1622  C     0.50205   0.33142   0.71516   0.00000  Uiso   1.00
C1623  C     0.50843   0.16907   0.95201   0.00000  Uiso   1.00
C1624  C     0.76465   0.41983   0.71465   0.00000  Uiso   1.00
C1625  C     0.76643   0.07999   0.95236   0.00000  Uiso   1.00
C1626  C     0.73932   0.08104   0.71256   0.00000  Uiso   1.00
C1627  C     0.73811   0.41915   0.95404   0.00000  Uiso   1.00
C1628  C     0.88580   0.18751   0.72299   0.00000  Uiso   1.00
C1629  C     0.80982   0.44121   0.83342   0.00000  Uiso   1.00
C1630  C     0.61610   0.31091   0.93928   0.00000  Uiso   1.00
C1631  C     0.60323   0.36443   0.71035   0.00000  Uiso   1.00
C1632  C     0.90956   0.14657   0.94804   0.00000  Uiso   1.00
C1633  C     0.61037   0.14298   0.95735   0.00000  Uiso   1.00
C1634  C     0.86614   0.31341   0.74217   0.00000  Uiso   1.00
C1635  C     0.89235   0.33081   0.95101   0.00000  Uiso   1.00
C1636  C     0.61724   0.19114   0.73101   0.00000  Uiso   1.00
C1637  C     0.70028   0.32481   0.75659   0.00000  Uiso   1.00
C1638  C     0.90059   0.01332   0.87704   0.00000  Uiso   1.00
C1639  C     0.77147   0.16342   0.81083   0.00000  Uiso   1.00
C1640  C     0.69121   0.05997   0.83300   0.00000  Uiso   1.00
C1641  C     0.61213   0.46547   0.91393   0.00000  Uiso   1.00
C1642  C     0.77681   0.33467   0.86122   0.00000  Uiso   1.00
C1643  C     0.61024   0.02660   0.76571   0.00000  Uiso   1.00
C1644  C     0.70385   0.17726   0.90558   0.00000  Uiso   1.00
C1645  C     0.91799   0.45113   0.74386   0.00000  Uiso   1.00
C1646  C     0.69149   0.43973   0.83362   0.00000  Uiso   1.00
C1647  C     0.80901   0.05955   0.83317   0.00000  Uiso   1.00
C1648  C     0.50064   0.21058   0.69196   0.00000  Uiso   1.00
Cu1649 Cu    0.50000   0.25000   0.88022   0.00000  Uiso   1.00
Cu1650 Cu    0.50000   0.25000   0.78645   0.00000  Uiso   1.00
Cu1651 Cu    0.75000   0.00000   0.88022   0.00000  Uiso   1.00
Cu1652 Cu    0.75000   0.00000   0.78645   0.00000  Uiso   1.00
H1653  H     0.84471   0.21576   0.76993   0.00000  Uiso   1.00
H1654  H     0.63279   0.36343   0.69042   0.00000  Uiso   1.00
H1655  H     0.59691   0.39930   0.72171   0.00000  Uiso   1.00
H1656  H     0.57767   0.35435   0.68700   0.00000  Uiso   1.00
H1657  H     0.94359   0.09534   0.91786   0.00000  Uiso   1.00
H1658  H     0.93017   0.14445   0.97889   0.00000  Uiso   1.00
H1659  H     0.87968   0.12944   0.95678   0.00000  Uiso   1.00
H1660  H     0.90299   0.18247   0.94012   0.00000  Uiso   1.00
H1661  H     0.61879   0.20403   0.92006   0.00000  Uiso   1.00
H1662  H     0.64022   0.14730   0.97628   0.00000  Uiso   1.00
H1663  H     0.60591   0.10702   0.94884   0.00000  Uiso   1.00
H1664  H     0.86139   0.16831   0.70447   0.00000  Uiso   1.00
H1665  H     0.58479   0.15297   0.98057   0.00000  Uiso   1.00
H1666  H     0.92527   0.34124   0.73408   0.00000  Uiso   1.00
H1667  H     0.87395   0.28501   0.76565   0.00000  Uiso   1.00
H1668  H     0.86609   0.30122   0.70617   0.00000  Uiso   1.00
H1669  H     0.83432   0.32575   0.75059   0.00000  Uiso   1.00
H1670  H     0.85520   0.28970   0.90991   0.00000  Uiso   1.00
H1671  H     0.86479   0.34421   0.96960   0.00000  Uiso   1.00
H1672  H     0.91500   0.35860   0.94577   0.00000  Uiso   1.00
H1673  H     0.90744   0.30432   0.97261   0.00000  Uiso   1.00
H1674  H     0.58722   0.12980   0.72287   0.00000  Uiso   1.00
H1675  H     0.91488   0.16732   0.72397   0.00000  Uiso   1.00
H1676  H     0.64873   0.17919   0.72050   0.00000  Uiso   1.00
H1677  H     0.62101   0.21684   0.75825   0.00000  Uiso   1.00
H1678  H     0.60155   0.20760   0.70096   0.00000  Uiso   1.00
H1679  H     0.68549   0.39108   0.73492   0.00000  Uiso   1.00
H1680  H     0.69200   0.31434   0.72094   0.00000  Uiso   1.00
H1681  H     0.68615   0.30091   0.78202   0.00000  Uiso   1.00
H1682  H     0.73455   0.32200   0.76099   0.00000  Uiso   1.00
H1683  H     0.88331   0.05640   0.92967   0.00000  Uiso   1.00
H1684  H     0.93421   0.02240   0.87440   0.00000  Uiso   1.00
H1685  H     0.88869   0.00427   0.84229   0.00000  Uiso   1.00
H1686  H     0.89204   0.21909   0.70339   0.00000  Uiso   1.00
H1687  H     0.89734   0.48359   0.90038   0.00000  Uiso   1.00
H1688  H     0.80384   0.15664   0.74900   0.00000  Uiso   1.00
H1689  H     0.74346   0.17412   0.79079   0.00000  Uiso   1.00
H1690  H     0.78561   0.19380   0.82638   0.00000  Uiso   1.00
H1691  H     0.76124   0.13991   0.83866   0.00000  Uiso   1.00
H1692  H     0.64098   0.41022   0.94549   0.00000  Uiso   1.00
H1693  H     0.62006   0.48679   0.94396   0.00000  Uiso   1.00
H1694  H     0.57887   0.45498   0.91676   0.00000  Uiso   1.00
H1695  H     0.61658   0.48573   0.88169   0.00000  Uiso   1.00
H1696  H     0.80778   0.34866   0.92252   0.00000  Uiso   1.00
H1697  H     0.58248   0.37096   0.94232   0.00000  Uiso   1.00
H1698  H     0.79307   0.30381   0.84957   0.00000  Uiso   1.00
H1699  H     0.76613   0.35445   0.83053   0.00000  Uiso   1.00
H1700  H     0.74888   0.32414   0.88134   0.00000  Uiso   1.00
H1701  H     0.65685   0.06749   0.73562   0.00000  Uiso   1.00
H1702  H     0.57798   0.03243   0.77864   0.00000  Uiso   1.00
H1703  H     0.62807   0.00678   0.79191   0.00000  Uiso   1.00
H1704  H     0.60826   0.00697   0.73334   0.00000  Uiso   1.00
H1705  H     0.68898   0.11205   0.92994   0.00000  Uiso   1.00
H1706  H     0.69258   0.19950   0.87689   0.00000  Uiso   1.00
H1707  H     0.73838   0.17885   0.90530   0.00000  Uiso   1.00
H1708  H     0.64673   0.32424   0.95100   0.00000  Uiso   1.00
H1709  H     0.69298   0.19060   0.93920   0.00000  Uiso   1.00
H1710  H     0.86336   0.47292   0.77298   0.00000  Uiso   1.00
H1711  H     0.94157   0.45583   0.77175   0.00000  Uiso   1.00
H1712  H     0.91707   0.48204   0.72188   0.00000  Uiso   1.00
H1713  H     0.92751   0.42320   0.72120   0.00000  Uiso   1.00
H1714  H     0.62173   0.28422   0.91352   0.00000  Uiso   1.00
H1715  H     0.59945   0.29555   0.96925   0.00000  Uiso   1.00
H1716  H     0.61579   0.30166   0.74239   0.00000  Uiso   1.00
N1717  N     0.50000   0.25000   0.95069   0.00000  Uiso   1.00
N1718  N     0.77836   0.11290   0.93534   0.00000  Uiso   1.00
N1719  N     0.73045   0.11504   0.72860   0.00000  Uiso   1.00
N1720  N     0.72905   0.38529   0.93782   0.00000  Uiso   1.00
N1721  N     0.87235   0.19795   0.76948   0.00000  Uiso   1.00
N1722  N     0.59090   0.34662   0.91916   0.00000  Uiso   1.00
N1723  N     0.60506   0.33346   0.74944   0.00000  Uiso   1.00
N1724  N     0.92990   0.12559   0.90900   0.00000  Uiso   1.00
N1725  N     0.60936   0.17128   0.91613   0.00000  Uiso   1.00
N1726  N     0.89662   0.34882   0.74755   0.00000  Uiso   1.00
N1727  N     0.87988   0.31183   0.90724   0.00000  Uiso   1.00
N1728  N     0.50000   0.25000   0.71598   0.00000  Uiso   1.00
N1729  N     0.59219   0.15372   0.74768   0.00000  Uiso   1.00
N1730  N     0.68679   0.37082   0.76409   0.00000  Uiso   1.00
N1731  N     0.87682   0.05033   0.89536   0.00000  Uiso   1.00
N1732  N     0.80122   0.14125   0.78100   0.00000  Uiso   1.00
N1733  N     0.63914   0.42654   0.91384   0.00000  Uiso   1.00
N1734  N     0.80442   0.36160   0.88947   0.00000  Uiso   1.00
N1735  N     0.63065   0.06900   0.75615   0.00000  Uiso   1.00
N1736  N     0.68983   0.13117   0.89996   0.00000  Uiso   1.00
N1737  N     0.87699   0.44307   0.76378   0.00000  Uiso   1.00
N1738  N     0.75000   0.00000   0.95069   0.00000  Uiso   1.00
N1739  N     0.75000   0.00000   0.71598   0.00000  Uiso   1.00
N1740  N     0.99855   0.13428   0.73675   0.00000  Uiso   1.00
N1741  N     0.99739   0.36564   0.92972   0.00000  Uiso   1.00
N1742  N     0.50361   0.36528   0.73433   0.00000  Uiso   1.00
N1743  N     0.51441   0.13547   0.93348   0.00000  Uiso   1.00
N1744  N     0.77579   0.38681   0.73210   0.00000  Uiso   1.00
O1745  O     0.54508   0.20491   0.87291   0.00000  Uiso   1.00
O1746  O     0.70491   0.04509   0.79375   0.00000  Uiso   1.00
O1747  O     0.70491   0.04509   0.87291   0.00000  Uiso   1.00
O1748  O     0.79508   0.45491   0.79375   0.00000  Uiso   1.00
O1749  O     0.70491   0.45491   0.79375   0.00000  Uiso   1.00
O1750  O     0.79508   0.04509   0.87291   0.00000  Uiso   1.00
O1751  O     0.79508   0.04509   0.79375   0.00000  Uiso   1.00
O1752  O     0.70491   0.45491   0.87291   0.00000  Uiso   1.00
O1753  O     0.95491   0.29509   0.79375   0.00000  Uiso   1.00
O1754  O     0.95491   0.29509   0.87291   0.00000  Uiso   1.00
O1755  O     0.54508   0.20491   0.79375   0.00000  Uiso   1.00
O1756  O     0.95491   0.20491   0.79375   0.00000  Uiso   1.00
O1757  O     0.54508   0.29509   0.87291   0.00000  Uiso   1.00
O1758  O     0.54508   0.29509   0.79375   0.00000  Uiso   1.00
O1759  O     0.95491   0.20491   0.87291   0.00000  Uiso   1.00
O1760  O     0.79508   0.45491   0.87291   0.00000  Uiso   1.00
C1761  C     0.06016   0.69136   0.83343   0.00000  Uiso   1.00
C1762  C     0.49936   0.78946   0.97472   0.00000  Uiso   1.00
C1763  C     0.00021   0.78944   0.69095   0.00000  Uiso   1.00
C1764  C     0.00205   0.71068   0.97580   0.00000  Uiso   1.00
C1765  C     0.25245   0.96087   0.69171   0.00000  Uiso   1.00
C1766  C     0.25326   0.53910   0.97500   0.00000  Uiso   1.00
C1767  C     0.24855   0.53920   0.69064   0.00000  Uiso   1.00
C1768  C     0.24778   0.96084   0.97604   0.00000  Uiso   1.00
C1769  C     0.37342   0.66102   0.80125   0.00000  Uiso   1.00
C1770  C     0.10605   0.86270   0.87571   0.00000  Uiso   1.00
C1771  C     0.11716   0.85140   0.79299   0.00000  Uiso   1.00
C1772  C     0.43971   0.80859   0.83301   0.00000  Uiso   1.00
C1773  C     0.40408   0.62367   0.86909   0.00000  Uiso   1.00
C1774  C     0.11938   0.65094   0.87315   0.00000  Uiso   1.00
C1775  C     0.39675   0.86794   0.79246   0.00000  Uiso   1.00
C1776  C     0.37687   0.84331   0.86987   0.00000  Uiso   1.00
C1777  C     0.10535   0.63679   0.79170   0.00000  Uiso   1.00
C1778  C     0.15365   0.87704   0.79631   0.00000  Uiso   1.00
C1779  C     0.37484   0.58883   0.86540   0.00000  Uiso   1.00
C1780  C     0.33967   0.63084   0.80364   0.00000  Uiso   1.00
C1781  C     0.13423   0.89859   0.87444   0.00000  Uiso   1.00
C1782  C     0.34248   0.87253   0.86643   0.00000  Uiso   1.00
C1783  C     0.44033   0.69066   0.83363   0.00000  Uiso   1.00
C1784  C     0.13166   0.59958   0.79369   0.00000  Uiso   1.00
C1785  C     0.15548   0.62454   0.86928   0.00000  Uiso   1.00
C1786  C     0.37354   0.90730   0.79751   0.00000  Uiso   1.00
C1787  C     0.09444   0.84167   0.83378   0.00000  Uiso   1.00
C1788  C     0.40586   0.65768   0.83437   0.00000  Uiso   1.00
C1789  C     0.40486   0.84106   0.83230   0.00000  Uiso   1.00
C1790  C     0.09517   0.65926   0.83306   0.00000  Uiso   1.00
C1791  C     0.34223   0.59302   0.83315   0.00000  Uiso   1.00
C1792  C     0.15902   0.90518   0.83455   0.00000  Uiso   1.00
C1793  C     0.15879   0.59454   0.83213   0.00000  Uiso   1.00
C1794  C     0.05978   0.80913   0.83330   0.00000  Uiso   1.00
C1795  C     0.34335   0.90778   0.83336   0.00000  Uiso   1.00
C1796  C     0.49965   0.66835   0.71702   0.00000  Uiso   1.00
C1797  C     0.49834   0.83163   0.94958   0.00000  Uiso   1.00
C1798  C     0.00205   0.83142   0.71516   0.00000  Uiso   1.00
C1799  C     0.00843   0.66907   0.95201   0.00000  Uiso   1.00
C1800  C     0.26465   0.91983   0.71465   0.00000  Uiso   1.00
C1801  C     0.26643   0.57999   0.95236   0.00000  Uiso   1.00
C1802  C     0.23932   0.58104   0.71256   0.00000  Uiso   1.00
C1803  C     0.23811   0.91915   0.95404   0.00000  Uiso   1.00
C1804  C     0.38580   0.68751   0.72299   0.00000  Uiso   1.00
C1805  C     0.30982   0.94121   0.83342   0.00000  Uiso   1.00
C1806  C     0.11610   0.81091   0.93928   0.00000  Uiso   1.00
C1807  C     0.10323   0.86443   0.71035   0.00000  Uiso   1.00
C1808  C     0.40956   0.64657   0.94804   0.00000  Uiso   1.00
C1809  C     0.11037   0.64298   0.95735   0.00000  Uiso   1.00
C1810  C     0.36614   0.81341   0.74217   0.00000  Uiso   1.00
C1811  C     0.39235   0.83081   0.95101   0.00000  Uiso   1.00
C1812  C     0.11724   0.69114   0.73101   0.00000  Uiso   1.00
C1813  C     0.20028   0.82481   0.75659   0.00000  Uiso   1.00
C1814  C     0.40059   0.51332   0.87704   0.00000  Uiso   1.00
C1815  C     0.27147   0.66342   0.81083   0.00000  Uiso   1.00
C1816  C     0.19121   0.55997   0.83300   0.00000  Uiso   1.00
C1817  C     0.11213   0.96547   0.91393   0.00000  Uiso   1.00
C1818  C     0.27681   0.83467   0.86122   0.00000  Uiso   1.00
C1819  C     0.11024   0.52660   0.76571   0.00000  Uiso   1.00
C1820  C     0.20385   0.67726   0.90558   0.00000  Uiso   1.00
C1821  C     0.41799   0.95113   0.74386   0.00000  Uiso   1.00
C1822  C     0.19149   0.93973   0.83362   0.00000  Uiso   1.00
C1823  C     0.30901   0.55955   0.83317   0.00000  Uiso   1.00
C1824  C     0.00064   0.71058   0.69196   0.00000  Uiso   1.00
Cu1825 Cu    0.00000   0.75000   0.88022   0.00000  Uiso   1.00
Cu1826 Cu    0.00000   0.75000   0.78645   0.00000  Uiso   1.00
Cu1827 Cu    0.25000   0.50000   0.88022   0.00000  Uiso   1.00
Cu1828 Cu    0.25000   0.50000   0.78645   0.00000  Uiso   1.00
H1829  H     0.34471   0.71576   0.76993   0.00000  Uiso   1.00
H1830  H     0.13279   0.86343   0.69042   0.00000  Uiso   1.00
H1831  H     0.09691   0.89930   0.72171   0.00000  Uiso   1.00
H1832  H     0.07767   0.85435   0.68700   0.00000  Uiso   1.00
H1833  H     0.44359   0.59534   0.91786   0.00000  Uiso   1.00
H1834  H     0.43017   0.64445   0.97889   0.00000  Uiso   1.00
H1835  H     0.37968   0.62944   0.95678   0.00000  Uiso   1.00
H1836  H     0.40299   0.68247   0.94012   0.00000  Uiso   1.00
H1837  H     0.11879   0.70403   0.92006   0.00000  Uiso   1.00
H1838  H     0.14022   0.64730   0.97628   0.00000  Uiso   1.00
H1839  H     0.10591   0.60702   0.94884   0.00000  Uiso   1.00
H1840  H     0.36139   0.66831   0.70447   0.00000  Uiso   1.00
H1841  H     0.08479   0.65297   0.98057   0.00000  Uiso   1.00
H1842  H     0.42527   0.84124   0.73408   0.00000  Uiso   1.00
H1843  H     0.37395   0.78501   0.76565   0.00000  Uiso   1.00
H1844  H     0.36609   0.80122   0.70617   0.00000  Uiso   1.00
H1845  H     0.33432   0.82575   0.75059   0.00000  Uiso   1.00
H1846  H     0.35520   0.78970   0.90991   0.00000  Uiso   1.00
H1847  H     0.36479   0.84421   0.96960   0.00000  Uiso   1.00
H1848  H     0.41500   0.85860   0.94577   0.00000  Uiso   1.00
H1849  H     0.40744   0.80432   0.97261   0.00000  Uiso   1.00
H1850  H     0.08722   0.62980   0.72287   0.00000  Uiso   1.00
H1851  H     0.41488   0.66732   0.72397   0.00000  Uiso   1.00
H1852  H     0.14873   0.67919   0.72050   0.00000  Uiso   1.00
H1853  H     0.12101   0.71684   0.75825   0.00000  Uiso   1.00
H1854  H     0.10155   0.70760   0.70096   0.00000  Uiso   1.00
H1855  H     0.18549   0.89108   0.73492   0.00000  Uiso   1.00
H1856  H     0.19200   0.81434   0.72094   0.00000  Uiso   1.00
H1857  H     0.18615   0.80091   0.78202   0.00000  Uiso   1.00
H1858  H     0.23455   0.82200   0.76099   0.00000  Uiso   1.00
H1859  H     0.38331   0.55640   0.92967   0.00000  Uiso   1.00
H1860  H     0.43421   0.52240   0.87440   0.00000  Uiso   1.00
H1861  H     0.38869   0.50427   0.84229   0.00000  Uiso   1.00
H1862  H     0.39204   0.71909   0.70339   0.00000  Uiso   1.00
H1863  H     0.39734   0.98359   0.90038   0.00000  Uiso   1.00
H1864  H     0.30384   0.65664   0.74900   0.00000  Uiso   1.00
H1865  H     0.24346   0.67412   0.79079   0.00000  Uiso   1.00
H1866  H     0.28561   0.69380   0.82638   0.00000  Uiso   1.00
H1867  H     0.26124   0.63991   0.83866   0.00000  Uiso   1.00
H1868  H     0.14098   0.91022   0.94549   0.00000  Uiso   1.00
H1869  H     0.12006   0.98679   0.94396   0.00000  Uiso   1.00
H1870  H     0.07887   0.95498   0.91676   0.00000  Uiso   1.00
H1871  H     0.11658   0.98573   0.88169   0.00000  Uiso   1.00
H1872  H     0.30778   0.84866   0.92252   0.00000  Uiso   1.00
H1873  H     0.08248   0.87096   0.94232   0.00000  Uiso   1.00
H1874  H     0.29307   0.80381   0.84957   0.00000  Uiso   1.00
H1875  H     0.26613   0.85445   0.83053   0.00000  Uiso   1.00
H1876  H     0.24888   0.82414   0.88134   0.00000  Uiso   1.00
H1877  H     0.15685   0.56749   0.73562   0.00000  Uiso   1.00
H1878  H     0.07798   0.53243   0.77864   0.00000  Uiso   1.00
H1879  H     0.12807   0.50678   0.79191   0.00000  Uiso   1.00
H1880  H     0.10826   0.50697   0.73334   0.00000  Uiso   1.00
H1881  H     0.18898   0.61205   0.92994   0.00000  Uiso   1.00
H1882  H     0.19258   0.69950   0.87689   0.00000  Uiso   1.00
H1883  H     0.23838   0.67885   0.90530   0.00000  Uiso   1.00
H1884  H     0.14673   0.82424   0.95100   0.00000  Uiso   1.00
H1885  H     0.19298   0.69060   0.93920   0.00000  Uiso   1.00
H1886  H     0.36336   0.97292   0.77298   0.00000  Uiso   1.00
H1887  H     0.44157   0.95583   0.77175   0.00000  Uiso   1.00
H1888  H     0.41707   0.98204   0.72188   0.00000  Uiso   1.00
H1889  H     0.42751   0.92320   0.72120   0.00000  Uiso   1.00
H1890  H     0.12173   0.78422   0.91352   0.00000  Uiso   1.00
H1891  H     0.09945   0.79555   0.96925   0.00000  Uiso   1.00
H1892  H     0.11579   0.80166   0.74239   0.00000  Uiso   1.00
N1893  N     0.00000   0.75000   0.95069   0.00000  Uiso   1.00
N1894  N     0.27836   0.61290   0.93534   0.00000  Uiso   1.00
N1895  N     0.23045   0.61504   0.72860   0.00000  Uiso   1.00
N1896  N     0.22905   0.88529   0.93782   0.00000  Uiso   1.00
N1897  N     0.37235   0.69795   0.76948   0.00000  Uiso   1.00
N1898  N     0.09090   0.84662   0.91916   0.00000  Uiso   1.00
N1899  N     0.10506   0.83346   0.74944   0.00000  Uiso   1.00
N1900  N     0.42990   0.62559   0.90900   0.00000  Uiso   1.00
N1901  N     0.10936   0.67128   0.91613   0.00000  Uiso   1.00
N1902  N     0.39662   0.84882   0.74755   0.00000  Uiso   1.00
N1903  N     0.37988   0.81183   0.90724   0.00000  Uiso   1.00
N1904  N     0.00000   0.75000   0.71598   0.00000  Uiso   1.00
N1905  N     0.09219   0.65372   0.74768   0.00000  Uiso   1.00
N1906  N     0.18679   0.87082   0.76409   0.00000  Uiso   1.00
N1907  N     0.37682   0.55033   0.89536   0.00000  Uiso   1.00
N1908  N     0.30122   0.64125   0.78100   0.00000  Uiso   1.00
N1909  N     0.13914   0.92654   0.91384   0.00000  Uiso   1.00
N1910  N     0.30442   0.86160   0.88947   0.00000  Uiso   1.00
N1911  N     0.13065   0.56900   0.75615   0.00000  Uiso   1.00
N1912  N     0.18983   0.63117   0.89996   0.00000  Uiso   1.00
N1913  N     0.37699   0.94307   0.76378   0.00000  Uiso   1.00
N1914  N     0.25000   0.50000   0.95069   0.00000  Uiso   1.00
N1915  N     0.25000   0.50000   0.71598   0.00000  Uiso   1.00
N1916  N     0.49855   0.63428   0.73675   0.00000  Uiso   1.00
N1917  N     0.49739   0.86564   0.92972   0.00000  Uiso   1.00
N1918  N     0.00361   0.86528   0.73433   0.00000  Uiso   1.00
N1919  N     0.01441   0.63547   0.93348   0.00000  Uiso   1.00
N1920  N     0.27579   0.88681   0.73210   0.00000  Uiso   1.00
O1921  O     0.04508   0.70491   0.87291   0.00000  Uiso   1.00
O1922  O     0.20491   0.54509   0.79375   0.00000  Uiso   1.00
O1923  O     0.20491   0.54509   0.87291   0.00000  Uiso   1.00
O1924  O     0.29508   0.95491   0.79375   0.00000  Uiso   1.00
O1925  O     0.20491   0.95491   0.79375   0.00000  Uiso   1.00
O1926  O     0.29508   0.54509   0.87291   0.00000  Uiso   1.00
O1927  O     0.29508   0.54509   0.79375   0.00000  Uiso   1.00
O1928  O     0.20491   0.95491   0.87291   0.00000  Uiso   1.00
O1929  O     0.45491   0.79509   0.79375   0.00000  Uiso   1.00
O1930  O     0.45491   0.79509   0.87291   0.00000  Uiso   1.00
O1931  O     0.04508   0.70491   0.79375   0.00000  Uiso   1.00
O1932  O     0.45491   0.70491   0.79375   0.00000  Uiso   1.00
O1933  O     0.04508   0.79509   0.87291   0.00000  Uiso   1.00
O1934  O     0.04508   0.79509   0.79375   0.00000  Uiso   1.00
O1935  O     0.45491   0.70491   0.87291   0.00000  Uiso   1.00
O1936  O     0.29508   0.95491   0.87291   0.00000  Uiso   1.00
C1937  C     0.56016   0.69136   0.83343   0.00000  Uiso   1.00
C1938  C     0.99936   0.78946   0.97472   0.00000  Uiso   1.00
C1939  C     0.50021   0.78944   0.69095   0.00000  Uiso   1.00
C1940  C     0.50205   0.71068   0.97580   0.00000  Uiso   1.00
C1941  C     0.75245   0.96087   0.69171   0.00000  Uiso   1.00
C1942  C     0.75326   0.53910   0.97500   0.00000  Uiso   1.00
C1943  C     0.74855   0.53920   0.69064   0.00000  Uiso   1.00
C1944  C     0.74778   0.96084   0.97604   0.00000  Uiso   1.00
C1945  C     0.87342   0.66102   0.80125   0.00000  Uiso   1.00
C1946  C     0.60605   0.86270   0.87571   0.00000  Uiso   1.00
C1947  C     0.61716   0.85140   0.79299   0.00000  Uiso   1.00
C1948  C     0.93971   0.80859   0.83301   0.00000  Uiso   1.00
C1949  C     0.90408   0.62367   0.86909   0.00000  Uiso   1.00
C1950  C     0.61938   0.65094   0.87315   0.00000  Uiso   1.00
C1951  C     0.89675   0.86794   0.79246   0.00000  Uiso   1.00
C1952  C     0.87687   0.84331   0.86987   0.00000  Uiso   1.00
C1953  C     0.60535   0.63679   0.79170   0.00000  Uiso   1.00
C1954  C     0.65365   0.87704   0.79631   0.00000  Uiso   1.00
C1955  C     0.87484   0.58883   0.86540   0.00000  Uiso   1.00
C1956  C     0.83967   0.63084   0.80364   0.00000  Uiso   1.00
C1957  C     0.63423   0.89859   0.87444   0.00000  Uiso   1.00
C1958  C     0.84248   0.87253   0.86643   0.00000  Uiso   1.00
C1959  C     0.94033   0.69066   0.83363   0.00000  Uiso   1.00
C1960  C     0.63166   0.59958   0.79369   0.00000  Uiso   1.00
C1961  C     0.65548   0.62454   0.86928   0.00000  Uiso   1.00
C1962  C     0.87354   0.90730   0.79751   0.00000  Uiso   1.00
C1963  C     0.59444   0.84167   0.83378   0.00000  Uiso   1.00
C1964  C     0.90586   0.65768   0.83437   0.00000  Uiso   1.00
C1965  C     0.90486   0.84106   0.83230   0.00000  Uiso   1.00
C1966  C     0.59517   0.65926   0.83306   0.00000  Uiso   1.00
C1967  C     0.84223   0.59302   0.83315   0.00000  Uiso   1.00
C1968  C     0.65902   0.90518   0.83455   0.00000  Uiso   1.00
C1969  C     0.65879   0.59454   0.83213   0.00000  Uiso   1.00
C1970  C     0.55978   0.80913   0.83330   0.00000  Uiso   1.00
C1971  C     0.84335   0.90778   0.83336   0.00000  Uiso   1.00
C1972  C     0.99965   0.66835   0.71702   0.00000  Uiso   1.00
C1973  C     0.99834   0.83163   0.94958   0.00000  Uiso   1.00
C1974  C     0.50205   0.83142   0.71516   0.00000  Uiso   1.00
C1975  C     0.50843   0.66907   0.95201   0.00000  Uiso   1.00
C1976  C     0.76465   0.91983   0.71465   0.00000  Uiso   1.00
C1977  C     0.76643   0.57999   0.95236   0.00000  Uiso   1.00
C1978  C     0.73932   0.58104   0.71256   0.00000  Uiso   1.00
C1979  C     0.73811   0.91915   0.95404   0.00000  Uiso   1.00
C1980  C     0.88580   0.68751   0.72299   0.00000  Uiso   1.00
C1981  C     0.80982   0.94121   0.83342   0.00000  Uiso   1.00
C1982  C     0.61610   0.81091   0.93928   0.00000  Uiso   1.00
C1983  C     0.60323   0.86443   0.71035   0.00000  Uiso   1.00
C1984  C     0.90956   0.64657   0.94804   0.00000  Uiso   1.00
C1985  C     0.61037   0.64298   0.95735   0.00000  Uiso   1.00
C1986  C     0.86614   0.81341   0.74217   0.00000  Uiso   1.00
C1987  C     0.89235   0.83081   0.95101   0.00000  Uiso   1.00
C1988  C     0.61724   0.69114   0.73101   0.00000  Uiso   1.00
C1989  C     0.70028   0.82481   0.75659   0.00000  Uiso   1.00
C1990  C     0.90059   0.51332   0.87704   0.00000  Uiso   1.00
C1991  C     0.77147   0.66342   0.81083   0.00000  Uiso   1.00
C1992  C     0.69121   0.55997   0.83300   0.00000  Uiso   1.00
C1993  C     0.61213   0.96547   0.91393   0.00000  Uiso   1.00
C1994  C     0.77681   0.83467   0.86122   0.00000  Uiso   1.00
C1995  C     0.61024   0.52660   0.76571   0.00000  Uiso   1.00
C1996  C     0.70385   0.67726   0.90558   0.00000  Uiso   1.00
C1997  C     0.91799   0.95113   0.74386   0.00000  Uiso   1.00
C1998  C     0.69149   0.93973   0.83362   0.00000  Uiso   1.00
C1999  C     0.80901   0.55955   0.83317   0.00000  Uiso   1.00
C2000  C     0.50064   0.71058   0.69196   0.00000  Uiso   1.00
Cu2001 Cu    0.50000   0.75000   0.88022   0.00000  Uiso   1.00
Cu2002 Cu    0.50000   0.75000   0.78645   0.00000  Uiso   1.00
Cu2003 Cu    0.75000   0.50000   0.88022   0.00000  Uiso   1.00
Cu2004 Cu    0.75000   0.50000   0.78645   0.00000  Uiso   1.00
H2005  H     0.84471   0.71576   0.76993   0.00000  Uiso   1.00
H2006  H     0.63279   0.86343   0.69042   0.00000  Uiso   1.00
H2007  H     0.59691   0.89930   0.72171   0.00000  Uiso   1.00
H2008  H     0.57767   0.85435   0.68700   0.00000  Uiso   1.00
H2009  H     0.94359   0.59534   0.91786   0.00000  Uiso   1.00
H2010  H     0.93017   0.64445   0.97889   0.00000  Uiso   1.00
H2011  H     0.87968   0.62944   0.95678   0.00000  Uiso   1.00
H2012  H     0.90299   0.68247   0.94012   0.00000  Uiso   1.00
H2013  H     0.61879   0.70403   0.92006   0.00000  Uiso   1.00
H2014  H     0.64022   0.64730   0.97628   0.00000  Uiso   1.00
H2015  H     0.60591   0.60702   0.94884   0.00000  Uiso   1.00
H2016  H     0.86139   0.66831   0.70447   0.00000  Uiso   1.00
H2017  H     0.58479   0.65297   0.98057   0.00000  Uiso   1.00
H2018  H     0.92527   0.84124   0.73408   0.00000  Uiso   1.00
H2019  H     0.87395   0.78501   0.76565   0.00000  Uiso   1.00
H2020  H     0.86609   0.80122   0.70617   0.00000  Uiso   1.00
H2021  H     0.83432   0.82575   0.75059   0.00000  Uiso   1.00
H2022  H     0.85520   0.78970   0.90991   0.00000  Uiso   1.00
H2023  H     0.86479   0.84421   0.96960   0.00000  Uiso   1.00
H2024  H     0.91500   0.85860   0.94577   0.00000  Uiso   1.00
H2025  H     0.90744   0.80432   0.97261   0.00000  Uiso   1.00
H2026  H     0.58722   0.62980   0.72287   0.00000  Uiso   1.00
H2027  H     0.91488   0.66732   0.72397   0.00000  Uiso   1.00
H2028  H     0.64873   0.67919   0.72050   0.00000  Uiso   1.00
H2029  H     0.62101   0.71684   0.75825   0.00000  Uiso   1.00
H2030  H     0.60155   0.70760   0.70096   0.00000  Uiso   1.00
H2031  H     0.68549   0.89108   0.73492   0.00000  Uiso   1.00
H2032  H     0.69200   0.81434   0.72094   0.00000  Uiso   1.00
H2033  H     0.68615   0.80091   0.78202   0.00000  Uiso   1.00
H2034  H     0.73455   0.82200   0.76099   0.00000  Uiso   1.00
H2035  H     0.88331   0.55640   0.92967   0.00000  Uiso   1.00
H2036  H     0.93421   0.52240   0.87440   0.00000  Uiso   1.00
H2037  H     0.88869   0.50427   0.84229   0.00000  Uiso   1.00
H2038  H     0.89204   0.71909   0.70339   0.00000  Uiso   1.00
H2039  H     0.89734   0.98359   0.90038   0.00000  Uiso   1.00
H2040  H     0.80384   0.65664   0.74900   0.00000  Uiso   1.00
H2041  H     0.74346   0.67412   0.79079   0.00000  Uiso   1.00
H2042  H     0.78561   0.69380   0.82638   0.00000  Uiso   1.00
H2043  H     0.76124   0.63991   0.83866   0.00000  Uiso   1.00
H2044  H     0.64098   0.91022   0.94549   0.00000  Uiso   1.00
H2045  H     0.62006   0.98679   0.94396   0.00000  Uiso   1.00
H2046  H     0.57887   0.95498   0.91676   0.00000  Uiso   1.00
H2047  H     0.61658   0.98573   0.88169   0.00000  Uiso   1.00
H2048  H     0.80778   0.84866   0.92252   0.00000  Uiso   1.00
H2049  H     0.58248   0.87096   0.94232   0.00000  Uiso   1.00
H2050  H     0.79307   0.80381   0.84957   0.00000  Uiso   1.00
H2051  H     0.76613   0.85445   0.83053   0.00000  Uiso   1.00
H2052  H     0.74888   0.82414   0.88134   0.00000  Uiso   1.00
H2053  H     0.65685   0.56749   0.73562   0.00000  Uiso   1.00
H2054  H     0.57798   0.53243   0.77864   0.00000  Uiso   1.00
H2055  H     0.62807   0.50678   0.79191   0.00000  Uiso   1.00
H2056  H     0.60826   0.50697   0.73334   0.00000  Uiso   1.00
H2057  H     0.68898   0.61205   0.92994   0.00000  Uiso   1.00
H2058  H     0.69258   0.69950   0.87689   0.00000  Uiso   1.00
H2059  H     0.73838   0.67885   0.90530   0.00000  Uiso   1.00
H2060  H     0.64673   0.82424   0.95100   0.00000  Uiso   1.00
H2061  H     0.69298   0.69060   0.93920   0.00000  Uiso   1.00
H2062  H     0.86336   0.97292   0.77298   0.00000  Uiso   1.00
H2063  H     0.94157   0.95583   0.77175   0.00000  Uiso   1.00
H2064  H     0.91707   0.98204   0.72188   0.00000  Uiso   1.00
H2065  H     0.92751   0.92320   0.72120   0.00000  Uiso   1.00
H2066  H     0.62173   0.78422   0.91352   0.00000  Uiso   1.00
H2067  H     0.59945   0.79555   0.96925   0.00000  Uiso   1.00
H2068  H     0.61579   0.80166   0.74239   0.00000  Uiso   1.00
N2069  N     0.50000   0.75000   0.95069   0.00000  Uiso   1.00
N2070  N     0.77836   0.61290   0.93534   0.00000  Uiso   1.00
N2071  N     0.73045   0.61504   0.72860   0.00000  Uiso   1.00
N2072  N     0.72905   0.88529   0.93782   0.00000  Uiso   1.00
N2073  N     0.87235   0.69795   0.76948   0.00000  Uiso   1.00
N2074  N     0.59090   0.84662   0.91916   0.00000  Uiso   1.00
N2075  N     0.60506   0.83346   0.74944   0.00000  Uiso   1.00
N2076  N     0.92990   0.62559   0.90900   0.00000  Uiso   1.00
N2077  N     0.60936   0.67128   0.91613   0.00000  Uiso   1.00
N2078  N     0.89662   0.84882   0.74755   0.00000  Uiso   1.00
N2079  N     0.87988   0.81183   0.90724   0.00000  Uiso   1.00
N2080  N     0.50000   0.75000   0.71598   0.00000  Uiso   1.00
N2081  N     0.59219   0.65372   0.74768   0.00000  Uiso   1.00
N2082  N     0.68679   0.87082   0.76409   0.00000  Uiso   1.00
N2083  N     0.87682   0.55033   0.89536   0.00000  Uiso   1.00
N2084  N     0.80122   0.64125   0.78100   0.00000  Uiso   1.00
N2085  N     0.63914   0.92654   0.91384   0.00000  Uiso   1.00
N2086  N     0.80442   0.86160   0.88947   0.00000  Uiso   1.00
N2087  N     0.63065   0.56900   0.75615   0.00000  Uiso   1.00
N2088  N     0.68983   0.63117   0.89996   0.00000  Uiso   1.00
N2089  N     0.87699   0.94307   0.76378   0.00000  Uiso   1.00
N2090  N     0.75000   0.50000   0.95069   0.00000  Uiso   1.00
N2091  N     0.75000   0.50000   0.71598   0.00000  Uiso   1.00
N2092  N     0.99855   0.63428   0.73675   0.00000  Uiso   1.00
N2093  N     0.99739   0.86564   0.92972   0.00000  Uiso   1.00
N2094  N     0.50361   0.86528   0.73433   0.00000  Uiso   1.00
N2095  N     0.51441   0.63547   0.93348   0.00000  Uiso   1.00
N2096  N     0.77579   0.88681   0.73210   0.00000  Uiso   1.00
O2097  O     0.54508   0.70491   0.87291   0.00000  Uiso   1.00
O2098  O     0.70491   0.54509   0.79375   0.00000  Uiso   1.00
O2099  O     0.70491   0.54509   0.87291   0.00000  Uiso   1.00
O2100  O     0.79508   0.95491   0.79375   0.00000  Uiso   1.00
O2101  O     0.70491   0.95491   0.79375   0.00000  Uiso   1.00
O2102  O     0.79508   0.54509   0.87291   0.00000  Uiso   1.00
O2103  O     0.79508   0.54509   0.79375   0.00000  Uiso   1.00
O2104  O     0.70491   0.95491   0.87291   0.00000  Uiso   1.00
O2105  O     0.95491   0.79509   0.79375   0.00000  Uiso   1.00
O2106  O     0.95491   0.79509   0.87291   0.00000  Uiso   1.00
O2107  O     0.54508   0.70491   0.79375   0.00000  Uiso   1.00
O2108  O     0.95491   0.70491   0.79375   0.00000  Uiso   1.00
O2109  O     0.54508   0.79509   0.87291   0.00000  Uiso   1.00
O2110  O     0.54508   0.79509   0.79375   0.00000  Uiso   1.00
O2111  O     0.95491   0.70491   0.87291   0.00000  Uiso   1.00
O2112  O     0.79508   0.95491   0.87291   0.00000  Uiso   1.00
loop_
_geom_bond_atom_site_label_1
_geom_bond_atom_site_label_2
_geom_bond_distance
_geom_bond_site_symmetry_2
_ccdc_geom_bond_type
C1     C30     1.471   .     S
C1     O161    1.306   .     A
C1     O171    1.300   .     A
C2     C37     1.443   .     S
C2     C883    1.430   .     S
C2     N309    1.373   .     S
C3     C38     1.443   .     S
C3     N144    1.371   .     A
C3     C1586   1.430   1_454 S
C4     C39     1.440   .     S
C4     N133    1.371   .     A
C4     C768    1.428   .     S
C5     N507    1.371   .     A
C5     C40     1.436   .     S
C5     C1416   1.421   1_554 S
C6     C41     1.438   .     S
C6     C711    1.421   .     S
C6     N154    1.372   .     S
C7     C42     1.436   .     S
C7     C1414   1.421   1_554 S
C7     N155    1.370   .     S
C8     C43     1.437   .     S
C8     N506    1.371   .     A
C8     C709    1.421   .     S
C9     N137    1.423   .     S
C9     C20     1.406   .     A
C9     C28     1.411   .     A
C10    C27     1.419   .     A
C10    C21     1.399   .     A
C10    N138    1.422   .     S
C11    C18     1.399   .     A
C11    N139    1.425   .     S
C11    C27     1.410   .     A
C12    C29     1.475   .     S
C12    O170    1.307   .     A
C12    O169    1.302   .     A
C13    C28     1.416   .     A
C13    N140    1.417   .     S
C13    C19     1.403   .     A
C14    N141    1.424   .     S
C14    C30     1.410   .     A
C14    C25     1.401   .     A
C15    C29     1.416   .     A
C15    C26     1.397   .     A
C15    N142    1.422   .     S
C16    N143    1.423   .     S
C16    C29     1.409   .     A
C16    C22     1.404   .     A
C17    C30     1.414   .     A
C17    C24     1.392   .     A
C17    N145    1.423   .     S
C18    C32     1.405   .     A
C18    N146    1.424   .     S
C19    C31     1.400   .     A
C19    N147    1.428   .     S
C20    N148    1.423   .     S
C20    C31     1.405   .     A
C21    N149    1.427   .     S
C21    C32     1.410   .     A
C22    N150    1.423   .     S
C22    C35     1.410   .     A
C23    O172    1.308   .     A
C23    C28     1.477   .     S
C23    O175    1.301   .     A
C24    N151    1.425   .     S
C24    C33     1.413   .     A
C25    N152    1.425   .     S
C25    C33     1.409   .     A
C26    C35     1.416   .     A
C26    N153    1.438   .     S
C27    C34     1.473   .     S
C31    C63     1.458   .     S
C32    C62     1.463   .     S
C33    C56     1.461   .     S
C34    O174    1.307   .     A
C34    O173    1.300   .     A
C35    C45     1.462   .     S
C36    N156    1.158   .     T
C36    C240    1.443   .     S
C37    N157    1.158   .     T
C38    N158    1.158   .     T
C39    N159    1.157   .     T
C40    N160    1.155   .     T
C41    N134    1.156   .     T
C42    N135    1.155   .     T
C43    N136    1.155   .     T
C44    N137    1.447   .     S
C44    H80     1.109   .     S
C44    H102    1.110   .     S
C44    H91     1.107   .     S
C45    O164    1.297   .     A
C45    O176    1.304   .     A
C46    N138    1.449   .     S
C46    H124    1.111   .     S
C46    H131    1.110   .     S
C46    H130    1.111   .     S
C47    H70     1.107   .     S
C47    H71     1.112   .     S
C47    H72     1.103   .     S
C47    N139    1.449   .     S
C48    H75     1.111   .     S
C48    N140    1.450   .     S
C48    H74     1.108   .     S
C48    H76     1.111   .     S
C49    H81     1.101   .     S
C49    H78     1.107   .     S
C49    N141    1.449   .     S
C49    H79     1.112   .     S
C50    N142    1.447   .     S
C50    H84     1.105   .     S
C50    H85     1.109   .     S
C50    H83     1.105   .     S
C51    H87     1.109   .     S
C51    N143    1.446   .     S
C51    H88     1.110   .     S
C51    H89     1.109   .     S
C52    H94     1.109   .     S
C52    N145    1.451   .     S
C52    H93     1.111   .     S
C52    H92     1.111   .     S
C53    H96     1.111   .     S
C53    H97     1.112   .     S
C53    H98     1.105   .     S
C53    N146    1.456   .     S
C54    H101    1.108   .     S
C54    N147    1.445   .     S
C54    H100    1.111   .     S
C54    H455    1.110   1_545 S
C55    H105    1.109   .     S
C55    H106    1.112   .     S
C55    H107    1.108   .     S
C55    N148    1.448   .     S
C56    O163    1.303   .     A
C56    O162    1.298   .     A
C57    H109    1.111   .     S
C57    H110    1.111   .     S
C57    N149    1.446   .     S
C57    H111    1.111   .     S
C58    H116    1.109   .     S
C58    H115    1.110   .     S
C58    H114    1.112   .     S
C58    N150    1.451   .     S
C59    H120    1.110   .     S
C59    H119    1.110   .     S
C59    H118    1.111   .     S
C59    N151    1.446   .     S
C60    H125    1.109   .     S
C60    N152    1.456   .     S
C60    H123    1.105   .     S
C60    H122    1.113   .     S
C61    H129    1.108   .     S
C61    H127    1.112   .     S
C61    N153    1.451   .     S
C61    H128    1.111   .     S
C62    O168    1.299   .     A
C62    O165    1.303   .     A
C63    O166    1.299   .     A
C63    O167    1.300   .     A
C64    N144    1.372   .     A
C64    C212    1.443   1_455 S
C64    C1412   1.428   1_554 S
Cu65   O173    1.981   .     S
Cu65   O161    1.983   .     S
Cu65   Cu66    2.705   .     S
Cu65   N133    2.033   .     S
Cu65   O346    1.979   1_455 S
Cu65   O351    1.984   1_455 S
Cu66   N144    2.033   .     S
Cu66   O171    1.979   .     S
Cu66   O174    1.984   .     S
Cu66   O345    1.983   1_455 S
Cu66   O348    1.981   1_455 S
Cu67   O520    1.984   1_545 S
Cu67   N154    2.033   .     S
Cu67   Cu68    2.705   .     S
Cu67   O528    1.983   1_545 S
Cu67   O163    1.979   .     S
Cu67   O166    1.981   .     S
Cu68   N155    2.033   .     S
Cu68   O517    1.981   1_545 S
Cu68   O516    1.979   1_545 S
Cu68   O162    1.983   .     S
Cu68   O167    1.984   .     S
H69    N137    1.030   .     S
H73    N140    1.031   .     S
H77    N141    1.030   .     S
H82    N142    1.022   .     S
H86    N143    1.031   .     S
H90    N145    1.029   .     S
H95    N146    1.030   .     S
H99    N147    1.030   .     S
H103   C406    1.110   .     S
H104   N148    1.029   .     S
H108   N149    1.030   .     S
H112   N150    1.029   .     S
H113   N138    1.029   .     S
H117   N151    1.028   .     S
H121   N152    1.030   .     S
H126   N153    1.028   .     S
H132   N139    1.031   .     S
N133   C178    1.373   1_455 S
N154   C360    1.371   1_545 A
N155   C357    1.371   1_545 A
O164   Cu420   1.979   .     S
O165   Cu420   1.981   .     S
O168   Cu419   1.984   .     S
O169   Cu242   1.983   .     S
O170   Cu241   1.979   .     S
O172   Cu242   1.981   .     S
O175   Cu241   1.984   .     S
O176   Cu419   1.983   .     S
C177   C206    1.471   .     S
C177   O337    1.306   .     A
C177   O347    1.300   .     A
C178   C213    1.443   .     S
C178   C707    1.430   1_655 S
C178   N133    1.373   1_655 S
C179   C214    1.443   .     S
C179   N320    1.371   .     A
C179   C1410   1.430   1_554 S
C180   C215    1.440   .     S
C180   N309    1.371   .     A
C180   C944    1.428   .     S
C181   N683    1.371   .     A
C181   C216    1.436   .     S
C181   C1592   1.421   1_554 S
C182   C217    1.438   .     S
C182   C887    1.421   .     S
C182   N330    1.372   .     S
C183   C218    1.436   .     S
C183   C1590   1.421   1_554 S
C183   N331    1.370   .     S
C184   C219    1.437   .     S
C184   N682    1.371   .     A
C184   C885    1.421   .     S
C185   N313    1.423   .     S
C185   C196    1.406   .     A
C185   C204    1.411   .     A
C186   C203    1.419   .     A
C186   C197    1.399   .     A
C186   N314    1.422   .     S
C187   C194    1.399   .     A
C187   N315    1.425   .     S
C187   C203    1.410   .     A
C188   C205    1.475   .     S
C188   O346    1.307   .     A
C188   O345    1.302   .     A
C189   C204    1.416   .     A
C189   N316    1.417   .     S
C189   C195    1.403   .     A
C190   N317    1.424   .     S
C190   C206    1.410   .     A
C190   C201    1.401   .     A
C191   C205    1.416   .     A
C191   C202    1.397   .     A
C191   N318    1.422   .     S
C192   N319    1.423   .     S
C192   C205    1.409   .     A
C192   C198    1.404   .     A
C193   C206    1.414   .     A
C193   C200    1.392   .     A
C193   N321    1.423   .     S
C194   C208    1.405   .     A
C194   N322    1.424   .     S
C195   C207    1.400   .     A
C195   N323    1.428   .     S
C196   N324    1.423   .     S
C196   C207    1.405   .     A
C197   N325    1.427   .     S
C197   C208    1.410   .     A
C198   N326    1.423   .     S
C198   C211    1.410   .     A
C199   O348    1.308   .     A
C199   C204    1.477   .     S
C199   O351    1.301   .     A
C200   N327    1.425   .     S
C200   C209    1.413   .     A
C201   N328    1.425   .     S
C201   C209    1.409   .     A
C202   C211    1.416   .     A
C202   N329    1.438   .     S
C203   C210    1.473   .     S
C207   C239    1.458   .     S
C208   C238    1.463   .     S
C209   C232    1.461   .     S
C210   O350    1.307   .     A
C210   O349    1.300   .     A
C211   C221    1.462   .     S
C212   N332    1.158   .     T
C212   C64     1.443   1_655 S
C213   N333    1.158   .     T
C214   N334    1.158   .     T
C215   N335    1.157   .     T
C216   N336    1.155   .     T
C217   N310    1.156   .     T
C218   N311    1.155   .     T
C219   N312    1.155   .     T
C220   N313    1.447   .     S
C220   H256    1.109   .     S
C220   H278    1.110   .     S
C220   H267    1.107   .     S
C221   O340    1.297   .     A
C221   O352    1.304   .     A
C222   N314    1.449   .     S
C222   H300    1.111   .     S
C222   H307    1.110   .     S
C222   H306    1.111   .     S
C223   H246    1.107   .     S
C223   H247    1.112   .     S
C223   H248    1.103   .     S
C223   N315    1.449   .     S
C224   H251    1.111   .     S
C224   N316    1.450   .     S
C224   H250    1.108   .     S
C224   H252    1.111   .     S
C225   H257    1.101   .     S
C225   H254    1.107   .     S
C225   N317    1.449   .     S
C225   H255    1.112   .     S
C226   N318    1.447   .     S
C226   H260    1.105   .     S
C226   H261    1.109   .     S
C226   H259    1.105   .     S
C227   H263    1.109   .     S
C227   N319    1.446   .     S
C227   H264    1.110   .     S
C227   H265    1.109   .     S
C228   H270    1.109   .     S
C228   N321    1.451   .     S
C228   H269    1.111   .     S
C228   H268    1.111   .     S
C229   H272    1.111   .     S
C229   H273    1.112   .     S
C229   H274    1.105   .     S
C229   N322    1.456   .     S
C230   H277    1.108   .     S
C230   N323    1.445   .     S
C230   H276    1.111   .     S
C230   H631    1.110   1_545 S
C231   H281    1.109   .     S
C231   H282    1.112   .     S
C231   H283    1.108   .     S
C231   N324    1.448   .     S
C232   O339    1.303   .     A
C232   O338    1.298   .     A
C233   H285    1.111   .     S
C233   H286    1.111   .     S
C233   N325    1.446   .     S
C233   H287    1.111   .     S
C234   H292    1.109   .     S
C234   H291    1.110   .     S
C234   H290    1.112   .     S
C234   N326    1.451   .     S
C235   H296    1.110   .     S
C235   H295    1.110   .     S
C235   H294    1.111   .     S
C235   N327    1.446   .     S
C236   H301    1.109   .     S
C236   N328    1.456   .     S
C236   H299    1.105   .     S
C236   H298    1.113   .     S
C237   H305    1.108   .     S
C237   H303    1.112   .     S
C237   N329    1.451   .     S
C237   H304    1.111   .     S
C238   O344    1.299   .     A
C238   O341    1.303   .     A
C239   O342    1.299   .     A
C239   O343    1.300   .     A
C240   N320    1.372   .     A
C240   C1588   1.428   1_554 S
Cu241  O349    1.981   .     S
Cu241  O337    1.983   .     S
Cu241  Cu242   2.705   .     S
Cu241  N309    2.033   .     S
Cu242  N320    2.033   .     S
Cu242  O347    1.979   .     S
Cu242  O350    1.984   .     S
Cu243  O696    1.984   1_545 S
Cu243  N330    2.033   .     S
Cu243  Cu244   2.705   .     S
Cu243  O704    1.983   1_545 S
Cu243  O339    1.979   .     S
Cu243  O342    1.981   .     S
Cu244  N331    2.033   .     S
Cu244  O693    1.981   1_545 S
Cu244  O692    1.979   1_545 S
Cu244  O338    1.983   .     S
Cu244  O343    1.984   .     S
H245   N313    1.030   .     S
H249   N316    1.031   .     S
H253   N317    1.030   .     S
H258   N318    1.022   .     S
H262   N319    1.031   .     S
H266   N321    1.029   .     S
H271   N322    1.030   .     S
H275   N323    1.030   .     S
H279   C582    1.110   .     S
H280   N324    1.029   .     S
H284   N325    1.030   .     S
H288   N326    1.029   .     S
H289   N314    1.029   .     S
H293   N327    1.028   .     S
H297   N328    1.030   .     S
H302   N329    1.028   .     S
H308   N315    1.031   .     S
N330   C536    1.371   1_545 A
N331   C533    1.371   1_545 A
O340   Cu596   1.979   .     S
O341   Cu596   1.981   .     S
O344   Cu595   1.984   .     S
O345   Cu66    1.983   1_655 S
O346   Cu65    1.979   1_655 S
O348   Cu66    1.981   1_655 S
O351   Cu65    1.984   1_655 S
O352   Cu595   1.983   .     S
C353   C382    1.471   .     S
C353   O513    1.306   .     A
C353   O523    1.300   .     A
C354   C389    1.443   .     S
C354   C1235   1.430   .     S
C354   N661    1.373   .     S
C355   C390    1.443   .     S
C355   N496    1.371   .     A
C355   C1938   1.430   1_454 S
C356   C391    1.440   .     S
C356   N485    1.371   .     A
C356   C1120   1.428   .     S
C357   N155    1.371   1_565 A
C357   C392    1.436   .     S
C357   C1768   1.421   1_554 S
C358   C393    1.438   .     S
C358   C1063   1.421   .     S
C358   N506    1.372   .     S
C359   C394    1.436   .     S
C359   C1766   1.421   1_554 S
C359   N507    1.370   .     S
C360   C395    1.437   .     S
C360   N154    1.371   1_565 A
C360   C1061   1.421   .     S
C361   N489    1.423   .     S
C361   C372    1.406   .     A
C361   C380    1.411   .     A
C362   C379    1.419   .     A
C362   C373    1.399   .     A
C362   N490    1.422   .     S
C363   C370    1.399   .     A
C363   N491    1.425   .     S
C363   C379    1.410   .     A
C364   C381    1.475   .     S
C364   O522    1.307   .     A
C364   O521    1.302   .     A
C365   C380    1.416   .     A
C365   N492    1.417   .     S
C365   C371    1.403   .     A
C366   N493    1.424   .     S
C366   C382    1.410   .     A
C366   C377    1.401   .     A
C367   C381    1.416   .     A
C367   C378    1.397   .     A
C367   N494    1.422   .     S
C368   N495    1.423   .     S
C368   C381    1.409   .     A
C368   C374    1.404   .     A
C369   C382    1.414   .     A
C369   C376    1.392   .     A
C369   N497    1.423   .     S
C370   C384    1.405   .     A
C370   N498    1.424   .     S
C371   C383    1.400   .     A
C371   N499    1.428   .     S
C372   N500    1.423   .     S
C372   C383    1.405   .     A
C373   N501    1.427   .     S
C373   C384    1.410   .     A
C374   N502    1.423   .     S
C374   C387    1.410   .     A
C375   O524    1.308   .     A
C375   C380    1.477   .     S
C375   O527    1.301   .     A
C376   N503    1.425   .     S
C376   C385    1.413   .     A
C377   N504    1.425   .     S
C377   C385    1.409   .     A
C378   C387    1.416   .     A
C378   N505    1.438   .     S
C379   C386    1.473   .     S
C383   C415    1.458   .     S
C384   C414    1.463   .     S
C385   C408    1.461   .     S
C386   O526    1.307   .     A
C386   O525    1.300   .     A
C387   C397    1.462   .     S
C388   N508    1.158   .     T
C388   C592    1.443   .     S
C389   N509    1.158   .     T
C390   N510    1.158   .     T
C391   N511    1.157   .     T
C392   N512    1.155   .     T
C393   N486    1.156   .     T
C394   N487    1.155   .     T
C395   N488    1.155   .     T
C396   N489    1.447   .     S
C396   H432    1.109   .     S
C396   H454    1.110   .     S
C396   H443    1.107   .     S
C397   O516    1.297   .     A
C397   O528    1.304   .     A
C398   N490    1.449   .     S
C398   H476    1.111   .     S
C398   H483    1.110   .     S
C398   H482    1.111   .     S
C399   H422    1.107   .     S
C399   H423    1.112   .     S
C399   H424    1.103   .     S
C399   N491    1.449   .     S
C400   H427    1.111   .     S
C400   N492    1.450   .     S
C400   H426    1.108   .     S
C400   H428    1.111   .     S
C401   H433    1.101   .     S
C401   H430    1.107   .     S
C401   N493    1.449   .     S
C401   H431    1.112   .     S
C402   N494    1.447   .     S
C402   H436    1.105   .     S
C402   H437    1.109   .     S
C402   H435    1.105   .     S
C403   H439    1.109   .     S
C403   N495    1.446   .     S
C403   H440    1.110   .     S
C403   H441    1.109   .     S
C404   H446    1.109   .     S
C404   N497    1.451   .     S
C404   H445    1.111   .     S
C404   H444    1.111   .     S
C405   H448    1.111   .     S
C405   H449    1.112   .     S
C405   H450    1.105   .     S
C405   N498    1.456   .     S
C406   H453    1.108   .     S
C406   N499    1.445   .     S
C406   H452    1.111   .     S
C407   H457    1.109   .     S
C407   H458    1.112   .     S
C407   H459    1.108   .     S
C407   N500    1.448   .     S
C408   O515    1.303   .     A
C408   O514    1.298   .     A
C409   H461    1.111   .     S
C409   H462    1.111   .     S
C409   N501    1.446   .     S
C409   H463    1.111   .     S
C410   H468    1.109   .     S
C410   H467    1.110   .     S
C410   H466    1.112   .     S
C410   N502    1.451   .     S
C411   H472    1.110   .     S
C411   H471    1.110   .     S
C411   H470    1.111   .     S
C411   N503    1.446   .     S
C412   H477    1.109   .     S
C412   N504    1.456   .     S
C412   H475    1.105   .     S
C412   H474    1.113   .     S
C413   H481    1.108   .     S
C413   H479    1.112   .     S
C413   N505    1.451   .     S
C413   H480    1.111   .     S
C414   O520    1.299   .     A
C414   O517    1.303   .     A
C415   O518    1.299   .     A
C415   O519    1.300   .     A
C416   N496    1.372   .     A
C416   C564    1.443   1_455 S
C416   C1764   1.428   1_554 S
Cu417  O525    1.981   .     S
Cu417  O513    1.983   .     S
Cu417  Cu418   2.705   .     S
Cu417  N485    2.033   .     S
Cu417  O698    1.979   1_455 S
Cu417  O703    1.984   1_455 S
Cu418  N496    2.033   .     S
Cu418  O523    1.979   .     S
Cu418  O526    1.984   .     S
Cu418  O697    1.983   1_455 S
Cu418  O700    1.981   1_455 S
Cu419  N506    2.033   .     S
Cu419  Cu420   2.705   .     S
Cu419  O515    1.979   .     S
Cu419  O518    1.981   .     S
Cu420  N507    2.033   .     S
Cu420  O514    1.983   .     S
Cu420  O519    1.984   .     S
H421   N489    1.030   .     S
H425   N492    1.031   .     S
H429   N493    1.030   .     S
H434   N494    1.022   .     S
H438   N495    1.031   .     S
H442   N497    1.029   .     S
H447   N498    1.030   .     S
H451   N499    1.030   .     S
H455   C54     1.110   1_565 S
H456   N500    1.029   .     S
H460   N501    1.030   .     S
H464   N502    1.029   .     S
H465   N490    1.029   .     S
H469   N503    1.028   .     S
H473   N504    1.030   .     S
H478   N505    1.028   .     S
H484   N491    1.031   .     S
N485   C530    1.373   1_455 S
O516   Cu68    1.979   1_565 S
O517   Cu68    1.981   1_565 S
O520   Cu67    1.984   1_565 S
O521   Cu594   1.983   .     S
O522   Cu593   1.979   .     S
O524   Cu594   1.981   .     S
O527   Cu593   1.984   .     S
O528   Cu67    1.983   1_565 S
C529   C558    1.471   .     S
C529   O689    1.306   .     A
C529   O699    1.300   .     A
C530   C565    1.443   .     S
C530   C1059   1.430   1_655 S
C530   N485    1.373   1_655 S
C531   C566    1.443   .     S
C531   N672    1.371   .     A
C531   C1762   1.430   1_554 S
C532   C567    1.440   .     S
C532   N661    1.371   .     A
C532   C1296   1.428   .     S
C533   N331    1.371   1_565 A
C533   C568    1.436   .     S
C533   C1944   1.421   1_554 S
C534   C569    1.438   .     S
C534   C1239   1.421   .     S
C534   N682    1.372   .     S
C535   C570    1.436   .     S
C535   C1942   1.421   1_554 S
C535   N683    1.370   .     S
C536   C571    1.437   .     S
C536   N330    1.371   1_565 A
C536   C1237   1.421   .     S
C537   N665    1.423   .     S
C537   C548    1.406   .     A
C537   C556    1.411   .     A
C538   C555    1.419   .     A
C538   C549    1.399   .     A
C538   N666    1.422   .     S
C539   C546    1.399   .     A
C539   N667    1.425   .     S
C539   C555    1.410   .     A
C540   C557    1.475   .     S
C540   O698    1.307   .     A
C540   O697    1.302   .     A
C541   C556    1.416   .     A
C541   N668    1.417   .     S
C541   C547    1.403   .     A
C542   N669    1.424   .     S
C542   C558    1.410   .     A
C542   C553    1.401   .     A
C543   C557    1.416   .     A
C543   C554    1.397   .     A
C543   N670    1.422   .     S
C544   N671    1.423   .     S
C544   C557    1.409   .     A
C544   C550    1.404   .     A
C545   C558    1.414   .     A
C545   C552    1.392   .     A
C545   N673    1.423   .     S
C546   C560    1.405   .     A
C546   N674    1.424   .     S
C547   C559    1.400   .     A
C547   N675    1.428   .     S
C548   N676    1.423   .     S
C548   C559    1.405   .     A
C549   N677    1.427   .     S
C549   C560    1.410   .     A
C550   N678    1.423   .     S
C550   C563    1.410   .     A
C551   O700    1.308   .     A
C551   C556    1.477   .     S
C551   O703    1.301   .     A
C552   N679    1.425   .     S
C552   C561    1.413   .     A
C553   N680    1.425   .     S
C553   C561    1.409   .     A
C554   C563    1.416   .     A
C554   N681    1.438   .     S
C555   C562    1.473   .     S
C559   C591    1.458   .     S
C560   C590    1.463   .     S
C561   C584    1.461   .     S
C562   O702    1.307   .     A
C562   O701    1.300   .     A
C563   C573    1.462   .     S
C564   N684    1.158   .     T
C564   C416    1.443   1_655 S
C565   N685    1.158   .     T
C566   N686    1.158   .     T
C567   N687    1.157   .     T
C568   N688    1.155   .     T
C569   N662    1.156   .     T
C570   N663    1.155   .     T
C571   N664    1.155   .     T
C572   N665    1.447   .     S
C572   H608    1.109   .     S
C572   H630    1.110   .     S
C572   H619    1.107   .     S
C573   O692    1.297   .     A
C573   O704    1.304   .     A
C574   N666    1.449   .     S
C574   H652    1.111   .     S
C574   H659    1.110   .     S
C574   H658    1.111   .     S
C575   H598    1.107   .     S
C575   H599    1.112   .     S
C575   H600    1.103   .     S
C575   N667    1.449   .     S
C576   H603    1.111   .     S
C576   N668    1.450   .     S
C576   H602    1.108   .     S
C576   H604    1.111   .     S
C577   H609    1.101   .     S
C577   H606    1.107   .     S
C577   N669    1.449   .     S
C577   H607    1.112   .     S
C578   N670    1.447   .     S
C578   H612    1.105   .     S
C578   H613    1.109   .     S
C578   H611    1.105   .     S
C579   H615    1.109   .     S
C579   N671    1.446   .     S
C579   H616    1.110   .     S
C579   H617    1.109   .     S
C580   H622    1.109   .     S
C580   N673    1.451   .     S
C580   H621    1.111   .     S
C580   H620    1.111   .     S
C581   H624    1.111   .     S
C581   H625    1.112   .     S
C581   H626    1.105   .     S
C581   N674    1.456   .     S
C582   H629    1.108   .     S
C582   N675    1.445   .     S
C582   H628    1.111   .     S
C583   H633    1.109   .     S
C583   H634    1.112   .     S
C583   H635    1.108   .     S
C583   N676    1.448   .     S
C584   O691    1.303   .     A
C584   O690    1.298   .     A
C585   H637    1.111   .     S
C585   H638    1.111   .     S
C585   N677    1.446   .     S
C585   H639    1.111   .     S
C586   H644    1.109   .     S
C586   H643    1.110   .     S
C586   H642    1.112   .     S
C586   N678    1.451   .     S
C587   H648    1.110   .     S
C587   H647    1.110   .     S
C587   H646    1.111   .     S
C587   N679    1.446   .     S
C588   H653    1.109   .     S
C588   N680    1.456   .     S
C588   H651    1.105   .     S
C588   H650    1.113   .     S
C589   H657    1.108   .     S
C589   H655    1.112   .     S
C589   N681    1.451   .     S
C589   H656    1.111   .     S
C590   O696    1.299   .     A
C590   O693    1.303   .     A
C591   O694    1.299   .     A
C591   O695    1.300   .     A
C592   N672    1.372   .     A
C592   C1940   1.428   1_554 S
Cu593  O701    1.981   .     S
Cu593  O689    1.983   .     S
Cu593  Cu594   2.705   .     S
Cu593  N661    2.033   .     S
Cu594  N672    2.033   .     S
Cu594  O699    1.979   .     S
Cu594  O702    1.984   .     S
Cu595  N682    2.033   .     S
Cu595  Cu596   2.705   .     S
Cu595  O691    1.979   .     S
Cu595  O694    1.981   .     S
Cu596  N683    2.033   .     S
Cu596  O690    1.983   .     S
Cu596  O695    1.984   .     S
H597   N665    1.030   .     S
H601   N668    1.031   .     S
H605   N669    1.030   .     S
H610   N670    1.022   .     S
H614   N671    1.031   .     S
H618   N673    1.029   .     S
H623   N674    1.030   .     S
H627   N675    1.030   .     S
H631   C230    1.110   1_565 S
H632   N676    1.029   .     S
H636   N677    1.030   .     S
H640   N678    1.029   .     S
H641   N666    1.029   .     S
H645   N679    1.028   .     S
H649   N680    1.030   .     S
H654   N681    1.028   .     S
H660   N667    1.031   .     S
O692   Cu244   1.979   1_565 S
O693   Cu244   1.981   1_565 S
O696   Cu243   1.984   1_565 S
O697   Cu418   1.983   1_655 S
O698   Cu417   1.979   1_655 S
O700   Cu418   1.981   1_655 S
O703   Cu417   1.984   1_655 S
O704   Cu243   1.983   1_565 S
C705   C734    1.471   .     S
C705   O865    1.306   .     A
C705   O875    1.300   .     A
C706   C741    1.443   .     S
C706   C1587   1.430   .     S
C706   N1013   1.373   .     S
C707   C742    1.443   .     S
C707   N848    1.371   .     A
C707   C178    1.430   1_455 S
C708   C743    1.440   .     S
C708   N837    1.371   .     A
C708   C1472   1.428   .     S
C709   N1211   1.371   .     A
C709   C744    1.436   .     S
C710   C745    1.438   .     S
C710   C1415   1.421   .     S
C710   N858    1.372   .     S
C711   C746    1.436   .     S
C711   N859    1.370   .     S
C712   C747    1.437   .     S
C712   N1210   1.371   .     A
C712   C1413   1.421   .     S
C713   N841    1.423   .     S
C713   C724    1.406   .     A
C713   C732    1.411   .     A
C714   C731    1.419   .     A
C714   C725    1.399   .     A
C714   N842    1.422   .     S
C715   C722    1.399   .     A
C715   N843    1.425   .     S
C715   C731    1.410   .     A
C716   C733    1.475   .     S
C716   O874    1.307   .     A
C716   O873    1.302   .     A
C717   C732    1.416   .     A
C717   N844    1.417   .     S
C717   C723    1.403   .     A
C718   N845    1.424   .     S
C718   C734    1.410   .     A
C718   C729    1.401   .     A
C719   C733    1.416   .     A
C719   C730    1.397   .     A
C719   N846    1.422   .     S
C720   N847    1.423   .     S
C720   C733    1.409   .     A
C720   C726    1.404   .     A
C721   C734    1.414   .     A
C721   C728    1.392   .     A
C721   N849    1.423   .     S
C722   C736    1.405   .     A
C722   N850    1.424   .     S
C723   C735    1.400   .     A
C723   N851    1.428   .     S
C724   N852    1.423   .     S
C724   C735    1.405   .     A
C725   N853    1.427   .     S
C725   C736    1.410   .     A
C726   N854    1.423   .     S
C726   C739    1.410   .     A
C727   O876    1.308   .     A
C727   C732    1.477   .     S
C727   O879    1.301   .     A
C728   N855    1.425   .     S
C728   C737    1.413   .     A
C729   N856    1.425   .     S
C729   C737    1.409   .     A
C730   C739    1.416   .     A
C730   N857    1.438   .     S
C731   C738    1.473   .     S
C735   C767    1.458   .     S
C736   C766    1.463   .     S
C737   C760    1.461   .     S
C738   O878    1.307   .     A
C738   O877    1.300   .     A
C739   C749    1.462   .     S
C740   N860    1.158   .     T
C740   C944    1.443   .     S
C741   N861    1.158   .     T
C742   N862    1.158   .     T
C743   N863    1.157   .     T
C744   N864    1.155   .     T
C745   N838    1.156   .     T
C746   N839    1.155   .     T
C747   N840    1.155   .     T
C748   N841    1.447   .     S
C748   H784    1.109   .     S
C748   H806    1.110   .     S
C748   H795    1.107   .     S
C749   O868    1.297   .     A
C749   O880    1.304   .     A
C750   N842    1.449   .     S
C750   H828    1.111   .     S
C750   H835    1.110   .     S
C750   H834    1.111   .     S
C751   H774    1.107   .     S
C751   H775    1.112   .     S
C751   H776    1.103   .     S
C751   N843    1.449   .     S
C752   H779    1.111   .     S
C752   N844    1.450   .     S
C752   H778    1.108   .     S
C752   H780    1.111   .     S
C753   H785    1.101   .     S
C753   H782    1.107   .     S
C753   N845    1.449   .     S
C753   H783    1.112   .     S
C754   N846    1.447   .     S
C754   H788    1.105   .     S
C754   H789    1.109   .     S
C754   H787    1.105   .     S
C755   H791    1.109   .     S
C755   N847    1.446   .     S
C755   H792    1.110   .     S
C755   H793    1.109   .     S
C756   H798    1.109   .     S
C756   N849    1.451   .     S
C756   H797    1.111   .     S
C756   H796    1.111   .     S
C757   H800    1.111   .     S
C757   H801    1.112   .     S
C757   H802    1.105   .     S
C757   N850    1.456   .     S
C758   H805    1.108   .     S
C758   N851    1.445   .     S
C758   H804    1.111   .     S
C758   H1159   1.110   1_545 S
C759   H809    1.109   .     S
C759   H810    1.112   .     S
C759   H811    1.108   .     S
C759   N852    1.448   .     S
C760   O867    1.303   .     A
C760   O866    1.298   .     A
C761   H813    1.111   .     S
C761   H814    1.111   .     S
C761   N853    1.446   .     S
C761   H815    1.111   .     S
C762   H820    1.109   .     S
C762   H819    1.110   .     S
C762   H818    1.112   .     S
C762   N854    1.451   .     S
C763   H824    1.110   .     S
C763   H823    1.110   .     S
C763   H822    1.111   .     S
C763   N855    1.446   .     S
C764   H829    1.109   .     S
C764   N856    1.456   .     S
C764   H827    1.105   .     S
C764   H826    1.113   .     S
C765   H833    1.108   .     S
C765   H831    1.112   .     S
C765   N857    1.451   .     S
C765   H832    1.111   .     S
C766   O872    1.299   .     A
C766   O869    1.303   .     A
C767   O870    1.299   .     A
C767   O871    1.300   .     A
C768   N848    1.372   .     A
C768   C916    1.443   1_455 S
Cu769  O877    1.981   .     S
Cu769  O865    1.983   .     S
Cu769  Cu770   2.705   .     S
Cu769  N837    2.033   .     S
Cu769  O1050   1.979   1_455 S
Cu769  O1055   1.984   1_455 S
Cu770  N848    2.033   .     S
Cu770  O875    1.979   .     S
Cu770  O878    1.984   .     S
Cu770  O1049   1.983   1_455 S
Cu770  O1052   1.981   1_455 S
Cu771  O1224   1.984   1_545 S
Cu771  N858    2.033   .     S
Cu771  Cu772   2.705   .     S
Cu771  O1232   1.983   1_545 S
Cu771  O867    1.979   .     S
Cu771  O870    1.981   .     S
Cu772  N859    2.033   .     S
Cu772  O1221   1.981   1_545 S
Cu772  O1220   1.979   1_545 S
Cu772  O866    1.983   .     S
Cu772  O871    1.984   .     S
H773   N841    1.030   .     S
H777   N844    1.031   .     S
H781   N845    1.030   .     S
H786   N846    1.022   .     S
H790   N847    1.031   .     S
H794   N849    1.029   .     S
H799   N850    1.030   .     S
H803   N851    1.030   .     S
H807   C1110   1.110   .     S
H808   N852    1.029   .     S
H812   N853    1.030   .     S
H816   N854    1.029   .     S
H817   N842    1.029   .     S
H821   N855    1.028   .     S
H825   N856    1.030   .     S
H830   N857    1.028   .     S
H836   N843    1.031   .     S
N837   C882    1.373   1_455 S
N858   C1064   1.371   1_545 A
N859   C1061   1.371   1_545 A
O868   Cu1124  1.979   .     S
O869   Cu1124  1.981   .     S
O872   Cu1123  1.984   .     S
O873   Cu946   1.983   .     S
O874   Cu945   1.979   .     S
O876   Cu946   1.981   .     S
O879   Cu945   1.984   .     S
O880   Cu1123  1.983   .     S
C881   C910    1.471   .     S
C881   O1041   1.306   .     A
C881   O1051   1.300   .     A
C882   C917    1.443   .     S
C882   C1411   1.430   1_655 S
C882   N837    1.373   1_655 S
C883   C918    1.443   .     S
C883   N1024   1.371   .     A
C884   C919    1.440   .     S
C884   N1013   1.371   .     A
C884   C1648   1.428   .     S
C885   N1387   1.371   .     A
C885   C920    1.436   .     S
C886   C921    1.438   .     S
C886   C1591   1.421   .     S
C886   N1034   1.372   .     S
C887   C922    1.436   .     S
C887   N1035   1.370   .     S
C888   C923    1.437   .     S
C888   N1386   1.371   .     A
C888   C1589   1.421   .     S
C889   N1017   1.423   .     S
C889   C900    1.406   .     A
C889   C908    1.411   .     A
C890   C907    1.419   .     A
C890   C901    1.399   .     A
C890   N1018   1.422   .     S
C891   C898    1.399   .     A
C891   N1019   1.425   .     S
C891   C907    1.410   .     A
C892   C909    1.475   .     S
C892   O1050   1.307   .     A
C892   O1049   1.302   .     A
C893   C908    1.416   .     A
C893   N1020   1.417   .     S
C893   C899    1.403   .     A
C894   N1021   1.424   .     S
C894   C910    1.410   .     A
C894   C905    1.401   .     A
C895   C909    1.416   .     A
C895   C906    1.397   .     A
C895   N1022   1.422   .     S
C896   N1023   1.423   .     S
C896   C909    1.409   .     A
C896   C902    1.404   .     A
C897   C910    1.414   .     A
C897   C904    1.392   .     A
C897   N1025   1.423   .     S
C898   C912    1.405   .     A
C898   N1026   1.424   .     S
C899   C911    1.400   .     A
C899   N1027   1.428   .     S
C900   N1028   1.423   .     S
C900   C911    1.405   .     A
C901   N1029   1.427   .     S
C901   C912    1.410   .     A
C902   N1030   1.423   .     S
C902   C915    1.410   .     A
C903   O1052   1.308   .     A
C903   C908    1.477   .     S
C903   O1055   1.301   .     A
C904   N1031   1.425   .     S
C904   C913    1.413   .     A
C905   N1032   1.425   .     S
C905   C913    1.409   .     A
C906   C915    1.416   .     A
C906   N1033   1.438   .     S
C907   C914    1.473   .     S
C911   C943    1.458   .     S
C912   C942    1.463   .     S
C913   C936    1.461   .     S
C914   O1054   1.307   .     A
C914   O1053   1.300   .     A
C915   C925    1.462   .     S
C916   N1036   1.158   .     T
C916   C768    1.443   1_655 S
C917   N1037   1.158   .     T
C918   N1038   1.158   .     T
C919   N1039   1.157   .     T
C920   N1040   1.155   .     T
C921   N1014   1.156   .     T
C922   N1015   1.155   .     T
C923   N1016   1.155   .     T
C924   N1017   1.447   .     S
C924   H960    1.109   .     S
C924   H982    1.110   .     S
C924   H971    1.107   .     S
C925   O1044   1.297   .     A
C925   O1056   1.304   .     A
C926   N1018   1.449   .     S
C926   H1004   1.111   .     S
C926   H1011   1.110   .     S
C926   H1010   1.111   .     S
C927   H950    1.107   .     S
C927   H951    1.112   .     S
C927   H952    1.103   .     S
C927   N1019   1.449   .     S
C928   H955    1.111   .     S
C928   N1020   1.450   .     S
C928   H954    1.108   .     S
C928   H956    1.111   .     S
C929   H961    1.101   .     S
C929   H958    1.107   .     S
C929   N1021   1.449   .     S
C929   H959    1.112   .     S
C930   N1022   1.447   .     S
C930   H964    1.105   .     S
C930   H965    1.109   .     S
C930   H963    1.105   .     S
C931   H967    1.109   .     S
C931   N1023   1.446   .     S
C931   H968    1.110   .     S
C931   H969    1.109   .     S
C932   H974    1.109   .     S
C932   N1025   1.451   .     S
C932   H973    1.111   .     S
C932   H972    1.111   .     S
C933   H976    1.111   .     S
C933   H977    1.112   .     S
C933   H978    1.105   .     S
C933   N1026   1.456   .     S
C934   H981    1.108   .     S
C934   N1027   1.445   .     S
C934   H980    1.111   .     S
C934   H1335   1.110   1_545 S
C935   H985    1.109   .     S
C935   H986    1.112   .     S
C935   H987    1.108   .     S
C935   N1028   1.448   .     S
C936   O1043   1.303   .     A
C936   O1042   1.298   .     A
C937   H989    1.111   .     S
C937   H990    1.111   .     S
C937   N1029   1.446   .     S
C937   H991    1.111   .     S
C938   H996    1.109   .     S
C938   H995    1.110   .     S
C938   H994    1.112   .     S
C938   N1030   1.451   .     S
C939   H1000   1.110   .     S
C939   H999    1.110   .     S
C939   H998    1.111   .     S
C939   N1031   1.446   .     S
C940   H1005   1.109   .     S
C940   N1032   1.456   .     S
C940   H1003   1.105   .     S
C940   H1002   1.113   .     S
C941   H1009   1.108   .     S
C941   H1007   1.112   .     S
C941   N1033   1.451   .     S
C941   H1008   1.111   .     S
C942   O1048   1.299   .     A
C942   O1045   1.303   .     A
C943   O1046   1.299   .     A
C943   O1047   1.300   .     A
C944   N1024   1.372   .     A
Cu945  O1053   1.981   .     S
Cu945  O1041   1.983   .     S
Cu945  Cu946   2.705   .     S
Cu945  N1013   2.033   .     S
Cu946  N1024   2.033   .     S
Cu946  O1051   1.979   .     S
Cu946  O1054   1.984   .     S
Cu947  O1400   1.984   1_545 S
Cu947  N1034   2.033   .     S
Cu947  Cu948   2.705   .     S
Cu947  O1408   1.983   1_545 S
Cu947  O1043   1.979   .     S
Cu947  O1046   1.981   .     S
Cu948  N1035   2.033   .     S
Cu948  O1397   1.981   1_545 S
Cu948  O1396   1.979   1_545 S
Cu948  O1042   1.983   .     S
Cu948  O1047   1.984   .     S
H949   N1017   1.030   .     S
H953   N1020   1.031   .     S
H957   N1021   1.030   .     S
H962   N1022   1.022   .     S
H966   N1023   1.031   .     S
H970   N1025   1.029   .     S
H975   N1026   1.030   .     S
H979   N1027   1.030   .     S
H983   C1286   1.110   .     S
H984   N1028   1.029   .     S
H988   N1029   1.030   .     S
H992   N1030   1.029   .     S
H993   N1018   1.029   .     S
H997   N1031   1.028   .     S
H1001  N1032   1.030   .     S
H1006  N1033   1.028   .     S
H1012  N1019   1.031   .     S
N1034  C1240   1.371   1_545 A
N1035  C1237   1.371   1_545 A
O1044  Cu1300  1.979   .     S
O1045  Cu1300  1.981   .     S
O1048  Cu1299  1.984   .     S
O1049  Cu770   1.983   1_655 S
O1050  Cu769   1.979   1_655 S
O1052  Cu770   1.981   1_655 S
O1055  Cu769   1.984   1_655 S
O1056  Cu1299  1.983   .     S
C1057  C1086   1.471   .     S
C1057  O1217   1.306   .     A
C1057  O1227   1.300   .     A
C1058  C1093   1.443   .     S
C1058  C1939   1.430   .     S
C1058  N1365   1.373   .     S
C1059  C1094   1.443   .     S
C1059  N1200   1.371   .     A
C1059  C530    1.430   1_455 S
C1060  C1095   1.440   .     S
C1060  N1189   1.371   .     A
C1060  C1824   1.428   .     S
C1061  N859    1.371   1_565 A
C1061  C1096   1.436   .     S
C1062  C1097   1.438   .     S
C1062  C1767   1.421   .     S
C1062  N1210   1.372   .     S
C1063  C1098   1.436   .     S
C1063  N1211   1.370   .     S
C1064  C1099   1.437   .     S
C1064  N858    1.371   1_565 A
C1064  C1765   1.421   .     S
C1065  N1193   1.423   .     S
C1065  C1076   1.406   .     A
C1065  C1084   1.411   .     A
C1066  C1083   1.419   .     A
C1066  C1077   1.399   .     A
C1066  N1194   1.422   .     S
C1067  C1074   1.399   .     A
C1067  N1195   1.425   .     S
C1067  C1083   1.410   .     A
C1068  C1085   1.475   .     S
C1068  O1226   1.307   .     A
C1068  O1225   1.302   .     A
C1069  C1084   1.416   .     A
C1069  N1196   1.417   .     S
C1069  C1075   1.403   .     A
C1070  N1197   1.424   .     S
C1070  C1086   1.410   .     A
C1070  C1081   1.401   .     A
C1071  C1085   1.416   .     A
C1071  C1082   1.397   .     A
C1071  N1198   1.422   .     S
C1072  N1199   1.423   .     S
C1072  C1085   1.409   .     A
C1072  C1078   1.404   .     A
C1073  C1086   1.414   .     A
C1073  C1080   1.392   .     A
C1073  N1201   1.423   .     S
C1074  C1088   1.405   .     A
C1074  N1202   1.424   .     S
C1075  C1087   1.400   .     A
C1075  N1203   1.428   .     S
C1076  N1204   1.423   .     S
C1076  C1087   1.405   .     A
C1077  N1205   1.427   .     S
C1077  C1088   1.410   .     A
C1078  N1206   1.423   .     S
C1078  C1091   1.410   .     A
C1079  O1228   1.308   .     A
C1079  C1084   1.477   .     S
C1079  O1231   1.301   .     A
C1080  N1207   1.425   .     S
C1080  C1089   1.413   .     A
C1081  N1208   1.425   .     S
C1081  C1089   1.409   .     A
C1082  C1091   1.416   .     A
C1082  N1209   1.438   .     S
C1083  C1090   1.473   .     S
C1087  C1119   1.458   .     S
C1088  C1118   1.463   .     S
C1089  C1112   1.461   .     S
C1090  O1230   1.307   .     A
C1090  O1229   1.300   .     A
C1091  C1101   1.462   .     S
C1092  N1212   1.158   .     T
C1092  C1296   1.443   .     S
C1093  N1213   1.158   .     T
C1094  N1214   1.158   .     T
C1095  N1215   1.157   .     T
C1096  N1216   1.155   .     T
C1097  N1190   1.156   .     T
C1098  N1191   1.155   .     T
C1099  N1192   1.155   .     T
C1100  N1193   1.447   .     S
C1100  H1136   1.109   .     S
C1100  H1158   1.110   .     S
C1100  H1147   1.107   .     S
C1101  O1220   1.297   .     A
C1101  O1232   1.304   .     A
C1102  N1194   1.449   .     S
C1102  H1180   1.111   .     S
C1102  H1187   1.110   .     S
C1102  H1186   1.111   .     S
C1103  H1126   1.107   .     S
C1103  H1127   1.112   .     S
C1103  H1128   1.103   .     S
C1103  N1195   1.449   .     S
C1104  H1131   1.111   .     S
C1104  N1196   1.450   .     S
C1104  H1130   1.108   .     S
C1104  H1132   1.111   .     S
C1105  H1137   1.101   .     S
C1105  H1134   1.107   .     S
C1105  N1197   1.449   .     S
C1105  H1135   1.112   .     S
C1106  N1198   1.447   .     S
C1106  H1140   1.105   .     S
C1106  H1141   1.109   .     S
C1106  H1139   1.105   .     S
C1107  H1143   1.109   .     S
C1107  N1199   1.446   .     S
C1107  H1144   1.110   .     S
C1107  H1145   1.109   .     S
C1108  H1150   1.109   .     S
C1108  N1201   1.451   .     S
C1108  H1149   1.111   .     S
C1108  H1148   1.111   .     S
C1109  H1152   1.111   .     S
C1109  H1153   1.112   .     S
C1109  H1154   1.105   .     S
C1109  N1202   1.456   .     S
C1110  H1157   1.108   .     S
C1110  N1203   1.445   .     S
C1110  H1156   1.111   .     S
C1111  H1161   1.109   .     S
C1111  H1162   1.112   .     S
C1111  H1163   1.108   .     S
C1111  N1204   1.448   .     S
C1112  O1219   1.303   .     A
C1112  O1218   1.298   .     A
C1113  H1165   1.111   .     S
C1113  H1166   1.111   .     S
C1113  N1205   1.446   .     S
C1113  H1167   1.111   .     S
C1114  H1172   1.109   .     S
C1114  H1171   1.110   .     S
C1114  H1170   1.112   .     S
C1114  N1206   1.451   .     S
C1115  H1176   1.110   .     S
C1115  H1175   1.110   .     S
C1115  H1174   1.111   .     S
C1115  N1207   1.446   .     S
C1116  H1181   1.109   .     S
C1116  N1208   1.456   .     S
C1116  H1179   1.105   .     S
C1116  H1178   1.113   .     S
C1117  H1185   1.108   .     S
C1117  H1183   1.112   .     S
C1117  N1209   1.451   .     S
C1117  H1184   1.111   .     S
C1118  O1224   1.299   .     A
C1118  O1221   1.303   .     A
C1119  O1222   1.299   .     A
C1119  O1223   1.300   .     A
C1120  N1200   1.372   .     A
C1120  C1268   1.443   1_455 S
Cu1121 O1229   1.981   .     S
Cu1121 O1217   1.983   .     S
Cu1121 Cu1122  2.705   .     S
Cu1121 N1189   2.033   .     S
Cu1121 O1402   1.979   1_455 S
Cu1121 O1407   1.984   1_455 S
Cu1122 N1200   2.033   .     S
Cu1122 O1227   1.979   .     S
Cu1122 O1230   1.984   .     S
Cu1122 O1401   1.983   1_455 S
Cu1122 O1404   1.981   1_455 S
Cu1123 N1210   2.033   .     S
Cu1123 Cu1124  2.705   .     S
Cu1123 O1219   1.979   .     S
Cu1123 O1222   1.981   .     S
Cu1124 N1211   2.033   .     S
Cu1124 O1218   1.983   .     S
Cu1124 O1223   1.984   .     S
H1125  N1193   1.030   .     S
H1129  N1196   1.031   .     S
H1133  N1197   1.030   .     S
H1138  N1198   1.022   .     S
H1142  N1199   1.031   .     S
H1146  N1201   1.029   .     S
H1151  N1202   1.030   .     S
H1155  N1203   1.030   .     S
H1159  C758    1.110   1_565 S
H1160  N1204   1.029   .     S
H1164  N1205   1.030   .     S
H1168  N1206   1.029   .     S
H1169  N1194   1.029   .     S
H1173  N1207   1.028   .     S
H1177  N1208   1.030   .     S
H1182  N1209   1.028   .     S
H1188  N1195   1.031   .     S
N1189  C1234   1.373   1_455 S
O1220  Cu772   1.979   1_565 S
O1221  Cu772   1.981   1_565 S
O1224  Cu771   1.984   1_565 S
O1225  Cu1298  1.983   .     S
O1226  Cu1297  1.979   .     S
O1228  Cu1298  1.981   .     S
O1231  Cu1297  1.984   .     S
O1232  Cu771   1.983   1_565 S
C1233  C1262   1.471   .     S
C1233  O1393   1.306   .     A
C1233  O1403   1.300   .     A
C1234  C1269   1.443   .     S
C1234  C1763   1.430   1_655 S
C1234  N1189   1.373   1_655 S
C1235  C1270   1.443   .     S
C1235  N1376   1.371   .     A
C1236  C1271   1.440   .     S
C1236  N1365   1.371   .     A
C1236  C2000   1.428   .     S
C1237  N1035   1.371   1_565 A
C1237  C1272   1.436   .     S
C1238  C1273   1.438   .     S
C1238  C1943   1.421   .     S
C1238  N1386   1.372   .     S
C1239  C1274   1.436   .     S
C1239  N1387   1.370   .     S
C1240  C1275   1.437   .     S
C1240  N1034   1.371   1_565 A
C1240  C1941   1.421   .     S
C1241  N1369   1.423   .     S
C1241  C1252   1.406   .     A
C1241  C1260   1.411   .     A
C1242  C1259   1.419   .     A
C1242  C1253   1.399   .     A
C1242  N1370   1.422   .     S
C1243  C1250   1.399   .     A
C1243  N1371   1.425   .     S
C1243  C1259   1.410   .     A
C1244  C1261   1.475   .     S
C1244  O1402   1.307   .     A
C1244  O1401   1.302   .     A
C1245  C1260   1.416   .     A
C1245  N1372   1.417   .     S
C1245  C1251   1.403   .     A
C1246  N1373   1.424   .     S
C1246  C1262   1.410   .     A
C1246  C1257   1.401   .     A
C1247  C1261   1.416   .     A
C1247  C1258   1.397   .     A
C1247  N1374   1.422   .     S
C1248  N1375   1.423   .     S
C1248  C1261   1.409   .     A
C1248  C1254   1.404   .     A
C1249  C1262   1.414   .     A
C1249  C1256   1.392   .     A
C1249  N1377   1.423   .     S
C1250  C1264   1.405   .     A
C1250  N1378   1.424   .     S
C1251  C1263   1.400   .     A
C1251  N1379   1.428   .     S
C1252  N1380   1.423   .     S
C1252  C1263   1.405   .     A
C1253  N1381   1.427   .     S
C1253  C1264   1.410   .     A
C1254  N1382   1.423   .     S
C1254  C1267   1.410   .     A
C1255  O1404   1.308   .     A
C1255  C1260   1.477   .     S
C1255  O1407   1.301   .     A
C1256  N1383   1.425   .     S
C1256  C1265   1.413   .     A
C1257  N1384   1.425   .     S
C1257  C1265   1.409   .     A
C1258  C1267   1.416   .     A
C1258  N1385   1.438   .     S
C1259  C1266   1.473   .     S
C1263  C1295   1.458   .     S
C1264  C1294   1.463   .     S
C1265  C1288   1.461   .     S
C1266  O1406   1.307   .     A
C1266  O1405   1.300   .     A
C1267  C1277   1.462   .     S
C1268  N1388   1.158   .     T
C1268  C1120   1.443   1_655 S
C1269  N1389   1.158   .     T
C1270  N1390   1.158   .     T
C1271  N1391   1.157   .     T
C1272  N1392   1.155   .     T
C1273  N1366   1.156   .     T
C1274  N1367   1.155   .     T
C1275  N1368   1.155   .     T
C1276  N1369   1.447   .     S
C1276  H1312   1.109   .     S
C1276  H1334   1.110   .     S
C1276  H1323   1.107   .     S
C1277  O1396   1.297   .     A
C1277  O1408   1.304   .     A
C1278  N1370   1.449   .     S
C1278  H1356   1.111   .     S
C1278  H1363   1.110   .     S
C1278  H1362   1.111   .     S
C1279  H1302   1.107   .     S
C1279  H1303   1.112   .     S
C1279  H1304   1.103   .     S
C1279  N1371   1.449   .     S
C1280  H1307   1.111   .     S
C1280  N1372   1.450   .     S
C1280  H1306   1.108   .     S
C1280  H1308   1.111   .     S
C1281  H1313   1.101   .     S
C1281  H1310   1.107   .     S
C1281  N1373   1.449   .     S
C1281  H1311   1.112   .     S
C1282  N1374   1.447   .     S
C1282  H1316   1.105   .     S
C1282  H1317   1.109   .     S
C1282  H1315   1.105   .     S
C1283  H1319   1.109   .     S
C1283  N1375   1.446   .     S
C1283  H1320   1.110   .     S
C1283  H1321   1.109   .     S
C1284  H1326   1.109   .     S
C1284  N1377   1.451   .     S
C1284  H1325   1.111   .     S
C1284  H1324   1.111   .     S
C1285  H1328   1.111   .     S
C1285  H1329   1.112   .     S
C1285  H1330   1.105   .     S
C1285  N1378   1.456   .     S
C1286  H1333   1.108   .     S
C1286  N1379   1.445   .     S
C1286  H1332   1.111   .     S
C1287  H1337   1.109   .     S
C1287  H1338   1.112   .     S
C1287  H1339   1.108   .     S
C1287  N1380   1.448   .     S
C1288  O1395   1.303   .     A
C1288  O1394   1.298   .     A
C1289  H1341   1.111   .     S
C1289  H1342   1.111   .     S
C1289  N1381   1.446   .     S
C1289  H1343   1.111   .     S
C1290  H1348   1.109   .     S
C1290  H1347   1.110   .     S
C1290  H1346   1.112   .     S
C1290  N1382   1.451   .     S
C1291  H1352   1.110   .     S
C1291  H1351   1.110   .     S
C1291  H1350   1.111   .     S
C1291  N1383   1.446   .     S
C1292  H1357   1.109   .     S
C1292  N1384   1.456   .     S
C1292  H1355   1.105   .     S
C1292  H1354   1.113   .     S
C1293  H1361   1.108   .     S
C1293  H1359   1.112   .     S
C1293  N1385   1.451   .     S
C1293  H1360   1.111   .     S
C1294  O1400   1.299   .     A
C1294  O1397   1.303   .     A
C1295  O1398   1.299   .     A
C1295  O1399   1.300   .     A
C1296  N1376   1.372   .     A
Cu1297 O1405   1.981   .     S
Cu1297 O1393   1.983   .     S
Cu1297 Cu1298  2.705   .     S
Cu1297 N1365   2.033   .     S
Cu1298 N1376   2.033   .     S
Cu1298 O1403   1.979   .     S
Cu1298 O1406   1.984   .     S
Cu1299 N1386   2.033   .     S
Cu1299 Cu1300  2.705   .     S
Cu1299 O1395   1.979   .     S
Cu1299 O1398   1.981   .     S
Cu1300 N1387   2.033   .     S
Cu1300 O1394   1.983   .     S
Cu1300 O1399   1.984   .     S
H1301  N1369   1.030   .     S
H1305  N1372   1.031   .     S
H1309  N1373   1.030   .     S
H1314  N1374   1.022   .     S
H1318  N1375   1.031   .     S
H1322  N1377   1.029   .     S
H1327  N1378   1.030   .     S
H1331  N1379   1.030   .     S
H1335  C934    1.110   1_565 S
H1336  N1380   1.029   .     S
H1340  N1381   1.030   .     S
H1344  N1382   1.029   .     S
H1345  N1370   1.029   .     S
H1349  N1383   1.028   .     S
H1353  N1384   1.030   .     S
H1358  N1385   1.028   .     S
H1364  N1371   1.031   .     S
O1396  Cu948   1.979   1_565 S
O1397  Cu948   1.981   1_565 S
O1400  Cu947   1.984   1_565 S
O1401  Cu1122  1.983   1_655 S
O1402  Cu1121  1.979   1_655 S
O1404  Cu1122  1.981   1_655 S
O1407  Cu1121  1.984   1_655 S
O1408  Cu947   1.983   1_565 S
C1409  C1438   1.471   .     S
C1409  O1569   1.306   .     A
C1409  O1579   1.300   .     A
C1410  C1445   1.443   .     S
C1410  C179    1.430   1_556 S
C1410  N1717   1.373   .     S
C1411  C1446   1.443   .     S
C1411  N1552   1.371   .     A
C1411  C882    1.430   1_455 S
C1412  C1447   1.440   .     S
C1412  N1541   1.371   .     A
C1412  C64     1.428   1_556 S
C1413  N1915   1.371   .     A
C1413  C1448   1.436   .     S
C1414  C1449   1.438   .     S
C1414  C7      1.421   1_556 S
C1414  N1562   1.372   .     S
C1415  C1450   1.436   .     S
C1415  N1563   1.370   .     S
C1416  C1451   1.437   .     S
C1416  N1914   1.371   .     A
C1416  C5      1.421   1_556 S
C1417  N1545   1.423   .     S
C1417  C1428   1.406   .     A
C1417  C1436   1.411   .     A
C1418  C1435   1.419   .     A
C1418  C1429   1.399   .     A
C1418  N1546   1.422   .     S
C1419  C1426   1.399   .     A
C1419  N1547   1.425   .     S
C1419  C1435   1.410   .     A
C1420  C1437   1.475   .     S
C1420  O1578   1.307   .     A
C1420  O1577   1.302   .     A
C1421  C1436   1.416   .     A
C1421  N1548   1.417   .     S
C1421  C1427   1.403   .     A
C1422  N1549   1.424   .     S
C1422  C1438   1.410   .     A
C1422  C1433   1.401   .     A
C1423  C1437   1.416   .     A
C1423  C1434   1.397   .     A
C1423  N1550   1.422   .     S
C1424  N1551   1.423   .     S
C1424  C1437   1.409   .     A
C1424  C1430   1.404   .     A
C1425  C1438   1.414   .     A
C1425  C1432   1.392   .     A
C1425  N1553   1.423   .     S
C1426  C1440   1.405   .     A
C1426  N1554   1.424   .     S
C1427  C1439   1.400   .     A
C1427  N1555   1.428   .     S
C1428  N1556   1.423   .     S
C1428  C1439   1.405   .     A
C1429  N1557   1.427   .     S
C1429  C1440   1.410   .     A
C1430  N1558   1.423   .     S
C1430  C1443   1.410   .     A
C1431  O1580   1.308   .     A
C1431  C1436   1.477   .     S
C1431  O1583   1.301   .     A
C1432  N1559   1.425   .     S
C1432  C1441   1.413   .     A
C1433  N1560   1.425   .     S
C1433  C1441   1.409   .     A
C1434  C1443   1.416   .     A
C1434  N1561   1.438   .     S
C1435  C1442   1.473   .     S
C1439  C1471   1.458   .     S
C1440  C1470   1.463   .     S
C1441  C1464   1.461   .     S
C1442  O1582   1.307   .     A
C1442  O1581   1.300   .     A
C1443  C1453   1.462   .     S
C1444  N1564   1.158   .     T
C1444  C1648   1.443   .     S
C1445  N1565   1.158   .     T
C1446  N1566   1.158   .     T
C1447  N1567   1.157   .     T
C1448  N1568   1.155   .     T
C1449  N1542   1.156   .     T
C1450  N1543   1.155   .     T
C1451  N1544   1.155   .     T
C1452  N1545   1.447   .     S
C1452  H1488   1.109   .     S
C1452  H1510   1.110   .     S
C1452  H1499   1.107   .     S
C1453  O1572   1.297   .     A
C1453  O1584   1.304   .     A
C1454  N1546   1.449   .     S
C1454  H1532   1.111   .     S
C1454  H1539   1.110   .     S
C1454  H1538   1.111   .     S
C1455  H1478   1.107   .     S
C1455  H1479   1.112   .     S
C1455  H1480   1.103   .     S
C1455  N1547   1.449   .     S
C1456  H1483   1.111   .     S
C1456  N1548   1.450   .     S
C1456  H1482   1.108   .     S
C1456  H1484   1.111   .     S
C1457  H1489   1.101   .     S
C1457  H1486   1.107   .     S
C1457  N1549   1.449   .     S
C1457  H1487   1.112   .     S
C1458  N1550   1.447   .     S
C1458  H1492   1.105   .     S
C1458  H1493   1.109   .     S
C1458  H1491   1.105   .     S
C1459  H1495   1.109   .     S
C1459  N1551   1.446   .     S
C1459  H1496   1.110   .     S
C1459  H1497   1.109   .     S
C1460  H1502   1.109   .     S
C1460  N1553   1.451   .     S
C1460  H1501   1.111   .     S
C1460  H1500   1.111   .     S
C1461  H1504   1.111   .     S
C1461  H1505   1.112   .     S
C1461  H1506   1.105   .     S
C1461  N1554   1.456   .     S
C1462  H1509   1.108   .     S
C1462  N1555   1.445   .     S
C1462  H1508   1.111   .     S
C1462  H1863   1.110   1_545 S
C1463  H1513   1.109   .     S
C1463  H1514   1.112   .     S
C1463  H1515   1.108   .     S
C1463  N1556   1.448   .     S
C1464  O1571   1.303   .     A
C1464  O1570   1.298   .     A
C1465  H1517   1.111   .     S
C1465  H1518   1.111   .     S
C1465  N1557   1.446   .     S
C1465  H1519   1.111   .     S
C1466  H1524   1.109   .     S
C1466  H1523   1.110   .     S
C1466  H1522   1.112   .     S
C1466  N1558   1.451   .     S
C1467  H1528   1.110   .     S
C1467  H1527   1.110   .     S
C1467  H1526   1.111   .     S
C1467  N1559   1.446   .     S
C1468  H1533   1.109   .     S
C1468  N1560   1.456   .     S
C1468  H1531   1.105   .     S
C1468  H1530   1.113   .     S
C1469  H1537   1.108   .     S
C1469  H1535   1.112   .     S
C1469  N1561   1.451   .     S
C1469  H1536   1.111   .     S
C1470  O1576   1.299   .     A
C1470  O1573   1.303   .     A
C1471  O1574   1.299   .     A
C1471  O1575   1.300   .     A
C1472  N1552   1.372   .     A
C1472  C1620   1.443   1_455 S
Cu1473 O1581   1.981   .     S
Cu1473 O1569   1.983   .     S
Cu1473 Cu1474  2.705   .     S
Cu1473 N1541   2.033   .     S
Cu1473 O1754   1.979   1_455 S
Cu1473 O1759   1.984   1_455 S
Cu1474 N1552   2.033   .     S
Cu1474 O1579   1.979   .     S
Cu1474 O1582   1.984   .     S
Cu1474 O1753   1.983   1_455 S
Cu1474 O1756   1.981   1_455 S
Cu1475 O1928   1.984   1_545 S
Cu1475 N1562   2.033   .     S
Cu1475 Cu1476  2.705   .     S
Cu1475 O1936   1.983   1_545 S
Cu1475 O1571   1.979   .     S
Cu1475 O1574   1.981   .     S
Cu1476 N1563   2.033   .     S
Cu1476 O1925   1.981   1_545 S
Cu1476 O1924   1.979   1_545 S
Cu1476 O1570   1.983   .     S
Cu1476 O1575   1.984   .     S
H1477  N1545   1.030   .     S
H1481  N1548   1.031   .     S
H1485  N1549   1.030   .     S
H1490  N1550   1.022   .     S
H1494  N1551   1.031   .     S
H1498  N1553   1.029   .     S
H1503  N1554   1.030   .     S
H1507  N1555   1.030   .     S
H1511  C1814   1.110   .     S
H1512  N1556   1.029   .     S
H1516  N1557   1.030   .     S
H1520  N1558   1.029   .     S
H1521  N1546   1.029   .     S
H1525  N1559   1.028   .     S
H1529  N1560   1.030   .     S
H1534  N1561   1.028   .     S
H1540  N1547   1.031   .     S
N1541  C1586   1.373   1_455 S
N1562  C1768   1.371   1_545 A
N1563  C1765   1.371   1_545 A
O1572  Cu1828  1.979   .     S
O1573  Cu1828  1.981   .     S
O1576  Cu1827  1.984   .     S
O1577  Cu1650  1.983   .     S
O1578  Cu1649  1.979   .     S
O1580  Cu1650  1.981   .     S
O1583  Cu1649  1.984   .     S
O1584  Cu1827  1.983   .     S
C1585  C1614   1.471   .     S
C1585  O1745   1.306   .     A
C1585  O1755   1.300   .     A
C1586  C1621   1.443   .     S
C1586  C3      1.430   1_656 S
C1586  N1541   1.373   1_655 S
C1587  C1622   1.443   .     S
C1587  N1728   1.371   .     A
C1588  C1623   1.440   .     S
C1588  N1717   1.371   .     A
C1588  C240    1.428   1_556 S
C1589  N2091   1.371   .     A
C1589  C1624   1.436   .     S
C1590  C1625   1.438   .     S
C1590  C183    1.421   1_556 S
C1590  N1738   1.372   .     S
C1591  C1626   1.436   .     S
C1591  N1739   1.370   .     S
C1592  C1627   1.437   .     S
C1592  N2090   1.371   .     A
C1592  C181    1.421   1_556 S
C1593  N1721   1.423   .     S
C1593  C1604   1.406   .     A
C1593  C1612   1.411   .     A
C1594  C1611   1.419   .     A
C1594  C1605   1.399   .     A
C1594  N1722   1.422   .     S
C1595  C1602   1.399   .     A
C1595  N1723   1.425   .     S
C1595  C1611   1.410   .     A
C1596  C1613   1.475   .     S
C1596  O1754   1.307   .     A
C1596  O1753   1.302   .     A
C1597  C1612   1.416   .     A
C1597  N1724   1.417   .     S
C1597  C1603   1.403   .     A
C1598  N1725   1.424   .     S
C1598  C1614   1.410   .     A
C1598  C1609   1.401   .     A
C1599  C1613   1.416   .     A
C1599  C1610   1.397   .     A
C1599  N1726   1.422   .     S
C1600  N1727   1.423   .     S
C1600  C1613   1.409   .     A
C1600  C1606   1.404   .     A
C1601  C1614   1.414   .     A
C1601  C1608   1.392   .     A
C1601  N1729   1.423   .     S
C1602  C1616   1.405   .     A
C1602  N1730   1.424   .     S
C1603  C1615   1.400   .     A
C1603  N1731   1.428   .     S
C1604  N1732   1.423   .     S
C1604  C1615   1.405   .     A
C1605  N1733   1.427   .     S
C1605  C1616   1.410   .     A
C1606  N1734   1.423   .     S
C1606  C1619   1.410   .     A
C1607  O1756   1.308   .     A
C1607  C1612   1.477   .     S
C1607  O1759   1.301   .     A
C1608  N1735   1.425   .     S
C1608  C1617   1.413   .     A
C1609  N1736   1.425   .     S
C1609  C1617   1.409   .     A
C1610  C1619   1.416   .     A
C1610  N1737   1.438   .     S
C1611  C1618   1.473   .     S
C1615  C1647   1.458   .     S
C1616  C1646   1.463   .     S
C1617  C1640   1.461   .     S
C1618  O1758   1.307   .     A
C1618  O1757   1.300   .     A
C1619  C1629   1.462   .     S
C1620  N1740   1.158   .     T
C1620  C1472   1.443   1_655 S
C1621  N1741   1.158   .     T
C1622  N1742   1.158   .     T
C1623  N1743   1.157   .     T
C1624  N1744   1.155   .     T
C1625  N1718   1.156   .     T
C1626  N1719   1.155   .     T
C1627  N1720   1.155   .     T
C1628  N1721   1.447   .     S
C1628  H1664   1.109   .     S
C1628  H1686   1.110   .     S
C1628  H1675   1.107   .     S
C1629  O1748   1.297   .     A
C1629  O1760   1.304   .     A
C1630  N1722   1.449   .     S
C1630  H1708   1.111   .     S
C1630  H1715   1.110   .     S
C1630  H1714   1.111   .     S
C1631  H1654   1.107   .     S
C1631  H1655   1.112   .     S
C1631  H1656   1.103   .     S
C1631  N1723   1.449   .     S
C1632  H1659   1.111   .     S
C1632  N1724   1.450   .     S
C1632  H1658   1.108   .     S
C1632  H1660   1.111   .     S
C1633  H1665   1.101   .     S
C1633  H1662   1.107   .     S
C1633  N1725   1.449   .     S
C1633  H1663   1.112   .     S
C1634  N1726   1.447   .     S
C1634  H1668   1.105   .     S
C1634  H1669   1.109   .     S
C1634  H1667   1.105   .     S
C1635  H1671   1.109   .     S
C1635  N1727   1.446   .     S
C1635  H1672   1.110   .     S
C1635  H1673   1.109   .     S
C1636  H1678   1.109   .     S
C1636  N1729   1.451   .     S
C1636  H1677   1.111   .     S
C1636  H1676   1.111   .     S
C1637  H1680   1.111   .     S
C1637  H1681   1.112   .     S
C1637  H1682   1.105   .     S
C1637  N1730   1.456   .     S
C1638  H1685   1.108   .     S
C1638  N1731   1.445   .     S
C1638  H1684   1.111   .     S
C1638  H2039   1.110   1_545 S
C1639  H1689   1.109   .     S
C1639  H1690   1.112   .     S
C1639  H1691   1.108   .     S
C1639  N1732   1.448   .     S
C1640  O1747   1.303   .     A
C1640  O1746   1.298   .     A
C1641  H1693   1.111   .     S
C1641  H1694   1.111   .     S
C1641  N1733   1.446   .     S
C1641  H1695   1.111   .     S
C1642  H1700   1.109   .     S
C1642  H1699   1.110   .     S
C1642  H1698   1.112   .     S
C1642  N1734   1.451   .     S
C1643  H1704   1.110   .     S
C1643  H1703   1.110   .     S
C1643  H1702   1.111   .     S
C1643  N1735   1.446   .     S
C1644  H1709   1.109   .     S
C1644  N1736   1.456   .     S
C1644  H1707   1.105   .     S
C1644  H1706   1.113   .     S
C1645  H1713   1.108   .     S
C1645  H1711   1.112   .     S
C1645  N1737   1.451   .     S
C1645  H1712   1.111   .     S
C1646  O1752   1.299   .     A
C1646  O1749   1.303   .     A
C1647  O1750   1.299   .     A
C1647  O1751   1.300   .     A
C1648  N1728   1.372   .     A
Cu1649 O1757   1.981   .     S
Cu1649 O1745   1.983   .     S
Cu1649 Cu1650  2.705   .     S
Cu1649 N1717   2.033   .     S
Cu1650 N1728   2.033   .     S
Cu1650 O1755   1.979   .     S
Cu1650 O1758   1.984   .     S
Cu1651 O2104   1.984   1_545 S
Cu1651 N1738   2.033   .     S
Cu1651 Cu1652  2.705   .     S
Cu1651 O2112   1.983   1_545 S
Cu1651 O1747   1.979   .     S
Cu1651 O1750   1.981   .     S
Cu1652 N1739   2.033   .     S
Cu1652 O2101   1.981   1_545 S
Cu1652 O2100   1.979   1_545 S
Cu1652 O1746   1.983   .     S
Cu1652 O1751   1.984   .     S
H1653  N1721   1.030   .     S
H1657  N1724   1.031   .     S
H1661  N1725   1.030   .     S
H1666  N1726   1.022   .     S
H1670  N1727   1.031   .     S
H1674  N1729   1.029   .     S
H1679  N1730   1.030   .     S
H1683  N1731   1.030   .     S
H1687  C1990   1.110   .     S
H1688  N1732   1.029   .     S
H1692  N1733   1.030   .     S
H1696  N1734   1.029   .     S
H1697  N1722   1.029   .     S
H1701  N1735   1.028   .     S
H1705  N1736   1.030   .     S
H1710  N1737   1.028   .     S
H1716  N1723   1.031   .     S
N1738  C1944   1.371   1_545 A
N1739  C1941   1.371   1_545 A
O1748  Cu2004  1.979   .     S
O1749  Cu2004  1.981   .     S
O1752  Cu2003  1.984   .     S
O1753  Cu1474  1.983   1_655 S
O1754  Cu1473  1.979   1_655 S
O1756  Cu1474  1.981   1_655 S
O1759  Cu1473  1.984   1_655 S
O1760  Cu2003  1.983   .     S
C1761  C1790   1.471   .     S
C1761  O1921   1.306   .     A
C1761  O1931   1.300   .     A
C1762  C1797   1.443   .     S
C1762  C531    1.430   1_556 S
C1762  N2069   1.373   .     S
C1763  C1798   1.443   .     S
C1763  N1904   1.371   .     A
C1763  C1234   1.430   1_455 S
C1764  C1799   1.440   .     S
C1764  N1893   1.371   .     A
C1764  C416    1.428   1_556 S
C1765  N1563   1.371   1_565 A
C1765  C1800   1.436   .     S
C1766  C1801   1.438   .     S
C1766  C359    1.421   1_556 S
C1766  N1914   1.372   .     S
C1767  C1802   1.436   .     S
C1767  N1915   1.370   .     S
C1768  C1803   1.437   .     S
C1768  N1562   1.371   1_565 A
C1768  C357    1.421   1_556 S
C1769  N1897   1.423   .     S
C1769  C1780   1.406   .     A
C1769  C1788   1.411   .     A
C1770  C1787   1.419   .     A
C1770  C1781   1.399   .     A
C1770  N1898   1.422   .     S
C1771  C1778   1.399   .     A
C1771  N1899   1.425   .     S
C1771  C1787   1.410   .     A
C1772  C1789   1.475   .     S
C1772  O1930   1.307   .     A
C1772  O1929   1.302   .     A
C1773  C1788   1.416   .     A
C1773  N1900   1.417   .     S
C1773  C1779   1.403   .     A
C1774  N1901   1.424   .     S
C1774  C1790   1.410   .     A
C1774  C1785   1.401   .     A
C1775  C1789   1.416   .     A
C1775  C1786   1.397   .     A
C1775  N1902   1.422   .     S
C1776  N1903   1.423   .     S
C1776  C1789   1.409   .     A
C1776  C1782   1.404   .     A
C1777  C1790   1.414   .     A
C1777  C1784   1.392   .     A
C1777  N1905   1.423   .     S
C1778  C1792   1.405   .     A
C1778  N1906   1.424   .     S
C1779  C1791   1.400   .     A
C1779  N1907   1.428   .     S
C1780  N1908   1.423   .     S
C1780  C1791   1.405   .     A
C1781  N1909   1.427   .     S
C1781  C1792   1.410   .     A
C1782  N1910   1.423   .     S
C1782  C1795   1.410   .     A
C1783  O1932   1.308   .     A
C1783  C1788   1.477   .     S
C1783  O1935   1.301   .     A
C1784  N1911   1.425   .     S
C1784  C1793   1.413   .     A
C1785  N1912   1.425   .     S
C1785  C1793   1.409   .     A
C1786  C1795   1.416   .     A
C1786  N1913   1.438   .     S
C1787  C1794   1.473   .     S
C1791  C1823   1.458   .     S
C1792  C1822   1.463   .     S
C1793  C1816   1.461   .     S
C1794  O1934   1.307   .     A
C1794  O1933   1.300   .     A
C1795  C1805   1.462   .     S
C1796  N1916   1.158   .     T
C1796  C2000   1.443   .     S
C1797  N1917   1.158   .     T
C1798  N1918   1.158   .     T
C1799  N1919   1.157   .     T
C1800  N1920   1.155   .     T
C1801  N1894   1.156   .     T
C1802  N1895   1.155   .     T
C1803  N1896   1.155   .     T
C1804  N1897   1.447   .     S
C1804  H1840   1.109   .     S
C1804  H1862   1.110   .     S
C1804  H1851   1.107   .     S
C1805  O1924   1.297   .     A
C1805  O1936   1.304   .     A
C1806  N1898   1.449   .     S
C1806  H1884   1.111   .     S
C1806  H1891   1.110   .     S
C1806  H1890   1.111   .     S
C1807  H1830   1.107   .     S
C1807  H1831   1.112   .     S
C1807  H1832   1.103   .     S
C1807  N1899   1.449   .     S
C1808  H1835   1.111   .     S
C1808  N1900   1.450   .     S
C1808  H1834   1.108   .     S
C1808  H1836   1.111   .     S
C1809  H1841   1.101   .     S
C1809  H1838   1.107   .     S
C1809  N1901   1.449   .     S
C1809  H1839   1.112   .     S
C1810  N1902   1.447   .     S
C1810  H1844   1.105   .     S
C1810  H1845   1.109   .     S
C1810  H1843   1.105   .     S
C1811  H1847   1.109   .     S
C1811  N1903   1.446   .     S
C1811  H1848   1.110   .     S
C1811  H1849   1.109   .     S
C1812  H1854   1.109   .     S
C1812  N1905   1.451   .     S
C1812  H1853   1.111   .     S
C1812  H1852   1.111   .     S
C1813  H1856   1.111   .     S
C1813  H1857   1.112   .     S
C1813  H1858   1.105   .     S
C1813  N1906   1.456   .     S
C1814  H1861   1.108   .     S
C1814  N1907   1.445   .     S
C1814  H1860   1.111   .     S
C1815  H1865   1.109   .     S
C1815  H1866   1.112   .     S
C1815  H1867   1.108   .     S
C1815  N1908   1.448   .     S
C1816  O1923   1.303   .     A
C1816  O1922   1.298   .     A
C1817  H1869   1.111   .     S
C1817  H1870   1.111   .     S
C1817  N1909   1.446   .     S
C1817  H1871   1.111   .     S
C1818  H1876   1.109   .     S
C1818  H1875   1.110   .     S
C1818  H1874   1.112   .     S
C1818  N1910   1.451   .     S
C1819  H1880   1.110   .     S
C1819  H1879   1.110   .     S
C1819  H1878   1.111   .     S
C1819  N1911   1.446   .     S
C1820  H1885   1.109   .     S
C1820  N1912   1.456   .     S
C1820  H1883   1.105   .     S
C1820  H1882   1.113   .     S
C1821  H1889   1.108   .     S
C1821  H1887   1.112   .     S
C1821  N1913   1.451   .     S
C1821  H1888   1.111   .     S
C1822  O1928   1.299   .     A
C1822  O1925   1.303   .     A
C1823  O1926   1.299   .     A
C1823  O1927   1.300   .     A
C1824  N1904   1.372   .     A
C1824  C1972   1.443   1_455 S
Cu1825 O1933   1.981   .     S
Cu1825 O1921   1.983   .     S
Cu1825 Cu1826  2.705   .     S
Cu1825 N1893   2.033   .     S
Cu1825 O2106   1.979   1_455 S
Cu1825 O2111   1.984   1_455 S
Cu1826 N1904   2.033   .     S
Cu1826 O1931   1.979   .     S
Cu1826 O1934   1.984   .     S
Cu1826 O2105   1.983   1_455 S
Cu1826 O2108   1.981   1_455 S
Cu1827 N1914   2.033   .     S
Cu1827 Cu1828  2.705   .     S
Cu1827 O1923   1.979   .     S
Cu1827 O1926   1.981   .     S
Cu1828 N1915   2.033   .     S
Cu1828 O1922   1.983   .     S
Cu1828 O1927   1.984   .     S
H1829  N1897   1.030   .     S
H1833  N1900   1.031   .     S
H1837  N1901   1.030   .     S
H1842  N1902   1.022   .     S
H1846  N1903   1.031   .     S
H1850  N1905   1.029   .     S
H1855  N1906   1.030   .     S
H1859  N1907   1.030   .     S
H1863  C1462   1.110   1_565 S
H1864  N1908   1.029   .     S
H1868  N1909   1.030   .     S
H1872  N1910   1.029   .     S
H1873  N1898   1.029   .     S
H1877  N1911   1.028   .     S
H1881  N1912   1.030   .     S
H1886  N1913   1.028   .     S
H1892  N1899   1.031   .     S
N1893  C1938   1.373   1_455 S
O1924  Cu1476  1.979   1_565 S
O1925  Cu1476  1.981   1_565 S
O1928  Cu1475  1.984   1_565 S
O1929  Cu2002  1.983   .     S
O1930  Cu2001  1.979   .     S
O1932  Cu2002  1.981   .     S
O1935  Cu2001  1.984   .     S
O1936  Cu1475  1.983   1_565 S
C1937  C1966   1.471   .     S
C1937  O2097   1.306   .     A
C1937  O2107   1.300   .     A
C1938  C1973   1.443   .     S
C1938  C355    1.430   1_656 S
C1938  N1893   1.373   1_655 S
C1939  C1974   1.443   .     S
C1939  N2080   1.371   .     A
C1940  C1975   1.440   .     S
C1940  N2069   1.371   .     A
C1940  C592    1.428   1_556 S
C1941  N1739   1.371   1_565 A
C1941  C1976   1.436   .     S
C1942  C1977   1.438   .     S
C1942  C535    1.421   1_556 S
C1942  N2090   1.372   .     S
C1943  C1978   1.436   .     S
C1943  N2091   1.370   .     S
C1944  C1979   1.437   .     S
C1944  N1738   1.371   1_565 A
C1944  C533    1.421   1_556 S
C1945  N2073   1.423   .     S
C1945  C1956   1.406   .     A
C1945  C1964   1.411   .     A
C1946  C1963   1.419   .     A
C1946  C1957   1.399   .     A
C1946  N2074   1.422   .     S
C1947  C1954   1.399   .     A
C1947  N2075   1.425   .     S
C1947  C1963   1.410   .     A
C1948  C1965   1.475   .     S
C1948  O2106   1.307   .     A
C1948  O2105   1.302   .     A
C1949  C1964   1.416   .     A
C1949  N2076   1.417   .     S
C1949  C1955   1.403   .     A
C1950  N2077   1.424   .     S
C1950  C1966   1.410   .     A
C1950  C1961   1.401   .     A
C1951  C1965   1.416   .     A
C1951  C1962   1.397   .     A
C1951  N2078   1.422   .     S
C1952  N2079   1.423   .     S
C1952  C1965   1.409   .     A
C1952  C1958   1.404   .     A
C1953  C1966   1.414   .     A
C1953  C1960   1.392   .     A
C1953  N2081   1.423   .     S
C1954  C1968   1.405   .     A
C1954  N2082   1.424   .     S
C1955  C1967   1.400   .     A
C1955  N2083   1.428   .     S
C1956  N2084   1.423   .     S
C1956  C1967   1.405   .     A
C1957  N2085   1.427   .     S
C1957  C1968   1.410   .     A
C1958  N2086   1.423   .     S
C1958  C1971   1.410   .     A
C1959  O2108   1.308   .     A
C1959  C1964   1.477   .     S
C1959  O2111   1.301   .     A
C1960  N2087   1.425   .     S
C1960  C1969   1.413   .     A
C1961  N2088   1.425   .     S
C1961  C1969   1.409   .     A
C1962  C1971   1.416   .     A
C1962  N2089   1.438   .     S
C1963  C1970   1.473   .     S
C1967  C1999   1.458   .     S
C1968  C1998   1.463   .     S
C1969  C1992   1.461   .     S
C1970  O2110   1.307   .     A
C1970  O2109   1.300   .     A
C1971  C1981   1.462   .     S
C1972  N2092   1.158   .     T
C1972  C1824   1.443   1_655 S
C1973  N2093   1.158   .     T
C1974  N2094   1.158   .     T
C1975  N2095   1.157   .     T
C1976  N2096   1.155   .     T
C1977  N2070   1.156   .     T
C1978  N2071   1.155   .     T
C1979  N2072   1.155   .     T
C1980  N2073   1.447   .     S
C1980  H2016   1.109   .     S
C1980  H2038   1.110   .     S
C1980  H2027   1.107   .     S
C1981  O2100   1.297   .     A
C1981  O2112   1.304   .     A
C1982  N2074   1.449   .     S
C1982  H2060   1.111   .     S
C1982  H2067   1.110   .     S
C1982  H2066   1.111   .     S
C1983  H2006   1.107   .     S
C1983  H2007   1.112   .     S
C1983  H2008   1.103   .     S
C1983  N2075   1.449   .     S
C1984  H2011   1.111   .     S
C1984  N2076   1.450   .     S
C1984  H2010   1.108   .     S
C1984  H2012   1.111   .     S
C1985  H2017   1.101   .     S
C1985  H2014   1.107   .     S
C1985  N2077   1.449   .     S
C1985  H2015   1.112   .     S
C1986  N2078   1.447   .     S
C1986  H2020   1.105   .     S
C1986  H2021   1.109   .     S
C1986  H2019   1.105   .     S
C1987  H2023   1.109   .     S
C1987  N2079   1.446   .     S
C1987  H2024   1.110   .     S
C1987  H2025   1.109   .     S
C1988  H2030   1.109   .     S
C1988  N2081   1.451   .     S
C1988  H2029   1.111   .     S
C1988  H2028   1.111   .     S
C1989  H2032   1.111   .     S
C1989  H2033   1.112   .     S
C1989  H2034   1.105   .     S
C1989  N2082   1.456   .     S
C1990  H2037   1.108   .     S
C1990  N2083   1.445   .     S
C1990  H2036   1.111   .     S
C1991  H2041   1.109   .     S
C1991  H2042   1.112   .     S
C1991  H2043   1.108   .     S
C1991  N2084   1.448   .     S
C1992  O2099   1.303   .     A
C1992  O2098   1.298   .     A
C1993  H2045   1.111   .     S
C1993  H2046   1.111   .     S
C1993  N2085   1.446   .     S
C1993  H2047   1.111   .     S
C1994  H2052   1.109   .     S
C1994  H2051   1.110   .     S
C1994  H2050   1.112   .     S
C1994  N2086   1.451   .     S
C1995  H2056   1.110   .     S
C1995  H2055   1.110   .     S
C1995  H2054   1.111   .     S
C1995  N2087   1.446   .     S
C1996  H2061   1.109   .     S
C1996  N2088   1.456   .     S
C1996  H2059   1.105   .     S
C1996  H2058   1.113   .     S
C1997  H2065   1.108   .     S
C1997  H2063   1.112   .     S
C1997  N2089   1.451   .     S
C1997  H2064   1.111   .     S
C1998  O2104   1.299   .     A
C1998  O2101   1.303   .     A
C1999  O2102   1.299   .     A
C1999  O2103   1.300   .     A
C2000  N2080   1.372   .     A
Cu2001 O2109   1.981   .     S
Cu2001 O2097   1.983   .     S
Cu2001 Cu2002  2.705   .     S
Cu2001 N2069   2.033   .     S
Cu2002 N2080   2.033   .     S
Cu2002 O2107   1.979   .     S
Cu2002 O2110   1.984   .     S
Cu2003 N2090   2.033   .     S
Cu2003 Cu2004  2.705   .     S
Cu2003 O2099   1.979   .     S
Cu2003 O2102   1.981   .     S
Cu2004 N2091   2.033   .     S
Cu2004 O2098   1.983   .     S
Cu2004 O2103   1.984   .     S
H2005  N2073   1.030   .     S
H2009  N2076   1.031   .     S
H2013  N2077   1.030   .     S
H2018  N2078   1.022   .     S
H2022  N2079   1.031   .     S
H2026  N2081   1.029   .     S
H2031  N2082   1.030   .     S
H2035  N2083   1.030   .     S
H2039  C1638   1.110   1_565 S
H2040  N2084   1.029   .     S
H2044  N2085   1.030   .     S
H2048  N2086   1.029   .     S
H2049  N2074   1.029   .     S
H2053  N2087   1.028   .     S
H2057  N2088   1.030   .     S
H2062  N2089   1.028   .     S
H2068  N2075   1.031   .     S
O2100  Cu1652  1.979   1_565 S
O2101  Cu1652  1.981   1_565 S
O2104  Cu1651  1.984   1_565 S
O2105  Cu1826  1.983   1_655 S
O2106  Cu1825  1.979   1_655 S
O2108  Cu1826  1.981   1_655 S
O2111  Cu1825  1.984   1_655 S
O2112  Cu1651  1.983   1_565 S
