data_str_m2_o1_o16_pcu_sym.238
_audit_creation_date              2020-01-03
_audit_creation_method            'Materials Studio'
_symmetry_space_group_name_H-M    'P1'
_symmetry_Int_Tables_number       1
_symmetry_cell_setting            triclinic
loop_
_symmetry_equiv_pos_as_xyz
  x,y,z
_cell_length_a                    28.5132
_cell_length_b                    32.4876
_cell_length_c                    26.9914
_cell_angle_alpha                 90.0130
_cell_angle_beta                  72.5676
_cell_angle_gamma                 89.7377
loop_
_atom_site_label
_atom_site_type_symbol
_atom_site_fract_x
_atom_site_fract_y
_atom_site_fract_z
_atom_site_U_iso_or_equiv
_atom_site_adp_type
_atom_site_occupancy
C1     C     0.16685   0.24600   0.24856   0.00000  Uiso   1.00
C2     C     0.14874   0.17384   0.48738   0.00000  Uiso   1.00
C3     C     0.15906   0.15880   0.43567   0.00000  Uiso   1.00
C4     C     0.18410   0.16621   0.01407   0.00000  Uiso   1.00
C5     C     0.23164   0.15126   0.48670   0.00000  Uiso   1.00
C6     C     0.24064   0.13643   0.43646   0.00000  Uiso   1.00
C7     C     0.20352   0.13713   0.41309   0.00000  Uiso   1.00
C8     C     0.17224   0.16884   0.06798   0.00000  Uiso   1.00
C9     C     0.25679   0.15564   0.06459   0.00000  Uiso   1.00
C10    C     0.12528   0.16669   0.40731   0.00000  Uiso   1.00
C11    C     0.20151   0.31174   0.26481   0.00000  Uiso   1.00
C12    C     0.14053   0.16492   0.35009   0.00000  Uiso   1.00
C13    C     0.20187   0.02099   0.26540   0.00000  Uiso   1.00
C14    C     0.16719   0.04293   0.24865   0.00000  Uiso   1.00
C15    C     0.13287   0.02226   0.23026   0.00000  Uiso   1.00
C16    C     0.13256   0.31300   0.22878   0.00000  Uiso   1.00
C17    C     0.16675   0.29071   0.24707   0.00000  Uiso   1.00
C18    C     0.29877   0.19081   0.28403   0.00000  Uiso   1.00
C19    C     0.01507   0.19075   0.28406   0.00000  Uiso   1.00
C20    C     0.03457   0.14255   0.21594   0.00000  Uiso   1.00
C21    C     0.31826   0.14256   0.21595   0.00000  Uiso   1.00
C22    C     0.16681   0.08741   0.24979   0.00000  Uiso   1.00
C23    C     0.19289   0.16633   0.15005   0.00000  Uiso   1.00
C24    C     0.26824   0.14791   0.01155   0.00000  Uiso   1.00
C25    C     0.20811   0.16440   0.09334   0.00000  Uiso   1.00
C26    C     0.07897   0.18331   0.43284   0.00000  Uiso   1.00
C27    C     0.06888   0.19841   0.48295   0.00000  Uiso   1.00
C28    C     0.10438   0.19686   0.00891   0.00000  Uiso   1.00
Cu29   Cu    0.11978   0.16666   0.25000   0.00000  Uiso   1.00
Cu30   Cu    0.21355   0.16667   0.25000   0.00000  Uiso   1.00
H31    H     0.28511   0.15201   0.08352   0.00000  Uiso   1.00
H32    H     0.22866   0.03670   0.27973   0.00000  Uiso   1.00
H33    H     0.10670   0.03928   0.21612   0.00000  Uiso   1.00
H34    H     0.27225   0.21017   0.31126   0.00000  Uiso   1.00
H35    H     0.02602   0.21006   0.31129   0.00000  Uiso   1.00
H36    H     0.06109   0.12317   0.18873   0.00000  Uiso   1.00
H37    H     0.30730   0.12325   0.18873   0.00000  Uiso   1.00
H38    H     0.27545   0.12188   0.41638   0.00000  Uiso   1.00
H39    H     0.30510   0.13783   0.49040   0.00000  Uiso   1.00
H40    H     0.13428   0.17114   0.09098   0.00000  Uiso   1.00
H41    H     0.05210   0.18856   0.41236   0.00000  Uiso   1.00
H42    H     0.03469   0.21488   0.49983   0.00000  Uiso   1.00
H43    H     0.21048   0.12038   0.37703   0.00000  Uiso   1.00
H44    H     0.22806   0.29528   0.27896   0.00000  Uiso   1.00
N45    N     0.04931   0.16666   0.24998   0.00000  Uiso   1.00
N46    N     0.28402   0.16669   0.25000   0.00000  Uiso   1.00
O47    O     0.12708   0.22678   0.25001   0.00000  Uiso   1.00
O48    O     0.20627   0.22679   0.25001   0.00000  Uiso   1.00
O49    O     0.10775   0.16665   0.32549   0.00000  Uiso   1.00
O50    O     0.18694   0.16666   0.32549   0.00000  Uiso   1.00
O51    O     0.12706   0.10654   0.25000   0.00000  Uiso   1.00
O52    O     0.20625   0.10655   0.25000   0.00000  Uiso   1.00
O53    O     0.14640   0.16667   0.17451   0.00000  Uiso   1.00
O54    O     0.22559   0.16668   0.17451   0.00000  Uiso   1.00
Br55   Br    0.08603   0.28842   0.19874   0.00000  Uiso   1.00
Br56   Br    0.09299   0.23561   0.06551   0.00000  Uiso   1.00
C57    C     0.50019   0.24600   0.24856   0.00000  Uiso   1.00
C58    C     0.48207   0.17384   0.48738   0.00000  Uiso   1.00
C59    C     0.49240   0.15880   0.43567   0.00000  Uiso   1.00
C60    C     0.51744   0.16621   0.01407   0.00000  Uiso   1.00
C61    C     0.56497   0.15126   0.48670   0.00000  Uiso   1.00
C62    C     0.57398   0.13643   0.43646   0.00000  Uiso   1.00
C63    C     0.53685   0.13713   0.41309   0.00000  Uiso   1.00
C64    C     0.50557   0.16884   0.06798   0.00000  Uiso   1.00
C65    C     0.59013   0.15564   0.06459   0.00000  Uiso   1.00
C66    C     0.45861   0.16669   0.40731   0.00000  Uiso   1.00
C67    C     0.53484   0.31174   0.26481   0.00000  Uiso   1.00
C68    C     0.47387   0.16492   0.35009   0.00000  Uiso   1.00
C69    C     0.53520   0.02099   0.26540   0.00000  Uiso   1.00
C70    C     0.50053   0.04293   0.24865   0.00000  Uiso   1.00
C71    C     0.46621   0.02226   0.23026   0.00000  Uiso   1.00
C72    C     0.46589   0.31300   0.22878   0.00000  Uiso   1.00
C73    C     0.50009   0.29071   0.24707   0.00000  Uiso   1.00
C74    C     0.63210   0.19081   0.28403   0.00000  Uiso   1.00
C75    C     0.34840   0.19075   0.28406   0.00000  Uiso   1.00
C76    C     0.36790   0.14255   0.21594   0.00000  Uiso   1.00
C77    C     0.65159   0.14256   0.21595   0.00000  Uiso   1.00
C78    C     0.50015   0.08741   0.24979   0.00000  Uiso   1.00
C79    C     0.52623   0.16633   0.15005   0.00000  Uiso   1.00
C80    C     0.60157   0.14791   0.01155   0.00000  Uiso   1.00
C81    C     0.54144   0.16440   0.09334   0.00000  Uiso   1.00
C82    C     0.41230   0.18331   0.43284   0.00000  Uiso   1.00
C83    C     0.40221   0.19841   0.48295   0.00000  Uiso   1.00
C84    C     0.43772   0.19686   0.00891   0.00000  Uiso   1.00
Cu85   Cu    0.45311   0.16666   0.25000   0.00000  Uiso   1.00
Cu86   Cu    0.54689   0.16667   0.25000   0.00000  Uiso   1.00
H87    H     0.61844   0.15201   0.08352   0.00000  Uiso   1.00
H88    H     0.56199   0.03670   0.27973   0.00000  Uiso   1.00
H89    H     0.44004   0.03928   0.21612   0.00000  Uiso   1.00
H90    H     0.60558   0.21017   0.31126   0.00000  Uiso   1.00
H91    H     0.35935   0.21006   0.31129   0.00000  Uiso   1.00
H92    H     0.39442   0.12317   0.18873   0.00000  Uiso   1.00
H93    H     0.64064   0.12325   0.18873   0.00000  Uiso   1.00
H94    H     0.60879   0.12188   0.41638   0.00000  Uiso   1.00
H95    H     0.63843   0.13783   0.49040   0.00000  Uiso   1.00
H96    H     0.46761   0.17114   0.09098   0.00000  Uiso   1.00
H97    H     0.38543   0.18856   0.41236   0.00000  Uiso   1.00
H98    H     0.36802   0.21488   0.49983   0.00000  Uiso   1.00
H99    H     0.54381   0.12038   0.37703   0.00000  Uiso   1.00
H100   H     0.56139   0.29528   0.27896   0.00000  Uiso   1.00
N101   N     0.38265   0.16666   0.24998   0.00000  Uiso   1.00
N102   N     0.61735   0.16669   0.25000   0.00000  Uiso   1.00
O103   O     0.46042   0.22678   0.25001   0.00000  Uiso   1.00
O104   O     0.53961   0.22679   0.25001   0.00000  Uiso   1.00
O105   O     0.44108   0.16665   0.32549   0.00000  Uiso   1.00
O106   O     0.52027   0.16666   0.32549   0.00000  Uiso   1.00
O107   O     0.46039   0.10654   0.25000   0.00000  Uiso   1.00
O108   O     0.53958   0.10655   0.25000   0.00000  Uiso   1.00
O109   O     0.47973   0.16667   0.17451   0.00000  Uiso   1.00
O110   O     0.55892   0.16668   0.17451   0.00000  Uiso   1.00
Br111  Br    0.41937   0.28842   0.19874   0.00000  Uiso   1.00
Br112  Br    0.42633   0.23561   0.06551   0.00000  Uiso   1.00
C113   C     0.83352   0.24600   0.24856   0.00000  Uiso   1.00
C114   C     0.81541   0.17384   0.48738   0.00000  Uiso   1.00
C115   C     0.82573   0.15880   0.43567   0.00000  Uiso   1.00
C116   C     0.85077   0.16621   0.01407   0.00000  Uiso   1.00
C117   C     0.89830   0.15126   0.48670   0.00000  Uiso   1.00
C118   C     0.90731   0.13643   0.43646   0.00000  Uiso   1.00
C119   C     0.87019   0.13713   0.41309   0.00000  Uiso   1.00
C120   C     0.83890   0.16884   0.06798   0.00000  Uiso   1.00
C121   C     0.92346   0.15564   0.06459   0.00000  Uiso   1.00
C122   C     0.79195   0.16669   0.40731   0.00000  Uiso   1.00
C123   C     0.86818   0.31174   0.26481   0.00000  Uiso   1.00
C124   C     0.80720   0.16492   0.35009   0.00000  Uiso   1.00
C125   C     0.86853   0.02099   0.26540   0.00000  Uiso   1.00
C126   C     0.83386   0.04293   0.24865   0.00000  Uiso   1.00
C127   C     0.79954   0.02226   0.23026   0.00000  Uiso   1.00
C128   C     0.79922   0.31300   0.22878   0.00000  Uiso   1.00
C129   C     0.83342   0.29071   0.24707   0.00000  Uiso   1.00
C130   C     0.96543   0.19081   0.28403   0.00000  Uiso   1.00
C131   C     0.68173   0.19075   0.28406   0.00000  Uiso   1.00
C132   C     0.70124   0.14255   0.21594   0.00000  Uiso   1.00
C133   C     0.98492   0.14256   0.21595   0.00000  Uiso   1.00
C134   C     0.83348   0.08741   0.24979   0.00000  Uiso   1.00
C135   C     0.85956   0.16633   0.15005   0.00000  Uiso   1.00
C136   C     0.93491   0.14791   0.01155   0.00000  Uiso   1.00
C137   C     0.87478   0.16440   0.09334   0.00000  Uiso   1.00
C138   C     0.74563   0.18331   0.43284   0.00000  Uiso   1.00
C139   C     0.73555   0.19841   0.48295   0.00000  Uiso   1.00
C140   C     0.77105   0.19686   0.00891   0.00000  Uiso   1.00
Cu141  Cu    0.78645   0.16666   0.25000   0.00000  Uiso   1.00
Cu142  Cu    0.88022   0.16667   0.25000   0.00000  Uiso   1.00
H143   H     0.95178   0.15201   0.08352   0.00000  Uiso   1.00
H144   H     0.89532   0.03670   0.27973   0.00000  Uiso   1.00
H145   H     0.77337   0.03928   0.21612   0.00000  Uiso   1.00
H146   H     0.93891   0.21017   0.31126   0.00000  Uiso   1.00
H147   H     0.69269   0.21006   0.31129   0.00000  Uiso   1.00
H148   H     0.72776   0.12317   0.18873   0.00000  Uiso   1.00
H149   H     0.97397   0.12325   0.18873   0.00000  Uiso   1.00
H150   H     0.94212   0.12188   0.41638   0.00000  Uiso   1.00
H151   H     0.97177   0.13783   0.49040   0.00000  Uiso   1.00
H152   H     0.80094   0.17114   0.09098   0.00000  Uiso   1.00
H153   H     0.71877   0.18856   0.41236   0.00000  Uiso   1.00
H154   H     0.70136   0.21488   0.49983   0.00000  Uiso   1.00
H155   H     0.87715   0.12038   0.37703   0.00000  Uiso   1.00
H156   H     0.89472   0.29528   0.27896   0.00000  Uiso   1.00
N157   N     0.71598   0.16666   0.24998   0.00000  Uiso   1.00
N158   N     0.95069   0.16669   0.25000   0.00000  Uiso   1.00
O159   O     0.79375   0.22678   0.25001   0.00000  Uiso   1.00
O160   O     0.87294   0.22679   0.25001   0.00000  Uiso   1.00
O161   O     0.77441   0.16665   0.32549   0.00000  Uiso   1.00
O162   O     0.85360   0.16666   0.32549   0.00000  Uiso   1.00
O163   O     0.79373   0.10654   0.25000   0.00000  Uiso   1.00
O164   O     0.87292   0.10655   0.25000   0.00000  Uiso   1.00
O165   O     0.81306   0.16667   0.17451   0.00000  Uiso   1.00
O166   O     0.89225   0.16668   0.17451   0.00000  Uiso   1.00
Br167  Br    0.75270   0.28842   0.19874   0.00000  Uiso   1.00
Br168  Br    0.75966   0.23561   0.06551   0.00000  Uiso   1.00
C169   C     0.16685   0.57934   0.24856   0.00000  Uiso   1.00
C170   C     0.14874   0.50717   0.48738   0.00000  Uiso   1.00
C171   C     0.15906   0.49213   0.43567   0.00000  Uiso   1.00
C172   C     0.18410   0.49954   0.01407   0.00000  Uiso   1.00
C173   C     0.23164   0.48459   0.48670   0.00000  Uiso   1.00
C174   C     0.24064   0.46976   0.43646   0.00000  Uiso   1.00
C175   C     0.20352   0.47046   0.41309   0.00000  Uiso   1.00
C176   C     0.17224   0.50217   0.06798   0.00000  Uiso   1.00
C177   C     0.25679   0.48897   0.06459   0.00000  Uiso   1.00
C178   C     0.12528   0.50002   0.40731   0.00000  Uiso   1.00
C179   C     0.20151   0.64508   0.26481   0.00000  Uiso   1.00
C180   C     0.14053   0.49825   0.35009   0.00000  Uiso   1.00
C181   C     0.20187   0.35432   0.26540   0.00000  Uiso   1.00
C182   C     0.16719   0.37626   0.24865   0.00000  Uiso   1.00
C183   C     0.13287   0.35560   0.23026   0.00000  Uiso   1.00
C184   C     0.13256   0.64633   0.22878   0.00000  Uiso   1.00
C185   C     0.16675   0.62404   0.24707   0.00000  Uiso   1.00
C186   C     0.29877   0.52414   0.28403   0.00000  Uiso   1.00
C187   C     0.01507   0.52409   0.28406   0.00000  Uiso   1.00
C188   C     0.03457   0.47588   0.21594   0.00000  Uiso   1.00
C189   C     0.31826   0.47590   0.21595   0.00000  Uiso   1.00
C190   C     0.16681   0.42074   0.24979   0.00000  Uiso   1.00
C191   C     0.19289   0.49966   0.15005   0.00000  Uiso   1.00
C192   C     0.26824   0.48124   0.01155   0.00000  Uiso   1.00
C193   C     0.20811   0.49774   0.09334   0.00000  Uiso   1.00
C194   C     0.07897   0.51664   0.43284   0.00000  Uiso   1.00
C195   C     0.06888   0.53174   0.48295   0.00000  Uiso   1.00
C196   C     0.10438   0.53019   0.00891   0.00000  Uiso   1.00
Cu197  Cu    0.11978   0.49999   0.25000   0.00000  Uiso   1.00
Cu198  Cu    0.21355   0.50001   0.25000   0.00000  Uiso   1.00
H199   H     0.28511   0.48535   0.08352   0.00000  Uiso   1.00
H200   H     0.22866   0.37003   0.27973   0.00000  Uiso   1.00
H201   H     0.10670   0.37261   0.21612   0.00000  Uiso   1.00
H202   H     0.27225   0.54351   0.31126   0.00000  Uiso   1.00
H203   H     0.02602   0.54340   0.31129   0.00000  Uiso   1.00
H204   H     0.06109   0.45650   0.18873   0.00000  Uiso   1.00
H205   H     0.30730   0.45658   0.18873   0.00000  Uiso   1.00
H206   H     0.27545   0.45521   0.41638   0.00000  Uiso   1.00
H207   H     0.30510   0.47116   0.49040   0.00000  Uiso   1.00
H208   H     0.13428   0.50447   0.09098   0.00000  Uiso   1.00
H209   H     0.05210   0.52189   0.41236   0.00000  Uiso   1.00
H210   H     0.03469   0.54821   0.49983   0.00000  Uiso   1.00
H211   H     0.21048   0.45371   0.37703   0.00000  Uiso   1.00
H212   H     0.22806   0.62862   0.27896   0.00000  Uiso   1.00
N213   N     0.04931   0.49999   0.24998   0.00000  Uiso   1.00
N214   N     0.28402   0.50002   0.25000   0.00000  Uiso   1.00
O215   O     0.12708   0.56011   0.25001   0.00000  Uiso   1.00
O216   O     0.20627   0.56012   0.25001   0.00000  Uiso   1.00
O217   O     0.10775   0.49998   0.32549   0.00000  Uiso   1.00
O218   O     0.18694   0.49999   0.32549   0.00000  Uiso   1.00
O219   O     0.12706   0.43988   0.25000   0.00000  Uiso   1.00
O220   O     0.20625   0.43989   0.25000   0.00000  Uiso   1.00
O221   O     0.14640   0.50001   0.17451   0.00000  Uiso   1.00
O222   O     0.22559   0.50002   0.17451   0.00000  Uiso   1.00
Br223  Br    0.08603   0.62175   0.19874   0.00000  Uiso   1.00
Br224  Br    0.09299   0.56894   0.06551   0.00000  Uiso   1.00
C225   C     0.50019   0.57934   0.24856   0.00000  Uiso   1.00
C226   C     0.48207   0.50717   0.48738   0.00000  Uiso   1.00
C227   C     0.49240   0.49213   0.43567   0.00000  Uiso   1.00
C228   C     0.51744   0.49954   0.01407   0.00000  Uiso   1.00
C229   C     0.56497   0.48459   0.48670   0.00000  Uiso   1.00
C230   C     0.57398   0.46976   0.43646   0.00000  Uiso   1.00
C231   C     0.53685   0.47046   0.41309   0.00000  Uiso   1.00
C232   C     0.50557   0.50217   0.06798   0.00000  Uiso   1.00
C233   C     0.59013   0.48897   0.06459   0.00000  Uiso   1.00
C234   C     0.45861   0.50002   0.40731   0.00000  Uiso   1.00
C235   C     0.53484   0.64508   0.26481   0.00000  Uiso   1.00
C236   C     0.47387   0.49825   0.35009   0.00000  Uiso   1.00
C237   C     0.53520   0.35432   0.26540   0.00000  Uiso   1.00
C238   C     0.50053   0.37626   0.24865   0.00000  Uiso   1.00
C239   C     0.46621   0.35560   0.23026   0.00000  Uiso   1.00
C240   C     0.46589   0.64633   0.22878   0.00000  Uiso   1.00
C241   C     0.50009   0.62404   0.24707   0.00000  Uiso   1.00
C242   C     0.63210   0.52414   0.28403   0.00000  Uiso   1.00
C243   C     0.34840   0.52409   0.28406   0.00000  Uiso   1.00
C244   C     0.36790   0.47588   0.21594   0.00000  Uiso   1.00
C245   C     0.65159   0.47590   0.21595   0.00000  Uiso   1.00
C246   C     0.50015   0.42074   0.24979   0.00000  Uiso   1.00
C247   C     0.52623   0.49966   0.15005   0.00000  Uiso   1.00
C248   C     0.60157   0.48124   0.01155   0.00000  Uiso   1.00
C249   C     0.54144   0.49774   0.09334   0.00000  Uiso   1.00
C250   C     0.41230   0.51664   0.43284   0.00000  Uiso   1.00
C251   C     0.40221   0.53174   0.48295   0.00000  Uiso   1.00
C252   C     0.43772   0.53019   0.00891   0.00000  Uiso   1.00
Cu253  Cu    0.45311   0.49999   0.25000   0.00000  Uiso   1.00
Cu254  Cu    0.54689   0.50001   0.25000   0.00000  Uiso   1.00
H255   H     0.61844   0.48535   0.08352   0.00000  Uiso   1.00
H256   H     0.56199   0.37003   0.27973   0.00000  Uiso   1.00
H257   H     0.44004   0.37261   0.21612   0.00000  Uiso   1.00
H258   H     0.60558   0.54351   0.31126   0.00000  Uiso   1.00
H259   H     0.35935   0.54340   0.31129   0.00000  Uiso   1.00
H260   H     0.39442   0.45650   0.18873   0.00000  Uiso   1.00
H261   H     0.64064   0.45658   0.18873   0.00000  Uiso   1.00
H262   H     0.60879   0.45521   0.41638   0.00000  Uiso   1.00
H263   H     0.63843   0.47116   0.49040   0.00000  Uiso   1.00
H264   H     0.46761   0.50447   0.09098   0.00000  Uiso   1.00
H265   H     0.38543   0.52189   0.41236   0.00000  Uiso   1.00
H266   H     0.36802   0.54821   0.49983   0.00000  Uiso   1.00
H267   H     0.54381   0.45371   0.37703   0.00000  Uiso   1.00
H268   H     0.56139   0.62862   0.27896   0.00000  Uiso   1.00
N269   N     0.38265   0.49999   0.24998   0.00000  Uiso   1.00
N270   N     0.61735   0.50002   0.25000   0.00000  Uiso   1.00
O271   O     0.46042   0.56011   0.25001   0.00000  Uiso   1.00
O272   O     0.53961   0.56012   0.25001   0.00000  Uiso   1.00
O273   O     0.44108   0.49998   0.32549   0.00000  Uiso   1.00
O274   O     0.52027   0.49999   0.32549   0.00000  Uiso   1.00
O275   O     0.46039   0.43988   0.25000   0.00000  Uiso   1.00
O276   O     0.53958   0.43989   0.25000   0.00000  Uiso   1.00
O277   O     0.47973   0.50001   0.17451   0.00000  Uiso   1.00
O278   O     0.55892   0.50002   0.17451   0.00000  Uiso   1.00
Br279  Br    0.41937   0.62175   0.19874   0.00000  Uiso   1.00
Br280  Br    0.42633   0.56894   0.06551   0.00000  Uiso   1.00
C281   C     0.83352   0.57934   0.24856   0.00000  Uiso   1.00
C282   C     0.81541   0.50717   0.48738   0.00000  Uiso   1.00
C283   C     0.82573   0.49213   0.43567   0.00000  Uiso   1.00
C284   C     0.85077   0.49954   0.01407   0.00000  Uiso   1.00
C285   C     0.89830   0.48459   0.48670   0.00000  Uiso   1.00
C286   C     0.90731   0.46976   0.43646   0.00000  Uiso   1.00
C287   C     0.87019   0.47046   0.41309   0.00000  Uiso   1.00
C288   C     0.83890   0.50217   0.06798   0.00000  Uiso   1.00
C289   C     0.92346   0.48897   0.06459   0.00000  Uiso   1.00
C290   C     0.79195   0.50002   0.40731   0.00000  Uiso   1.00
C291   C     0.86818   0.64508   0.26481   0.00000  Uiso   1.00
C292   C     0.80720   0.49825   0.35009   0.00000  Uiso   1.00
C293   C     0.86853   0.35432   0.26540   0.00000  Uiso   1.00
C294   C     0.83386   0.37626   0.24865   0.00000  Uiso   1.00
C295   C     0.79954   0.35560   0.23026   0.00000  Uiso   1.00
C296   C     0.79922   0.64633   0.22878   0.00000  Uiso   1.00
C297   C     0.83342   0.62404   0.24707   0.00000  Uiso   1.00
C298   C     0.96543   0.52414   0.28403   0.00000  Uiso   1.00
C299   C     0.68173   0.52409   0.28406   0.00000  Uiso   1.00
C300   C     0.70124   0.47588   0.21594   0.00000  Uiso   1.00
C301   C     0.98492   0.47590   0.21595   0.00000  Uiso   1.00
C302   C     0.83348   0.42074   0.24979   0.00000  Uiso   1.00
C303   C     0.85956   0.49966   0.15005   0.00000  Uiso   1.00
C304   C     0.93491   0.48124   0.01155   0.00000  Uiso   1.00
C305   C     0.87478   0.49774   0.09334   0.00000  Uiso   1.00
C306   C     0.74563   0.51664   0.43284   0.00000  Uiso   1.00
C307   C     0.73555   0.53174   0.48295   0.00000  Uiso   1.00
C308   C     0.77105   0.53019   0.00891   0.00000  Uiso   1.00
Cu309  Cu    0.78645   0.49999   0.25000   0.00000  Uiso   1.00
Cu310  Cu    0.88022   0.50001   0.25000   0.00000  Uiso   1.00
H311   H     0.95178   0.48535   0.08352   0.00000  Uiso   1.00
H312   H     0.89532   0.37003   0.27973   0.00000  Uiso   1.00
H313   H     0.77337   0.37261   0.21612   0.00000  Uiso   1.00
H314   H     0.93891   0.54351   0.31126   0.00000  Uiso   1.00
H315   H     0.69269   0.54340   0.31129   0.00000  Uiso   1.00
H316   H     0.72776   0.45650   0.18873   0.00000  Uiso   1.00
H317   H     0.97397   0.45658   0.18873   0.00000  Uiso   1.00
H318   H     0.94212   0.45521   0.41638   0.00000  Uiso   1.00
H319   H     0.97177   0.47116   0.49040   0.00000  Uiso   1.00
H320   H     0.80094   0.50447   0.09098   0.00000  Uiso   1.00
H321   H     0.71877   0.52189   0.41236   0.00000  Uiso   1.00
H322   H     0.70136   0.54821   0.49983   0.00000  Uiso   1.00
H323   H     0.87715   0.45371   0.37703   0.00000  Uiso   1.00
H324   H     0.89472   0.62862   0.27896   0.00000  Uiso   1.00
N325   N     0.71598   0.49999   0.24998   0.00000  Uiso   1.00
N326   N     0.95069   0.50002   0.25000   0.00000  Uiso   1.00
O327   O     0.79375   0.56011   0.25001   0.00000  Uiso   1.00
O328   O     0.87294   0.56012   0.25001   0.00000  Uiso   1.00
O329   O     0.77441   0.49998   0.32549   0.00000  Uiso   1.00
O330   O     0.85360   0.49999   0.32549   0.00000  Uiso   1.00
O331   O     0.79373   0.43988   0.25000   0.00000  Uiso   1.00
O332   O     0.87292   0.43989   0.25000   0.00000  Uiso   1.00
O333   O     0.81306   0.50001   0.17451   0.00000  Uiso   1.00
O334   O     0.89225   0.50002   0.17451   0.00000  Uiso   1.00
Br335  Br    0.75270   0.62175   0.19874   0.00000  Uiso   1.00
Br336  Br    0.75966   0.56894   0.06551   0.00000  Uiso   1.00
C337   C     0.16685   0.91267   0.24856   0.00000  Uiso   1.00
C338   C     0.14874   0.84051   0.48738   0.00000  Uiso   1.00
C339   C     0.15906   0.82547   0.43567   0.00000  Uiso   1.00
C340   C     0.18410   0.83288   0.01407   0.00000  Uiso   1.00
C341   C     0.23164   0.81792   0.48670   0.00000  Uiso   1.00
C342   C     0.24064   0.80310   0.43646   0.00000  Uiso   1.00
C343   C     0.20352   0.80379   0.41309   0.00000  Uiso   1.00
C344   C     0.17224   0.83551   0.06798   0.00000  Uiso   1.00
C345   C     0.25679   0.82231   0.06459   0.00000  Uiso   1.00
C346   C     0.12528   0.83335   0.40731   0.00000  Uiso   1.00
C347   C     0.20151   0.97841   0.26481   0.00000  Uiso   1.00
C348   C     0.14053   0.83158   0.35009   0.00000  Uiso   1.00
C349   C     0.20187   0.68765   0.26540   0.00000  Uiso   1.00
C350   C     0.16719   0.70959   0.24865   0.00000  Uiso   1.00
C351   C     0.13287   0.68893   0.23026   0.00000  Uiso   1.00
C352   C     0.13256   0.97966   0.22878   0.00000  Uiso   1.00
C353   C     0.16675   0.95738   0.24707   0.00000  Uiso   1.00
C354   C     0.29877   0.85747   0.28403   0.00000  Uiso   1.00
C355   C     0.01507   0.85742   0.28406   0.00000  Uiso   1.00
C356   C     0.03457   0.80921   0.21594   0.00000  Uiso   1.00
C357   C     0.31826   0.80923   0.21595   0.00000  Uiso   1.00
C358   C     0.16681   0.75408   0.24979   0.00000  Uiso   1.00
C359   C     0.19289   0.83300   0.15005   0.00000  Uiso   1.00
C360   C     0.26824   0.81458   0.01155   0.00000  Uiso   1.00
C361   C     0.20811   0.83107   0.09334   0.00000  Uiso   1.00
C362   C     0.07897   0.84998   0.43284   0.00000  Uiso   1.00
C363   C     0.06888   0.86507   0.48295   0.00000  Uiso   1.00
C364   C     0.10438   0.86353   0.00891   0.00000  Uiso   1.00
Cu365  Cu    0.11978   0.83333   0.25000   0.00000  Uiso   1.00
Cu366  Cu    0.21355   0.83334   0.25000   0.00000  Uiso   1.00
H367   H     0.28511   0.81868   0.08352   0.00000  Uiso   1.00
H368   H     0.22866   0.70337   0.27973   0.00000  Uiso   1.00
H369   H     0.10670   0.70594   0.21612   0.00000  Uiso   1.00
H370   H     0.27225   0.87684   0.31126   0.00000  Uiso   1.00
H371   H     0.02602   0.87673   0.31129   0.00000  Uiso   1.00
H372   H     0.06109   0.78984   0.18873   0.00000  Uiso   1.00
H373   H     0.30730   0.78991   0.18873   0.00000  Uiso   1.00
H374   H     0.27545   0.78854   0.41638   0.00000  Uiso   1.00
H375   H     0.30510   0.80450   0.49040   0.00000  Uiso   1.00
H376   H     0.13428   0.83780   0.09098   0.00000  Uiso   1.00
H377   H     0.05210   0.85522   0.41236   0.00000  Uiso   1.00
H378   H     0.03469   0.88155   0.49983   0.00000  Uiso   1.00
H379   H     0.21048   0.78705   0.37703   0.00000  Uiso   1.00
H380   H     0.22806   0.96195   0.27896   0.00000  Uiso   1.00
N381   N     0.04931   0.83332   0.24998   0.00000  Uiso   1.00
N382   N     0.28402   0.83335   0.25000   0.00000  Uiso   1.00
O383   O     0.12708   0.89345   0.25001   0.00000  Uiso   1.00
O384   O     0.20627   0.89346   0.25001   0.00000  Uiso   1.00
O385   O     0.10775   0.83332   0.32549   0.00000  Uiso   1.00
O386   O     0.18694   0.83333   0.32549   0.00000  Uiso   1.00
O387   O     0.12706   0.77321   0.25000   0.00000  Uiso   1.00
O388   O     0.20625   0.77322   0.25000   0.00000  Uiso   1.00
O389   O     0.14640   0.83334   0.17451   0.00000  Uiso   1.00
O390   O     0.22559   0.83335   0.17451   0.00000  Uiso   1.00
Br391  Br    0.08603   0.95509   0.19874   0.00000  Uiso   1.00
Br392  Br    0.09299   0.90227   0.06551   0.00000  Uiso   1.00
C393   C     0.50019   0.91267   0.24856   0.00000  Uiso   1.00
C394   C     0.48207   0.84051   0.48738   0.00000  Uiso   1.00
C395   C     0.49240   0.82547   0.43567   0.00000  Uiso   1.00
C396   C     0.51744   0.83288   0.01407   0.00000  Uiso   1.00
C397   C     0.56497   0.81792   0.48670   0.00000  Uiso   1.00
C398   C     0.57398   0.80310   0.43646   0.00000  Uiso   1.00
C399   C     0.53685   0.80379   0.41309   0.00000  Uiso   1.00
C400   C     0.50557   0.83551   0.06798   0.00000  Uiso   1.00
C401   C     0.59013   0.82231   0.06459   0.00000  Uiso   1.00
C402   C     0.45861   0.83335   0.40731   0.00000  Uiso   1.00
C403   C     0.53484   0.97841   0.26481   0.00000  Uiso   1.00
C404   C     0.47387   0.83158   0.35009   0.00000  Uiso   1.00
C405   C     0.53520   0.68765   0.26540   0.00000  Uiso   1.00
C406   C     0.50053   0.70959   0.24865   0.00000  Uiso   1.00
C407   C     0.46621   0.68893   0.23026   0.00000  Uiso   1.00
C408   C     0.46589   0.97966   0.22878   0.00000  Uiso   1.00
C409   C     0.50009   0.95738   0.24707   0.00000  Uiso   1.00
C410   C     0.63210   0.85747   0.28403   0.00000  Uiso   1.00
C411   C     0.34840   0.85742   0.28406   0.00000  Uiso   1.00
C412   C     0.36790   0.80921   0.21594   0.00000  Uiso   1.00
C413   C     0.65159   0.80923   0.21595   0.00000  Uiso   1.00
C414   C     0.50015   0.75408   0.24979   0.00000  Uiso   1.00
C415   C     0.52623   0.83300   0.15005   0.00000  Uiso   1.00
C416   C     0.60157   0.81458   0.01155   0.00000  Uiso   1.00
C417   C     0.54144   0.83107   0.09334   0.00000  Uiso   1.00
C418   C     0.41230   0.84998   0.43284   0.00000  Uiso   1.00
C419   C     0.40221   0.86507   0.48295   0.00000  Uiso   1.00
C420   C     0.43772   0.86353   0.00891   0.00000  Uiso   1.00
Cu421  Cu    0.45311   0.83333   0.25000   0.00000  Uiso   1.00
Cu422  Cu    0.54689   0.83334   0.25000   0.00000  Uiso   1.00
H423   H     0.61844   0.81868   0.08352   0.00000  Uiso   1.00
H424   H     0.56199   0.70337   0.27973   0.00000  Uiso   1.00
H425   H     0.44004   0.70594   0.21612   0.00000  Uiso   1.00
H426   H     0.60558   0.87684   0.31126   0.00000  Uiso   1.00
H427   H     0.35935   0.87673   0.31129   0.00000  Uiso   1.00
H428   H     0.39442   0.78984   0.18873   0.00000  Uiso   1.00
H429   H     0.64064   0.78991   0.18873   0.00000  Uiso   1.00
H430   H     0.60879   0.78854   0.41638   0.00000  Uiso   1.00
H431   H     0.63843   0.80450   0.49040   0.00000  Uiso   1.00
H432   H     0.46761   0.83780   0.09098   0.00000  Uiso   1.00
H433   H     0.38543   0.85522   0.41236   0.00000  Uiso   1.00
H434   H     0.36802   0.88155   0.49983   0.00000  Uiso   1.00
H435   H     0.54381   0.78705   0.37703   0.00000  Uiso   1.00
H436   H     0.56139   0.96195   0.27896   0.00000  Uiso   1.00
N437   N     0.38265   0.83332   0.24998   0.00000  Uiso   1.00
N438   N     0.61735   0.83335   0.25000   0.00000  Uiso   1.00
O439   O     0.46042   0.89345   0.25001   0.00000  Uiso   1.00
O440   O     0.53961   0.89346   0.25001   0.00000  Uiso   1.00
O441   O     0.44108   0.83332   0.32549   0.00000  Uiso   1.00
O442   O     0.52027   0.83333   0.32549   0.00000  Uiso   1.00
O443   O     0.46039   0.77321   0.25000   0.00000  Uiso   1.00
O444   O     0.53958   0.77322   0.25000   0.00000  Uiso   1.00
O445   O     0.47973   0.83334   0.17451   0.00000  Uiso   1.00
O446   O     0.55892   0.83335   0.17451   0.00000  Uiso   1.00
Br447  Br    0.41937   0.95509   0.19874   0.00000  Uiso   1.00
Br448  Br    0.42633   0.90227   0.06551   0.00000  Uiso   1.00
C449   C     0.83352   0.91267   0.24856   0.00000  Uiso   1.00
C450   C     0.81541   0.84051   0.48738   0.00000  Uiso   1.00
C451   C     0.82573   0.82547   0.43567   0.00000  Uiso   1.00
C452   C     0.85077   0.83288   0.01407   0.00000  Uiso   1.00
C453   C     0.89830   0.81792   0.48670   0.00000  Uiso   1.00
C454   C     0.90731   0.80310   0.43646   0.00000  Uiso   1.00
C455   C     0.87019   0.80379   0.41309   0.00000  Uiso   1.00
C456   C     0.83890   0.83551   0.06798   0.00000  Uiso   1.00
C457   C     0.92346   0.82231   0.06459   0.00000  Uiso   1.00
C458   C     0.79195   0.83335   0.40731   0.00000  Uiso   1.00
C459   C     0.86818   0.97841   0.26481   0.00000  Uiso   1.00
C460   C     0.80720   0.83158   0.35009   0.00000  Uiso   1.00
C461   C     0.86853   0.68765   0.26540   0.00000  Uiso   1.00
C462   C     0.83386   0.70959   0.24865   0.00000  Uiso   1.00
C463   C     0.79954   0.68893   0.23026   0.00000  Uiso   1.00
C464   C     0.79922   0.97966   0.22878   0.00000  Uiso   1.00
C465   C     0.83342   0.95738   0.24707   0.00000  Uiso   1.00
C466   C     0.96543   0.85747   0.28403   0.00000  Uiso   1.00
C467   C     0.68173   0.85742   0.28406   0.00000  Uiso   1.00
C468   C     0.70124   0.80921   0.21594   0.00000  Uiso   1.00
C469   C     0.98492   0.80923   0.21595   0.00000  Uiso   1.00
C470   C     0.83348   0.75408   0.24979   0.00000  Uiso   1.00
C471   C     0.85956   0.83300   0.15005   0.00000  Uiso   1.00
C472   C     0.93491   0.81458   0.01155   0.00000  Uiso   1.00
C473   C     0.87478   0.83107   0.09334   0.00000  Uiso   1.00
C474   C     0.74563   0.84998   0.43284   0.00000  Uiso   1.00
C475   C     0.73555   0.86507   0.48295   0.00000  Uiso   1.00
C476   C     0.77105   0.86353   0.00891   0.00000  Uiso   1.00
Cu477  Cu    0.78645   0.83333   0.25000   0.00000  Uiso   1.00
Cu478  Cu    0.88022   0.83334   0.25000   0.00000  Uiso   1.00
H479   H     0.95178   0.81868   0.08352   0.00000  Uiso   1.00
H480   H     0.89532   0.70337   0.27973   0.00000  Uiso   1.00
H481   H     0.77337   0.70594   0.21612   0.00000  Uiso   1.00
H482   H     0.93891   0.87684   0.31126   0.00000  Uiso   1.00
H483   H     0.69269   0.87673   0.31129   0.00000  Uiso   1.00
H484   H     0.72776   0.78984   0.18873   0.00000  Uiso   1.00
H485   H     0.97397   0.78991   0.18873   0.00000  Uiso   1.00
H486   H     0.94212   0.78854   0.41638   0.00000  Uiso   1.00
H487   H     0.97177   0.80450   0.49040   0.00000  Uiso   1.00
H488   H     0.80094   0.83780   0.09098   0.00000  Uiso   1.00
H489   H     0.71877   0.85522   0.41236   0.00000  Uiso   1.00
H490   H     0.70136   0.88155   0.49983   0.00000  Uiso   1.00
H491   H     0.87715   0.78705   0.37703   0.00000  Uiso   1.00
H492   H     0.89472   0.96195   0.27896   0.00000  Uiso   1.00
N493   N     0.71598   0.83332   0.24998   0.00000  Uiso   1.00
N494   N     0.95069   0.83335   0.25000   0.00000  Uiso   1.00
O495   O     0.79375   0.89345   0.25001   0.00000  Uiso   1.00
O496   O     0.87294   0.89346   0.25001   0.00000  Uiso   1.00
O497   O     0.77441   0.83332   0.32549   0.00000  Uiso   1.00
O498   O     0.85360   0.83333   0.32549   0.00000  Uiso   1.00
O499   O     0.79373   0.77321   0.25000   0.00000  Uiso   1.00
O500   O     0.87292   0.77322   0.25000   0.00000  Uiso   1.00
O501   O     0.81306   0.83334   0.17451   0.00000  Uiso   1.00
O502   O     0.89225   0.83335   0.17451   0.00000  Uiso   1.00
Br503  Br    0.75270   0.95509   0.19874   0.00000  Uiso   1.00
Br504  Br    0.75966   0.90227   0.06551   0.00000  Uiso   1.00
C505   C     0.16685   0.24600   0.74856   0.00000  Uiso   1.00
C506   C     0.14874   0.17384   0.98738   0.00000  Uiso   1.00
C507   C     0.15906   0.15880   0.93567   0.00000  Uiso   1.00
C508   C     0.18410   0.16621   0.51407   0.00000  Uiso   1.00
C509   C     0.23164   0.15126   0.98670   0.00000  Uiso   1.00
C510   C     0.24064   0.13643   0.93646   0.00000  Uiso   1.00
C511   C     0.20352   0.13713   0.91309   0.00000  Uiso   1.00
C512   C     0.17224   0.16884   0.56798   0.00000  Uiso   1.00
C513   C     0.25679   0.15564   0.56459   0.00000  Uiso   1.00
C514   C     0.12528   0.16669   0.90731   0.00000  Uiso   1.00
C515   C     0.20151   0.31174   0.76481   0.00000  Uiso   1.00
C516   C     0.14053   0.16492   0.85009   0.00000  Uiso   1.00
C517   C     0.20187   0.02099   0.76540   0.00000  Uiso   1.00
C518   C     0.16719   0.04293   0.74865   0.00000  Uiso   1.00
C519   C     0.13287   0.02226   0.73026   0.00000  Uiso   1.00
C520   C     0.13256   0.31300   0.72878   0.00000  Uiso   1.00
C521   C     0.16675   0.29071   0.74707   0.00000  Uiso   1.00
C522   C     0.29877   0.19081   0.78403   0.00000  Uiso   1.00
C523   C     0.01507   0.19075   0.78406   0.00000  Uiso   1.00
C524   C     0.03457   0.14255   0.71594   0.00000  Uiso   1.00
C525   C     0.31826   0.14256   0.71595   0.00000  Uiso   1.00
C526   C     0.16681   0.08741   0.74979   0.00000  Uiso   1.00
C527   C     0.19289   0.16633   0.65005   0.00000  Uiso   1.00
C528   C     0.26824   0.14791   0.51155   0.00000  Uiso   1.00
C529   C     0.20811   0.16440   0.59334   0.00000  Uiso   1.00
C530   C     0.07897   0.18331   0.93284   0.00000  Uiso   1.00
C531   C     0.06888   0.19841   0.98295   0.00000  Uiso   1.00
C532   C     0.10438   0.19686   0.50891   0.00000  Uiso   1.00
Cu533  Cu    0.11978   0.16666   0.75000   0.00000  Uiso   1.00
Cu534  Cu    0.21355   0.16667   0.75000   0.00000  Uiso   1.00
H535   H     0.28511   0.15201   0.58352   0.00000  Uiso   1.00
H536   H     0.22866   0.03670   0.77973   0.00000  Uiso   1.00
H537   H     0.10670   0.03928   0.71612   0.00000  Uiso   1.00
H538   H     0.27225   0.21017   0.81126   0.00000  Uiso   1.00
H539   H     0.02602   0.21006   0.81129   0.00000  Uiso   1.00
H540   H     0.06109   0.12317   0.68873   0.00000  Uiso   1.00
H541   H     0.30730   0.12325   0.68873   0.00000  Uiso   1.00
H542   H     0.27545   0.12188   0.91638   0.00000  Uiso   1.00
H543   H     0.30510   0.13783   0.99040   0.00000  Uiso   1.00
H544   H     0.13428   0.17114   0.59098   0.00000  Uiso   1.00
H545   H     0.05210   0.18856   0.91236   0.00000  Uiso   1.00
H546   H     0.03469   0.21488   0.99983   0.00000  Uiso   1.00
H547   H     0.21048   0.12038   0.87703   0.00000  Uiso   1.00
H548   H     0.22806   0.29528   0.77896   0.00000  Uiso   1.00
N549   N     0.04931   0.16666   0.74998   0.00000  Uiso   1.00
N550   N     0.28402   0.16669   0.75000   0.00000  Uiso   1.00
O551   O     0.12708   0.22678   0.75001   0.00000  Uiso   1.00
O552   O     0.20627   0.22679   0.75001   0.00000  Uiso   1.00
O553   O     0.10775   0.16665   0.82549   0.00000  Uiso   1.00
O554   O     0.18694   0.16666   0.82549   0.00000  Uiso   1.00
O555   O     0.12706   0.10654   0.75000   0.00000  Uiso   1.00
O556   O     0.20625   0.10655   0.75000   0.00000  Uiso   1.00
O557   O     0.14640   0.16667   0.67451   0.00000  Uiso   1.00
O558   O     0.22559   0.16668   0.67451   0.00000  Uiso   1.00
Br559  Br    0.08603   0.28842   0.69874   0.00000  Uiso   1.00
Br560  Br    0.09299   0.23561   0.56551   0.00000  Uiso   1.00
C561   C     0.50019   0.24600   0.74856   0.00000  Uiso   1.00
C562   C     0.48207   0.17384   0.98738   0.00000  Uiso   1.00
C563   C     0.49240   0.15880   0.93567   0.00000  Uiso   1.00
C564   C     0.51744   0.16621   0.51407   0.00000  Uiso   1.00
C565   C     0.56497   0.15126   0.98670   0.00000  Uiso   1.00
C566   C     0.57398   0.13643   0.93646   0.00000  Uiso   1.00
C567   C     0.53685   0.13713   0.91309   0.00000  Uiso   1.00
C568   C     0.50557   0.16884   0.56798   0.00000  Uiso   1.00
C569   C     0.59013   0.15564   0.56459   0.00000  Uiso   1.00
C570   C     0.45861   0.16669   0.90731   0.00000  Uiso   1.00
C571   C     0.53484   0.31174   0.76481   0.00000  Uiso   1.00
C572   C     0.47387   0.16492   0.85009   0.00000  Uiso   1.00
C573   C     0.53520   0.02099   0.76540   0.00000  Uiso   1.00
C574   C     0.50053   0.04293   0.74865   0.00000  Uiso   1.00
C575   C     0.46621   0.02226   0.73026   0.00000  Uiso   1.00
C576   C     0.46589   0.31300   0.72878   0.00000  Uiso   1.00
C577   C     0.50009   0.29071   0.74707   0.00000  Uiso   1.00
C578   C     0.63210   0.19081   0.78403   0.00000  Uiso   1.00
C579   C     0.34840   0.19075   0.78406   0.00000  Uiso   1.00
C580   C     0.36790   0.14255   0.71594   0.00000  Uiso   1.00
C581   C     0.65159   0.14256   0.71595   0.00000  Uiso   1.00
C582   C     0.50015   0.08741   0.74979   0.00000  Uiso   1.00
C583   C     0.52623   0.16633   0.65005   0.00000  Uiso   1.00
C584   C     0.60157   0.14791   0.51155   0.00000  Uiso   1.00
C585   C     0.54144   0.16440   0.59334   0.00000  Uiso   1.00
C586   C     0.41230   0.18331   0.93284   0.00000  Uiso   1.00
C587   C     0.40221   0.19841   0.98295   0.00000  Uiso   1.00
C588   C     0.43772   0.19686   0.50891   0.00000  Uiso   1.00
Cu589  Cu    0.45311   0.16666   0.75000   0.00000  Uiso   1.00
Cu590  Cu    0.54689   0.16667   0.75000   0.00000  Uiso   1.00
H591   H     0.61844   0.15201   0.58352   0.00000  Uiso   1.00
H592   H     0.56199   0.03670   0.77973   0.00000  Uiso   1.00
H593   H     0.44004   0.03928   0.71612   0.00000  Uiso   1.00
H594   H     0.60558   0.21017   0.81126   0.00000  Uiso   1.00
H595   H     0.35935   0.21006   0.81129   0.00000  Uiso   1.00
H596   H     0.39442   0.12317   0.68873   0.00000  Uiso   1.00
H597   H     0.64064   0.12325   0.68873   0.00000  Uiso   1.00
H598   H     0.60879   0.12188   0.91638   0.00000  Uiso   1.00
H599   H     0.63843   0.13783   0.99040   0.00000  Uiso   1.00
H600   H     0.46761   0.17114   0.59098   0.00000  Uiso   1.00
H601   H     0.38543   0.18856   0.91236   0.00000  Uiso   1.00
H602   H     0.36802   0.21488   0.99983   0.00000  Uiso   1.00
H603   H     0.54381   0.12038   0.87703   0.00000  Uiso   1.00
H604   H     0.56139   0.29528   0.77896   0.00000  Uiso   1.00
N605   N     0.38265   0.16666   0.74998   0.00000  Uiso   1.00
N606   N     0.61735   0.16669   0.75000   0.00000  Uiso   1.00
O607   O     0.46042   0.22678   0.75001   0.00000  Uiso   1.00
O608   O     0.53961   0.22679   0.75001   0.00000  Uiso   1.00
O609   O     0.44108   0.16665   0.82549   0.00000  Uiso   1.00
O610   O     0.52027   0.16666   0.82549   0.00000  Uiso   1.00
O611   O     0.46039   0.10654   0.75000   0.00000  Uiso   1.00
O612   O     0.53958   0.10655   0.75000   0.00000  Uiso   1.00
O613   O     0.47973   0.16667   0.67451   0.00000  Uiso   1.00
O614   O     0.55892   0.16668   0.67451   0.00000  Uiso   1.00
Br615  Br    0.41937   0.28842   0.69874   0.00000  Uiso   1.00
Br616  Br    0.42633   0.23561   0.56551   0.00000  Uiso   1.00
C617   C     0.83352   0.24600   0.74856   0.00000  Uiso   1.00
C618   C     0.81541   0.17384   0.98738   0.00000  Uiso   1.00
C619   C     0.82573   0.15880   0.93567   0.00000  Uiso   1.00
C620   C     0.85077   0.16621   0.51407   0.00000  Uiso   1.00
C621   C     0.89830   0.15126   0.98670   0.00000  Uiso   1.00
C622   C     0.90731   0.13643   0.93646   0.00000  Uiso   1.00
C623   C     0.87019   0.13713   0.91309   0.00000  Uiso   1.00
C624   C     0.83890   0.16884   0.56798   0.00000  Uiso   1.00
C625   C     0.92346   0.15564   0.56459   0.00000  Uiso   1.00
C626   C     0.79195   0.16669   0.90731   0.00000  Uiso   1.00
C627   C     0.86818   0.31174   0.76481   0.00000  Uiso   1.00
C628   C     0.80720   0.16492   0.85009   0.00000  Uiso   1.00
C629   C     0.86853   0.02099   0.76540   0.00000  Uiso   1.00
C630   C     0.83386   0.04293   0.74865   0.00000  Uiso   1.00
C631   C     0.79954   0.02226   0.73026   0.00000  Uiso   1.00
C632   C     0.79922   0.31300   0.72878   0.00000  Uiso   1.00
C633   C     0.83342   0.29071   0.74707   0.00000  Uiso   1.00
C634   C     0.96543   0.19081   0.78403   0.00000  Uiso   1.00
C635   C     0.68173   0.19075   0.78406   0.00000  Uiso   1.00
C636   C     0.70124   0.14255   0.71594   0.00000  Uiso   1.00
C637   C     0.98492   0.14256   0.71595   0.00000  Uiso   1.00
C638   C     0.83348   0.08741   0.74979   0.00000  Uiso   1.00
C639   C     0.85956   0.16633   0.65005   0.00000  Uiso   1.00
C640   C     0.93491   0.14791   0.51155   0.00000  Uiso   1.00
C641   C     0.87478   0.16440   0.59334   0.00000  Uiso   1.00
C642   C     0.74563   0.18331   0.93284   0.00000  Uiso   1.00
C643   C     0.73555   0.19841   0.98295   0.00000  Uiso   1.00
C644   C     0.77105   0.19686   0.50891   0.00000  Uiso   1.00
Cu645  Cu    0.78645   0.16666   0.75000   0.00000  Uiso   1.00
Cu646  Cu    0.88022   0.16667   0.75000   0.00000  Uiso   1.00
H647   H     0.95178   0.15201   0.58352   0.00000  Uiso   1.00
H648   H     0.89532   0.03670   0.77973   0.00000  Uiso   1.00
H649   H     0.77337   0.03928   0.71612   0.00000  Uiso   1.00
H650   H     0.93891   0.21017   0.81126   0.00000  Uiso   1.00
H651   H     0.69269   0.21006   0.81129   0.00000  Uiso   1.00
H652   H     0.72776   0.12317   0.68873   0.00000  Uiso   1.00
H653   H     0.97397   0.12325   0.68873   0.00000  Uiso   1.00
H654   H     0.94212   0.12188   0.91638   0.00000  Uiso   1.00
H655   H     0.97177   0.13783   0.99040   0.00000  Uiso   1.00
H656   H     0.80094   0.17114   0.59098   0.00000  Uiso   1.00
H657   H     0.71877   0.18856   0.91236   0.00000  Uiso   1.00
H658   H     0.70136   0.21488   0.99983   0.00000  Uiso   1.00
H659   H     0.87715   0.12038   0.87703   0.00000  Uiso   1.00
H660   H     0.89472   0.29528   0.77896   0.00000  Uiso   1.00
N661   N     0.71598   0.16666   0.74998   0.00000  Uiso   1.00
N662   N     0.95069   0.16669   0.75000   0.00000  Uiso   1.00
O663   O     0.79375   0.22678   0.75001   0.00000  Uiso   1.00
O664   O     0.87294   0.22679   0.75001   0.00000  Uiso   1.00
O665   O     0.77441   0.16665   0.82549   0.00000  Uiso   1.00
O666   O     0.85360   0.16666   0.82549   0.00000  Uiso   1.00
O667   O     0.79373   0.10654   0.75000   0.00000  Uiso   1.00
O668   O     0.87292   0.10655   0.75000   0.00000  Uiso   1.00
O669   O     0.81306   0.16667   0.67451   0.00000  Uiso   1.00
O670   O     0.89225   0.16668   0.67451   0.00000  Uiso   1.00
Br671  Br    0.75270   0.28842   0.69874   0.00000  Uiso   1.00
Br672  Br    0.75966   0.23561   0.56551   0.00000  Uiso   1.00
C673   C     0.16685   0.57934   0.74856   0.00000  Uiso   1.00
C674   C     0.14874   0.50717   0.98738   0.00000  Uiso   1.00
C675   C     0.15906   0.49213   0.93567   0.00000  Uiso   1.00
C676   C     0.18410   0.49954   0.51407   0.00000  Uiso   1.00
C677   C     0.23164   0.48459   0.98670   0.00000  Uiso   1.00
C678   C     0.24064   0.46976   0.93646   0.00000  Uiso   1.00
C679   C     0.20352   0.47046   0.91309   0.00000  Uiso   1.00
C680   C     0.17224   0.50217   0.56798   0.00000  Uiso   1.00
C681   C     0.25679   0.48897   0.56459   0.00000  Uiso   1.00
C682   C     0.12528   0.50002   0.90731   0.00000  Uiso   1.00
C683   C     0.20151   0.64508   0.76481   0.00000  Uiso   1.00
C684   C     0.14053   0.49825   0.85009   0.00000  Uiso   1.00
C685   C     0.20187   0.35432   0.76540   0.00000  Uiso   1.00
C686   C     0.16719   0.37626   0.74865   0.00000  Uiso   1.00
C687   C     0.13287   0.35560   0.73026   0.00000  Uiso   1.00
C688   C     0.13256   0.64633   0.72878   0.00000  Uiso   1.00
C689   C     0.16675   0.62404   0.74707   0.00000  Uiso   1.00
C690   C     0.29877   0.52414   0.78403   0.00000  Uiso   1.00
C691   C     0.01507   0.52409   0.78406   0.00000  Uiso   1.00
C692   C     0.03457   0.47588   0.71594   0.00000  Uiso   1.00
C693   C     0.31826   0.47590   0.71595   0.00000  Uiso   1.00
C694   C     0.16681   0.42074   0.74979   0.00000  Uiso   1.00
C695   C     0.19289   0.49966   0.65005   0.00000  Uiso   1.00
C696   C     0.26824   0.48124   0.51155   0.00000  Uiso   1.00
C697   C     0.20811   0.49774   0.59334   0.00000  Uiso   1.00
C698   C     0.07897   0.51664   0.93284   0.00000  Uiso   1.00
C699   C     0.06888   0.53174   0.98295   0.00000  Uiso   1.00
C700   C     0.10438   0.53019   0.50891   0.00000  Uiso   1.00
Cu701  Cu    0.11978   0.49999   0.75000   0.00000  Uiso   1.00
Cu702  Cu    0.21355   0.50001   0.75000   0.00000  Uiso   1.00
H703   H     0.28511   0.48535   0.58352   0.00000  Uiso   1.00
H704   H     0.22866   0.37003   0.77973   0.00000  Uiso   1.00
H705   H     0.10670   0.37261   0.71612   0.00000  Uiso   1.00
H706   H     0.27225   0.54351   0.81126   0.00000  Uiso   1.00
H707   H     0.02602   0.54340   0.81129   0.00000  Uiso   1.00
H708   H     0.06109   0.45650   0.68873   0.00000  Uiso   1.00
H709   H     0.30730   0.45658   0.68873   0.00000  Uiso   1.00
H710   H     0.27545   0.45521   0.91638   0.00000  Uiso   1.00
H711   H     0.30510   0.47116   0.99040   0.00000  Uiso   1.00
H712   H     0.13428   0.50447   0.59098   0.00000  Uiso   1.00
H713   H     0.05210   0.52189   0.91236   0.00000  Uiso   1.00
H714   H     0.03469   0.54821   0.99983   0.00000  Uiso   1.00
H715   H     0.21048   0.45371   0.87703   0.00000  Uiso   1.00
H716   H     0.22806   0.62862   0.77896   0.00000  Uiso   1.00
N717   N     0.04931   0.49999   0.74998   0.00000  Uiso   1.00
N718   N     0.28402   0.50002   0.75000   0.00000  Uiso   1.00
O719   O     0.12708   0.56011   0.75001   0.00000  Uiso   1.00
O720   O     0.20627   0.56012   0.75001   0.00000  Uiso   1.00
O721   O     0.10775   0.49998   0.82549   0.00000  Uiso   1.00
O722   O     0.18694   0.49999   0.82549   0.00000  Uiso   1.00
O723   O     0.12706   0.43988   0.75000   0.00000  Uiso   1.00
O724   O     0.20625   0.43989   0.75000   0.00000  Uiso   1.00
O725   O     0.14640   0.50001   0.67451   0.00000  Uiso   1.00
O726   O     0.22559   0.50002   0.67451   0.00000  Uiso   1.00
Br727  Br    0.08603   0.62175   0.69874   0.00000  Uiso   1.00
Br728  Br    0.09299   0.56894   0.56551   0.00000  Uiso   1.00
C729   C     0.50019   0.57934   0.74856   0.00000  Uiso   1.00
C730   C     0.48207   0.50717   0.98738   0.00000  Uiso   1.00
C731   C     0.49240   0.49213   0.93567   0.00000  Uiso   1.00
C732   C     0.51744   0.49954   0.51407   0.00000  Uiso   1.00
C733   C     0.56497   0.48459   0.98670   0.00000  Uiso   1.00
C734   C     0.57398   0.46976   0.93646   0.00000  Uiso   1.00
C735   C     0.53685   0.47046   0.91309   0.00000  Uiso   1.00
C736   C     0.50557   0.50217   0.56798   0.00000  Uiso   1.00
C737   C     0.59013   0.48897   0.56459   0.00000  Uiso   1.00
C738   C     0.45861   0.50002   0.90731   0.00000  Uiso   1.00
C739   C     0.53484   0.64508   0.76481   0.00000  Uiso   1.00
C740   C     0.47387   0.49825   0.85009   0.00000  Uiso   1.00
C741   C     0.53520   0.35432   0.76540   0.00000  Uiso   1.00
C742   C     0.50053   0.37626   0.74865   0.00000  Uiso   1.00
C743   C     0.46621   0.35560   0.73026   0.00000  Uiso   1.00
C744   C     0.46589   0.64633   0.72878   0.00000  Uiso   1.00
C745   C     0.50009   0.62404   0.74707   0.00000  Uiso   1.00
C746   C     0.63210   0.52414   0.78403   0.00000  Uiso   1.00
C747   C     0.34840   0.52409   0.78406   0.00000  Uiso   1.00
C748   C     0.36790   0.47588   0.71594   0.00000  Uiso   1.00
C749   C     0.65159   0.47590   0.71595   0.00000  Uiso   1.00
C750   C     0.50015   0.42074   0.74979   0.00000  Uiso   1.00
C751   C     0.52623   0.49966   0.65005   0.00000  Uiso   1.00
C752   C     0.60157   0.48124   0.51155   0.00000  Uiso   1.00
C753   C     0.54144   0.49774   0.59334   0.00000  Uiso   1.00
C754   C     0.41230   0.51664   0.93284   0.00000  Uiso   1.00
C755   C     0.40221   0.53174   0.98295   0.00000  Uiso   1.00
C756   C     0.43772   0.53019   0.50891   0.00000  Uiso   1.00
Cu757  Cu    0.45311   0.49999   0.75000   0.00000  Uiso   1.00
Cu758  Cu    0.54689   0.50001   0.75000   0.00000  Uiso   1.00
H759   H     0.61844   0.48535   0.58352   0.00000  Uiso   1.00
H760   H     0.56199   0.37003   0.77973   0.00000  Uiso   1.00
H761   H     0.44004   0.37261   0.71612   0.00000  Uiso   1.00
H762   H     0.60558   0.54351   0.81126   0.00000  Uiso   1.00
H763   H     0.35935   0.54340   0.81129   0.00000  Uiso   1.00
H764   H     0.39442   0.45650   0.68873   0.00000  Uiso   1.00
H765   H     0.64064   0.45658   0.68873   0.00000  Uiso   1.00
H766   H     0.60879   0.45521   0.91638   0.00000  Uiso   1.00
H767   H     0.63843   0.47116   0.99040   0.00000  Uiso   1.00
H768   H     0.46761   0.50447   0.59098   0.00000  Uiso   1.00
H769   H     0.38543   0.52189   0.91236   0.00000  Uiso   1.00
H770   H     0.36802   0.54821   0.99983   0.00000  Uiso   1.00
H771   H     0.54381   0.45371   0.87703   0.00000  Uiso   1.00
H772   H     0.56139   0.62862   0.77896   0.00000  Uiso   1.00
N773   N     0.38265   0.49999   0.74998   0.00000  Uiso   1.00
N774   N     0.61735   0.50002   0.75000   0.00000  Uiso   1.00
O775   O     0.46042   0.56011   0.75001   0.00000  Uiso   1.00
O776   O     0.53961   0.56012   0.75001   0.00000  Uiso   1.00
O777   O     0.44108   0.49998   0.82549   0.00000  Uiso   1.00
O778   O     0.52027   0.49999   0.82549   0.00000  Uiso   1.00
O779   O     0.46039   0.43988   0.75000   0.00000  Uiso   1.00
O780   O     0.53958   0.43989   0.75000   0.00000  Uiso   1.00
O781   O     0.47973   0.50001   0.67451   0.00000  Uiso   1.00
O782   O     0.55892   0.50002   0.67451   0.00000  Uiso   1.00
Br783  Br    0.41937   0.62175   0.69874   0.00000  Uiso   1.00
Br784  Br    0.42633   0.56894   0.56551   0.00000  Uiso   1.00
C785   C     0.83352   0.57934   0.74856   0.00000  Uiso   1.00
C786   C     0.81541   0.50717   0.98738   0.00000  Uiso   1.00
C787   C     0.82573   0.49213   0.93567   0.00000  Uiso   1.00
C788   C     0.85077   0.49954   0.51407   0.00000  Uiso   1.00
C789   C     0.89830   0.48459   0.98670   0.00000  Uiso   1.00
C790   C     0.90731   0.46976   0.93646   0.00000  Uiso   1.00
C791   C     0.87019   0.47046   0.91309   0.00000  Uiso   1.00
C792   C     0.83890   0.50217   0.56798   0.00000  Uiso   1.00
C793   C     0.92346   0.48897   0.56459   0.00000  Uiso   1.00
C794   C     0.79195   0.50002   0.90731   0.00000  Uiso   1.00
C795   C     0.86818   0.64508   0.76481   0.00000  Uiso   1.00
C796   C     0.80720   0.49825   0.85009   0.00000  Uiso   1.00
C797   C     0.86853   0.35432   0.76540   0.00000  Uiso   1.00
C798   C     0.83386   0.37626   0.74865   0.00000  Uiso   1.00
C799   C     0.79954   0.35560   0.73026   0.00000  Uiso   1.00
C800   C     0.79922   0.64633   0.72878   0.00000  Uiso   1.00
C801   C     0.83342   0.62404   0.74707   0.00000  Uiso   1.00
C802   C     0.96543   0.52414   0.78403   0.00000  Uiso   1.00
C803   C     0.68173   0.52409   0.78406   0.00000  Uiso   1.00
C804   C     0.70124   0.47588   0.71594   0.00000  Uiso   1.00
C805   C     0.98492   0.47590   0.71595   0.00000  Uiso   1.00
C806   C     0.83348   0.42074   0.74979   0.00000  Uiso   1.00
C807   C     0.85956   0.49966   0.65005   0.00000  Uiso   1.00
C808   C     0.93491   0.48124   0.51155   0.00000  Uiso   1.00
C809   C     0.87478   0.49774   0.59334   0.00000  Uiso   1.00
C810   C     0.74563   0.51664   0.93284   0.00000  Uiso   1.00
C811   C     0.73555   0.53174   0.98295   0.00000  Uiso   1.00
C812   C     0.77105   0.53019   0.50891   0.00000  Uiso   1.00
Cu813  Cu    0.78645   0.49999   0.75000   0.00000  Uiso   1.00
Cu814  Cu    0.88022   0.50001   0.75000   0.00000  Uiso   1.00
H815   H     0.95178   0.48535   0.58352   0.00000  Uiso   1.00
H816   H     0.89532   0.37003   0.77973   0.00000  Uiso   1.00
H817   H     0.77337   0.37261   0.71612   0.00000  Uiso   1.00
H818   H     0.93891   0.54351   0.81126   0.00000  Uiso   1.00
H819   H     0.69269   0.54340   0.81129   0.00000  Uiso   1.00
H820   H     0.72776   0.45650   0.68873   0.00000  Uiso   1.00
H821   H     0.97397   0.45658   0.68873   0.00000  Uiso   1.00
H822   H     0.94212   0.45521   0.91638   0.00000  Uiso   1.00
H823   H     0.97177   0.47116   0.99040   0.00000  Uiso   1.00
H824   H     0.80094   0.50447   0.59098   0.00000  Uiso   1.00
H825   H     0.71877   0.52189   0.91236   0.00000  Uiso   1.00
H826   H     0.70136   0.54821   0.99983   0.00000  Uiso   1.00
H827   H     0.87715   0.45371   0.87703   0.00000  Uiso   1.00
H828   H     0.89472   0.62862   0.77896   0.00000  Uiso   1.00
N829   N     0.71598   0.49999   0.74998   0.00000  Uiso   1.00
N830   N     0.95069   0.50002   0.75000   0.00000  Uiso   1.00
O831   O     0.79375   0.56011   0.75001   0.00000  Uiso   1.00
O832   O     0.87294   0.56012   0.75001   0.00000  Uiso   1.00
O833   O     0.77441   0.49998   0.82549   0.00000  Uiso   1.00
O834   O     0.85360   0.49999   0.82549   0.00000  Uiso   1.00
O835   O     0.79373   0.43988   0.75000   0.00000  Uiso   1.00
O836   O     0.87292   0.43989   0.75000   0.00000  Uiso   1.00
O837   O     0.81306   0.50001   0.67451   0.00000  Uiso   1.00
O838   O     0.89225   0.50002   0.67451   0.00000  Uiso   1.00
Br839  Br    0.75270   0.62175   0.69874   0.00000  Uiso   1.00
Br840  Br    0.75966   0.56894   0.56551   0.00000  Uiso   1.00
C841   C     0.16685   0.91267   0.74856   0.00000  Uiso   1.00
C842   C     0.14874   0.84051   0.98738   0.00000  Uiso   1.00
C843   C     0.15906   0.82547   0.93567   0.00000  Uiso   1.00
C844   C     0.18410   0.83288   0.51407   0.00000  Uiso   1.00
C845   C     0.23164   0.81792   0.98670   0.00000  Uiso   1.00
C846   C     0.24064   0.80310   0.93646   0.00000  Uiso   1.00
C847   C     0.20352   0.80379   0.91309   0.00000  Uiso   1.00
C848   C     0.17224   0.83551   0.56798   0.00000  Uiso   1.00
C849   C     0.25679   0.82231   0.56459   0.00000  Uiso   1.00
C850   C     0.12528   0.83335   0.90731   0.00000  Uiso   1.00
C851   C     0.20151   0.97841   0.76481   0.00000  Uiso   1.00
C852   C     0.14053   0.83158   0.85009   0.00000  Uiso   1.00
C853   C     0.20187   0.68765   0.76540   0.00000  Uiso   1.00
C854   C     0.16719   0.70959   0.74865   0.00000  Uiso   1.00
C855   C     0.13287   0.68893   0.73026   0.00000  Uiso   1.00
C856   C     0.13256   0.97966   0.72878   0.00000  Uiso   1.00
C857   C     0.16675   0.95738   0.74707   0.00000  Uiso   1.00
C858   C     0.29877   0.85747   0.78403   0.00000  Uiso   1.00
C859   C     0.01507   0.85742   0.78406   0.00000  Uiso   1.00
C860   C     0.03457   0.80921   0.71594   0.00000  Uiso   1.00
C861   C     0.31826   0.80923   0.71595   0.00000  Uiso   1.00
C862   C     0.16681   0.75408   0.74979   0.00000  Uiso   1.00
C863   C     0.19289   0.83300   0.65005   0.00000  Uiso   1.00
C864   C     0.26824   0.81458   0.51155   0.00000  Uiso   1.00
C865   C     0.20811   0.83107   0.59334   0.00000  Uiso   1.00
C866   C     0.07897   0.84998   0.93284   0.00000  Uiso   1.00
C867   C     0.06888   0.86507   0.98295   0.00000  Uiso   1.00
C868   C     0.10438   0.86353   0.50891   0.00000  Uiso   1.00
Cu869  Cu    0.11978   0.83333   0.75000   0.00000  Uiso   1.00
Cu870  Cu    0.21355   0.83334   0.75000   0.00000  Uiso   1.00
H871   H     0.28511   0.81868   0.58352   0.00000  Uiso   1.00
H872   H     0.22866   0.70337   0.77973   0.00000  Uiso   1.00
H873   H     0.10670   0.70594   0.71612   0.00000  Uiso   1.00
H874   H     0.27225   0.87684   0.81126   0.00000  Uiso   1.00
H875   H     0.02602   0.87673   0.81129   0.00000  Uiso   1.00
H876   H     0.06109   0.78984   0.68873   0.00000  Uiso   1.00
H877   H     0.30730   0.78991   0.68873   0.00000  Uiso   1.00
H878   H     0.27545   0.78854   0.91638   0.00000  Uiso   1.00
H879   H     0.30510   0.80450   0.99040   0.00000  Uiso   1.00
H880   H     0.13428   0.83780   0.59098   0.00000  Uiso   1.00
H881   H     0.05210   0.85522   0.91236   0.00000  Uiso   1.00
H882   H     0.03469   0.88155   0.99983   0.00000  Uiso   1.00
H883   H     0.21048   0.78705   0.87703   0.00000  Uiso   1.00
H884   H     0.22806   0.96195   0.77896   0.00000  Uiso   1.00
N885   N     0.04931   0.83332   0.74998   0.00000  Uiso   1.00
N886   N     0.28402   0.83335   0.75000   0.00000  Uiso   1.00
O887   O     0.12708   0.89345   0.75001   0.00000  Uiso   1.00
O888   O     0.20627   0.89346   0.75001   0.00000  Uiso   1.00
O889   O     0.10775   0.83332   0.82549   0.00000  Uiso   1.00
O890   O     0.18694   0.83333   0.82549   0.00000  Uiso   1.00
O891   O     0.12706   0.77321   0.75000   0.00000  Uiso   1.00
O892   O     0.20625   0.77322   0.75000   0.00000  Uiso   1.00
O893   O     0.14640   0.83334   0.67451   0.00000  Uiso   1.00
O894   O     0.22559   0.83335   0.67451   0.00000  Uiso   1.00
Br895  Br    0.08603   0.95509   0.69874   0.00000  Uiso   1.00
Br896  Br    0.09299   0.90227   0.56551   0.00000  Uiso   1.00
C897   C     0.50019   0.91267   0.74856   0.00000  Uiso   1.00
C898   C     0.48207   0.84051   0.98738   0.00000  Uiso   1.00
C899   C     0.49240   0.82547   0.93567   0.00000  Uiso   1.00
C900   C     0.51744   0.83288   0.51407   0.00000  Uiso   1.00
C901   C     0.56497   0.81792   0.98670   0.00000  Uiso   1.00
C902   C     0.57398   0.80310   0.93646   0.00000  Uiso   1.00
C903   C     0.53685   0.80379   0.91309   0.00000  Uiso   1.00
C904   C     0.50557   0.83551   0.56798   0.00000  Uiso   1.00
C905   C     0.59013   0.82231   0.56459   0.00000  Uiso   1.00
C906   C     0.45861   0.83335   0.90731   0.00000  Uiso   1.00
C907   C     0.53484   0.97841   0.76481   0.00000  Uiso   1.00
C908   C     0.47387   0.83158   0.85009   0.00000  Uiso   1.00
C909   C     0.53520   0.68765   0.76540   0.00000  Uiso   1.00
C910   C     0.50053   0.70959   0.74865   0.00000  Uiso   1.00
C911   C     0.46621   0.68893   0.73026   0.00000  Uiso   1.00
C912   C     0.46589   0.97966   0.72878   0.00000  Uiso   1.00
C913   C     0.50009   0.95738   0.74707   0.00000  Uiso   1.00
C914   C     0.63210   0.85747   0.78403   0.00000  Uiso   1.00
C915   C     0.34840   0.85742   0.78406   0.00000  Uiso   1.00
C916   C     0.36790   0.80921   0.71594   0.00000  Uiso   1.00
C917   C     0.65159   0.80923   0.71595   0.00000  Uiso   1.00
C918   C     0.50015   0.75408   0.74979   0.00000  Uiso   1.00
C919   C     0.52623   0.83300   0.65005   0.00000  Uiso   1.00
C920   C     0.60157   0.81458   0.51155   0.00000  Uiso   1.00
C921   C     0.54144   0.83107   0.59334   0.00000  Uiso   1.00
C922   C     0.41230   0.84998   0.93284   0.00000  Uiso   1.00
C923   C     0.40221   0.86507   0.98295   0.00000  Uiso   1.00
C924   C     0.43772   0.86353   0.50891   0.00000  Uiso   1.00
Cu925  Cu    0.45311   0.83333   0.75000   0.00000  Uiso   1.00
Cu926  Cu    0.54689   0.83334   0.75000   0.00000  Uiso   1.00
H927   H     0.61844   0.81868   0.58352   0.00000  Uiso   1.00
H928   H     0.56199   0.70337   0.77973   0.00000  Uiso   1.00
H929   H     0.44004   0.70594   0.71612   0.00000  Uiso   1.00
H930   H     0.60558   0.87684   0.81126   0.00000  Uiso   1.00
H931   H     0.35935   0.87673   0.81129   0.00000  Uiso   1.00
H932   H     0.39442   0.78984   0.68873   0.00000  Uiso   1.00
H933   H     0.64064   0.78991   0.68873   0.00000  Uiso   1.00
H934   H     0.60879   0.78854   0.91638   0.00000  Uiso   1.00
H935   H     0.63843   0.80450   0.99040   0.00000  Uiso   1.00
H936   H     0.46761   0.83780   0.59098   0.00000  Uiso   1.00
H937   H     0.38543   0.85522   0.91236   0.00000  Uiso   1.00
H938   H     0.36802   0.88155   0.99983   0.00000  Uiso   1.00
H939   H     0.54381   0.78705   0.87703   0.00000  Uiso   1.00
H940   H     0.56139   0.96195   0.77896   0.00000  Uiso   1.00
N941   N     0.38265   0.83332   0.74998   0.00000  Uiso   1.00
N942   N     0.61735   0.83335   0.75000   0.00000  Uiso   1.00
O943   O     0.46042   0.89345   0.75001   0.00000  Uiso   1.00
O944   O     0.53961   0.89346   0.75001   0.00000  Uiso   1.00
O945   O     0.44108   0.83332   0.82549   0.00000  Uiso   1.00
O946   O     0.52027   0.83333   0.82549   0.00000  Uiso   1.00
O947   O     0.46039   0.77321   0.75000   0.00000  Uiso   1.00
O948   O     0.53958   0.77322   0.75000   0.00000  Uiso   1.00
O949   O     0.47973   0.83334   0.67451   0.00000  Uiso   1.00
O950   O     0.55892   0.83335   0.67451   0.00000  Uiso   1.00
Br951  Br    0.41937   0.95509   0.69874   0.00000  Uiso   1.00
Br952  Br    0.42633   0.90227   0.56551   0.00000  Uiso   1.00
C953   C     0.83352   0.91267   0.74856   0.00000  Uiso   1.00
C954   C     0.81541   0.84051   0.98738   0.00000  Uiso   1.00
C955   C     0.82573   0.82547   0.93567   0.00000  Uiso   1.00
C956   C     0.85077   0.83288   0.51407   0.00000  Uiso   1.00
C957   C     0.89830   0.81792   0.98670   0.00000  Uiso   1.00
C958   C     0.90731   0.80310   0.93646   0.00000  Uiso   1.00
C959   C     0.87019   0.80379   0.91309   0.00000  Uiso   1.00
C960   C     0.83890   0.83551   0.56798   0.00000  Uiso   1.00
C961   C     0.92346   0.82231   0.56459   0.00000  Uiso   1.00
C962   C     0.79195   0.83335   0.90731   0.00000  Uiso   1.00
C963   C     0.86818   0.97841   0.76481   0.00000  Uiso   1.00
C964   C     0.80720   0.83158   0.85009   0.00000  Uiso   1.00
C965   C     0.86853   0.68765   0.76540   0.00000  Uiso   1.00
C966   C     0.83386   0.70959   0.74865   0.00000  Uiso   1.00
C967   C     0.79954   0.68893   0.73026   0.00000  Uiso   1.00
C968   C     0.79922   0.97966   0.72878   0.00000  Uiso   1.00
C969   C     0.83342   0.95738   0.74707   0.00000  Uiso   1.00
C970   C     0.96543   0.85747   0.78403   0.00000  Uiso   1.00
C971   C     0.68173   0.85742   0.78406   0.00000  Uiso   1.00
C972   C     0.70124   0.80921   0.71594   0.00000  Uiso   1.00
C973   C     0.98492   0.80923   0.71595   0.00000  Uiso   1.00
C974   C     0.83348   0.75408   0.74979   0.00000  Uiso   1.00
C975   C     0.85956   0.83300   0.65005   0.00000  Uiso   1.00
C976   C     0.93491   0.81458   0.51155   0.00000  Uiso   1.00
C977   C     0.87478   0.83107   0.59334   0.00000  Uiso   1.00
C978   C     0.74563   0.84998   0.93284   0.00000  Uiso   1.00
C979   C     0.73555   0.86507   0.98295   0.00000  Uiso   1.00
C980   C     0.77105   0.86353   0.50891   0.00000  Uiso   1.00
Cu981  Cu    0.78645   0.83333   0.75000   0.00000  Uiso   1.00
Cu982  Cu    0.88022   0.83334   0.75000   0.00000  Uiso   1.00
H983   H     0.95178   0.81868   0.58352   0.00000  Uiso   1.00
H984   H     0.89532   0.70337   0.77973   0.00000  Uiso   1.00
H985   H     0.77337   0.70594   0.71612   0.00000  Uiso   1.00
H986   H     0.93891   0.87684   0.81126   0.00000  Uiso   1.00
H987   H     0.69269   0.87673   0.81129   0.00000  Uiso   1.00
H988   H     0.72776   0.78984   0.68873   0.00000  Uiso   1.00
H989   H     0.97397   0.78991   0.68873   0.00000  Uiso   1.00
H990   H     0.94212   0.78854   0.91638   0.00000  Uiso   1.00
H991   H     0.97177   0.80450   0.99040   0.00000  Uiso   1.00
H992   H     0.80094   0.83780   0.59098   0.00000  Uiso   1.00
H993   H     0.71877   0.85522   0.91236   0.00000  Uiso   1.00
H994   H     0.70136   0.88155   0.99983   0.00000  Uiso   1.00
H995   H     0.87715   0.78705   0.87703   0.00000  Uiso   1.00
H996   H     0.89472   0.96195   0.77896   0.00000  Uiso   1.00
N997   N     0.71598   0.83332   0.74998   0.00000  Uiso   1.00
N998   N     0.95069   0.83335   0.75000   0.00000  Uiso   1.00
O999   O     0.79375   0.89345   0.75001   0.00000  Uiso   1.00
O1000  O     0.87294   0.89346   0.75001   0.00000  Uiso   1.00
O1001  O     0.77441   0.83332   0.82549   0.00000  Uiso   1.00
O1002  O     0.85360   0.83333   0.82549   0.00000  Uiso   1.00
O1003  O     0.79373   0.77321   0.75000   0.00000  Uiso   1.00
O1004  O     0.87292   0.77322   0.75000   0.00000  Uiso   1.00
O1005  O     0.81306   0.83334   0.67451   0.00000  Uiso   1.00
O1006  O     0.89225   0.83335   0.67451   0.00000  Uiso   1.00
Br1007 Br    0.75270   0.95509   0.69874   0.00000  Uiso   1.00
Br1008 Br    0.75966   0.90227   0.56551   0.00000  Uiso   1.00
loop_
_geom_bond_atom_site_label_1
_geom_bond_atom_site_label_2
_geom_bond_distance
_geom_bond_site_symmetry_2
_ccdc_geom_bond_type
C1     O48     1.294   .     A
C1     C17     1.453   .     S
C1     O47     1.287   .     A
C2     C3      1.423   .     A
C2     C508    1.425   .     S
C2     C532    1.431   .     S
C3     C10     1.421   .     A
C3     C7      1.415   .     A
C4     C8      1.394   .     A
C4     C506    1.425   1_554 S
C4     C509    1.419   1_554 S
C5     C6      1.388   .     A
C5     C508    1.419   .     S
C5     C528    1.403   .     S
C6     C7      1.385   .     A
C6     H38     1.084   .     S
C7     H43     1.080   .     S
C8     C25     1.398   .     A
C8     H40     1.077   .     S
C9     C25     1.400   .     A
C9     C24     1.392   .     A
C9     H31     1.083   .     S
C10    C26     1.399   .     A
C10    C12     1.475   .     S
C11    H44     1.084   .     S
C11    C17     1.403   .     A
C11    C181    1.383   .     S
C12    O50     1.292   .     A
C12    O49     1.300   .     A
C13    H32     1.084   .     S
C13    C14     1.397   .     A
C13    C347    1.383   1_545 S
C14    C22     1.445   .     S
C14    C15     1.397   .     A
C15    H33     1.084   .     S
C15    C352    1.385   1_545 S
C16    Br55    1.926   .     S
C16    C17     1.415   .     A
C16    C183    1.385   .     S
C18    N46     1.367   .     A
C18    H34     1.082   .     S
C18    C75     1.415   .     S
C19    N45     1.366   .     A
C19    H35     1.082   .     S
C19    C130    1.415   1_455 S
C20    N45     1.367   .     A
C20    H36     1.082   .     S
C20    C133    1.415   1_455 S
C21    H37     1.082   .     S
C21    N46     1.366   .     A
C21    C76     1.415   .     S
C22    O51     1.289   .     A
C22    O52     1.289   .     A
C23    O53     1.292   .     A
C23    O54     1.294   .     A
C23    C25     1.462   .     S
C24    C509    1.403   1_554 S
C24    H543    1.084   1_554 S
C26    C27     1.385   .     A
C26    H41     1.083   .     S
C27    H42     1.083   .     S
C27    C532    1.394   .     S
C28    Br56    1.929   .     S
C28    C506    1.431   1_554 S
C28    C531    1.394   1_554 S
Cu29   O49     1.962   .     S
Cu29   Cu30    2.674   .     S
Cu29   O47     1.965   .     S
Cu29   O51     1.963   .     S
Cu29   N45     2.009   .     S
Cu29   O53     1.950   .     S
Cu30   O54     1.962   .     S
Cu30   O48     1.963   .     S
Cu30   N46     2.009   .     S
Cu30   O50     1.950   .     S
Cu30   O52     1.965   .     S
H39    C528    1.084   .     S
C57    O104    1.294   .     A
C57    C73     1.453   .     S
C57    O103    1.287   .     A
C58    C59     1.423   .     A
C58    C564    1.425   .     S
C58    C588    1.431   .     S
C59    C66     1.421   .     A
C59    C63     1.415   .     A
C60    C64     1.394   .     A
C60    C562    1.425   1_554 S
C60    C565    1.419   1_554 S
C61    C62     1.388   .     A
C61    C564    1.419   .     S
C61    C584    1.403   .     S
C62    C63     1.385   .     A
C62    H94     1.084   .     S
C63    H99     1.080   .     S
C64    C81     1.398   .     A
C64    H96     1.077   .     S
C65    C81     1.400   .     A
C65    C80     1.392   .     A
C65    H87     1.083   .     S
C66    C82     1.399   .     A
C66    C68     1.475   .     S
C67    H100    1.084   .     S
C67    C73     1.403   .     A
C67    C237    1.383   .     S
C68    O106    1.292   .     A
C68    O105    1.300   .     A
C69    H88     1.084   .     S
C69    C70     1.397   .     A
C69    C403    1.383   1_545 S
C70    C78     1.445   .     S
C70    C71     1.397   .     A
C71    H89     1.084   .     S
C71    C408    1.385   1_545 S
C72    Br111   1.926   .     S
C72    C73     1.415   .     A
C72    C239    1.385   .     S
C74    N102    1.367   .     A
C74    H90     1.082   .     S
C74    C131    1.415   .     S
C75    N101    1.366   .     A
C75    H91     1.082   .     S
C76    N101    1.367   .     A
C76    H92     1.082   .     S
C77    H93     1.082   .     S
C77    N102    1.366   .     A
C77    C132    1.415   .     S
C78    O107    1.289   .     A
C78    O108    1.289   .     A
C79    O109    1.292   .     A
C79    O110    1.294   .     A
C79    C81     1.462   .     S
C80    C565    1.403   1_554 S
C80    H599    1.084   1_554 S
C82    C83     1.385   .     A
C82    H97     1.083   .     S
C83    H98     1.083   .     S
C83    C588    1.394   .     S
C84    Br112   1.929   .     S
C84    C562    1.431   1_554 S
C84    C587    1.394   1_554 S
Cu85   O105    1.962   .     S
Cu85   Cu86    2.674   .     S
Cu85   O103    1.965   .     S
Cu85   O107    1.963   .     S
Cu85   N101    2.009   .     S
Cu85   O109    1.950   .     S
Cu86   O110    1.962   .     S
Cu86   O104    1.963   .     S
Cu86   N102    2.009   .     S
Cu86   O106    1.950   .     S
Cu86   O108    1.965   .     S
H95    C584    1.084   .     S
C113   O160    1.294   .     A
C113   C129    1.453   .     S
C113   O159    1.287   .     A
C114   C115    1.423   .     A
C114   C620    1.425   .     S
C114   C644    1.431   .     S
C115   C122    1.421   .     A
C115   C119    1.415   .     A
C116   C120    1.394   .     A
C116   C618    1.425   1_554 S
C116   C621    1.419   1_554 S
C117   C118    1.388   .     A
C117   C620    1.419   .     S
C117   C640    1.403   .     S
C118   C119    1.385   .     A
C118   H150    1.084   .     S
C119   H155    1.080   .     S
C120   C137    1.398   .     A
C120   H152    1.077   .     S
C121   C137    1.400   .     A
C121   C136    1.392   .     A
C121   H143    1.083   .     S
C122   C138    1.399   .     A
C122   C124    1.475   .     S
C123   H156    1.084   .     S
C123   C129    1.403   .     A
C123   C293    1.383   .     S
C124   O162    1.292   .     A
C124   O161    1.300   .     A
C125   H144    1.084   .     S
C125   C126    1.397   .     A
C125   C459    1.383   1_545 S
C126   C134    1.445   .     S
C126   C127    1.397   .     A
C127   H145    1.084   .     S
C127   C464    1.385   1_545 S
C128   Br167   1.926   .     S
C128   C129    1.415   .     A
C128   C295    1.385   .     S
C130   N158    1.367   .     A
C130   H146    1.082   .     S
C130   C19     1.415   1_655 S
C131   N157    1.366   .     A
C131   H147    1.082   .     S
C132   N157    1.367   .     A
C132   H148    1.082   .     S
C133   H149    1.082   .     S
C133   N158    1.366   .     A
C133   C20     1.415   1_655 S
C134   O163    1.289   .     A
C134   O164    1.289   .     A
C135   O165    1.292   .     A
C135   O166    1.294   .     A
C135   C137    1.462   .     S
C136   C621    1.403   1_554 S
C136   H655    1.084   1_554 S
C138   C139    1.385   .     A
C138   H153    1.083   .     S
C139   H154    1.083   .     S
C139   C644    1.394   .     S
C140   Br168   1.929   .     S
C140   C618    1.431   1_554 S
C140   C643    1.394   1_554 S
Cu141  O161    1.962   .     S
Cu141  Cu142   2.674   .     S
Cu141  O159    1.965   .     S
Cu141  O163    1.963   .     S
Cu141  N157    2.009   .     S
Cu141  O165    1.950   .     S
Cu142  O166    1.962   .     S
Cu142  O160    1.963   .     S
Cu142  N158    2.009   .     S
Cu142  O162    1.950   .     S
Cu142  O164    1.965   .     S
H151   C640    1.084   .     S
C169   O216    1.294   .     A
C169   C185    1.453   .     S
C169   O215    1.287   .     A
C170   C171    1.423   .     A
C170   C676    1.425   .     S
C170   C700    1.431   .     S
C171   C178    1.421   .     A
C171   C175    1.415   .     A
C172   C176    1.394   .     A
C172   C674    1.425   1_554 S
C172   C677    1.419   1_554 S
C173   C174    1.388   .     A
C173   C676    1.419   .     S
C173   C696    1.403   .     S
C174   C175    1.385   .     A
C174   H206    1.084   .     S
C175   H211    1.080   .     S
C176   C193    1.398   .     A
C176   H208    1.077   .     S
C177   C193    1.400   .     A
C177   C192    1.392   .     A
C177   H199    1.083   .     S
C178   C194    1.399   .     A
C178   C180    1.475   .     S
C179   H212    1.084   .     S
C179   C185    1.403   .     A
C179   C349    1.383   .     S
C180   O218    1.292   .     A
C180   O217    1.300   .     A
C181   H200    1.084   .     S
C181   C182    1.397   .     A
C182   C190    1.445   .     S
C182   C183    1.397   .     A
C183   H201    1.084   .     S
C184   Br223   1.926   .     S
C184   C185    1.415   .     A
C184   C351    1.385   .     S
C186   N214    1.367   .     A
C186   H202    1.082   .     S
C186   C243    1.415   .     S
C187   N213    1.366   .     A
C187   H203    1.082   .     S
C187   C298    1.415   1_455 S
C188   N213    1.367   .     A
C188   H204    1.082   .     S
C188   C301    1.415   1_455 S
C189   H205    1.082   .     S
C189   N214    1.366   .     A
C189   C244    1.415   .     S
C190   O219    1.289   .     A
C190   O220    1.289   .     A
C191   O221    1.292   .     A
C191   O222    1.294   .     A
C191   C193    1.462   .     S
C192   C677    1.403   1_554 S
C192   H711    1.084   1_554 S
C194   C195    1.385   .     A
C194   H209    1.083   .     S
C195   H210    1.083   .     S
C195   C700    1.394   .     S
C196   Br224   1.929   .     S
C196   C674    1.431   1_554 S
C196   C699    1.394   1_554 S
Cu197  O217    1.962   .     S
Cu197  Cu198   2.674   .     S
Cu197  O215    1.965   .     S
Cu197  O219    1.963   .     S
Cu197  N213    2.009   .     S
Cu197  O221    1.950   .     S
Cu198  O222    1.962   .     S
Cu198  O216    1.963   .     S
Cu198  N214    2.009   .     S
Cu198  O218    1.950   .     S
Cu198  O220    1.965   .     S
H207   C696    1.084   .     S
C225   O272    1.294   .     A
C225   C241    1.453   .     S
C225   O271    1.287   .     A
C226   C227    1.423   .     A
C226   C732    1.425   .     S
C226   C756    1.431   .     S
C227   C234    1.421   .     A
C227   C231    1.415   .     A
C228   C232    1.394   .     A
C228   C730    1.425   1_554 S
C228   C733    1.419   1_554 S
C229   C230    1.388   .     A
C229   C732    1.419   .     S
C229   C752    1.403   .     S
C230   C231    1.385   .     A
C230   H262    1.084   .     S
C231   H267    1.080   .     S
C232   C249    1.398   .     A
C232   H264    1.077   .     S
C233   C249    1.400   .     A
C233   C248    1.392   .     A
C233   H255    1.083   .     S
C234   C250    1.399   .     A
C234   C236    1.475   .     S
C235   H268    1.084   .     S
C235   C241    1.403   .     A
C235   C405    1.383   .     S
C236   O274    1.292   .     A
C236   O273    1.300   .     A
C237   H256    1.084   .     S
C237   C238    1.397   .     A
C238   C246    1.445   .     S
C238   C239    1.397   .     A
C239   H257    1.084   .     S
C240   Br279   1.926   .     S
C240   C241    1.415   .     A
C240   C407    1.385   .     S
C242   N270    1.367   .     A
C242   H258    1.082   .     S
C242   C299    1.415   .     S
C243   N269    1.366   .     A
C243   H259    1.082   .     S
C244   N269    1.367   .     A
C244   H260    1.082   .     S
C245   H261    1.082   .     S
C245   N270    1.366   .     A
C245   C300    1.415   .     S
C246   O275    1.289   .     A
C246   O276    1.289   .     A
C247   O277    1.292   .     A
C247   O278    1.294   .     A
C247   C249    1.462   .     S
C248   C733    1.403   1_554 S
C248   H767    1.084   1_554 S
C250   C251    1.385   .     A
C250   H265    1.083   .     S
C251   H266    1.083   .     S
C251   C756    1.394   .     S
C252   Br280   1.929   .     S
C252   C730    1.431   1_554 S
C252   C755    1.394   1_554 S
Cu253  O273    1.962   .     S
Cu253  Cu254   2.674   .     S
Cu253  O271    1.965   .     S
Cu253  O275    1.963   .     S
Cu253  N269    2.009   .     S
Cu253  O277    1.950   .     S
Cu254  O278    1.962   .     S
Cu254  O272    1.963   .     S
Cu254  N270    2.009   .     S
Cu254  O274    1.950   .     S
Cu254  O276    1.965   .     S
H263   C752    1.084   .     S
C281   O328    1.294   .     A
C281   C297    1.453   .     S
C281   O327    1.287   .     A
C282   C283    1.423   .     A
C282   C788    1.425   .     S
C282   C812    1.431   .     S
C283   C290    1.421   .     A
C283   C287    1.415   .     A
C284   C288    1.394   .     A
C284   C786    1.425   1_554 S
C284   C789    1.419   1_554 S
C285   C286    1.388   .     A
C285   C788    1.419   .     S
C285   C808    1.403   .     S
C286   C287    1.385   .     A
C286   H318    1.084   .     S
C287   H323    1.080   .     S
C288   C305    1.398   .     A
C288   H320    1.077   .     S
C289   C305    1.400   .     A
C289   C304    1.392   .     A
C289   H311    1.083   .     S
C290   C306    1.399   .     A
C290   C292    1.475   .     S
C291   H324    1.084   .     S
C291   C297    1.403   .     A
C291   C461    1.383   .     S
C292   O330    1.292   .     A
C292   O329    1.300   .     A
C293   H312    1.084   .     S
C293   C294    1.397   .     A
C294   C302    1.445   .     S
C294   C295    1.397   .     A
C295   H313    1.084   .     S
C296   Br335   1.926   .     S
C296   C297    1.415   .     A
C296   C463    1.385   .     S
C298   N326    1.367   .     A
C298   H314    1.082   .     S
C298   C187    1.415   1_655 S
C299   N325    1.366   .     A
C299   H315    1.082   .     S
C300   N325    1.367   .     A
C300   H316    1.082   .     S
C301   H317    1.082   .     S
C301   N326    1.366   .     A
C301   C188    1.415   1_655 S
C302   O331    1.289   .     A
C302   O332    1.289   .     A
C303   O333    1.292   .     A
C303   O334    1.294   .     A
C303   C305    1.462   .     S
C304   C789    1.403   1_554 S
C304   H823    1.084   1_554 S
C306   C307    1.385   .     A
C306   H321    1.083   .     S
C307   H322    1.083   .     S
C307   C812    1.394   .     S
C308   Br336   1.929   .     S
C308   C786    1.431   1_554 S
C308   C811    1.394   1_554 S
Cu309  O329    1.962   .     S
Cu309  Cu310   2.674   .     S
Cu309  O327    1.965   .     S
Cu309  O331    1.963   .     S
Cu309  N325    2.009   .     S
Cu309  O333    1.950   .     S
Cu310  O334    1.962   .     S
Cu310  O328    1.963   .     S
Cu310  N326    2.009   .     S
Cu310  O330    1.950   .     S
Cu310  O332    1.965   .     S
H319   C808    1.084   .     S
C337   O384    1.294   .     A
C337   C353    1.453   .     S
C337   O383    1.287   .     A
C338   C339    1.423   .     A
C338   C844    1.425   .     S
C338   C868    1.431   .     S
C339   C346    1.421   .     A
C339   C343    1.415   .     A
C340   C344    1.394   .     A
C340   C842    1.425   1_554 S
C340   C845    1.419   1_554 S
C341   C342    1.388   .     A
C341   C844    1.419   .     S
C341   C864    1.403   .     S
C342   C343    1.385   .     A
C342   H374    1.084   .     S
C343   H379    1.080   .     S
C344   C361    1.398   .     A
C344   H376    1.077   .     S
C345   C361    1.400   .     A
C345   C360    1.392   .     A
C345   H367    1.083   .     S
C346   C362    1.399   .     A
C346   C348    1.475   .     S
C347   H380    1.084   .     S
C347   C353    1.403   .     A
C347   C13     1.383   1_565 S
C348   O386    1.292   .     A
C348   O385    1.300   .     A
C349   H368    1.084   .     S
C349   C350    1.397   .     A
C350   C358    1.445   .     S
C350   C351    1.397   .     A
C351   H369    1.084   .     S
C352   Br391   1.926   .     S
C352   C353    1.415   .     A
C352   C15     1.385   1_565 S
C354   N382    1.367   .     A
C354   H370    1.082   .     S
C354   C411    1.415   .     S
C355   N381    1.366   .     A
C355   H371    1.082   .     S
C355   C466    1.415   1_455 S
C356   N381    1.367   .     A
C356   H372    1.082   .     S
C356   C469    1.415   1_455 S
C357   H373    1.082   .     S
C357   N382    1.366   .     A
C357   C412    1.415   .     S
C358   O387    1.289   .     A
C358   O388    1.289   .     A
C359   O389    1.292   .     A
C359   O390    1.294   .     A
C359   C361    1.462   .     S
C360   C845    1.403   1_554 S
C360   H879    1.084   1_554 S
C362   C363    1.385   .     A
C362   H377    1.083   .     S
C363   H378    1.083   .     S
C363   C868    1.394   .     S
C364   Br392   1.929   .     S
C364   C842    1.431   1_554 S
C364   C867    1.394   1_554 S
Cu365  O385    1.962   .     S
Cu365  Cu366   2.674   .     S
Cu365  O383    1.965   .     S
Cu365  O387    1.963   .     S
Cu365  N381    2.009   .     S
Cu365  O389    1.950   .     S
Cu366  O390    1.962   .     S
Cu366  O384    1.963   .     S
Cu366  N382    2.009   .     S
Cu366  O386    1.950   .     S
Cu366  O388    1.965   .     S
H375   C864    1.084   .     S
C393   O440    1.294   .     A
C393   C409    1.453   .     S
C393   O439    1.287   .     A
C394   C395    1.423   .     A
C394   C900    1.425   .     S
C394   C924    1.431   .     S
C395   C402    1.421   .     A
C395   C399    1.415   .     A
C396   C400    1.394   .     A
C396   C898    1.425   1_554 S
C396   C901    1.419   1_554 S
C397   C398    1.388   .     A
C397   C900    1.419   .     S
C397   C920    1.403   .     S
C398   C399    1.385   .     A
C398   H430    1.084   .     S
C399   H435    1.080   .     S
C400   C417    1.398   .     A
C400   H432    1.077   .     S
C401   C417    1.400   .     A
C401   C416    1.392   .     A
C401   H423    1.083   .     S
C402   C418    1.399   .     A
C402   C404    1.475   .     S
C403   H436    1.084   .     S
C403   C409    1.403   .     A
C403   C69     1.383   1_565 S
C404   O442    1.292   .     A
C404   O441    1.300   .     A
C405   H424    1.084   .     S
C405   C406    1.397   .     A
C406   C414    1.445   .     S
C406   C407    1.397   .     A
C407   H425    1.084   .     S
C408   Br447   1.926   .     S
C408   C409    1.415   .     A
C408   C71     1.385   1_565 S
C410   N438    1.367   .     A
C410   H426    1.082   .     S
C410   C467    1.415   .     S
C411   N437    1.366   .     A
C411   H427    1.082   .     S
C412   N437    1.367   .     A
C412   H428    1.082   .     S
C413   H429    1.082   .     S
C413   N438    1.366   .     A
C413   C468    1.415   .     S
C414   O443    1.289   .     A
C414   O444    1.289   .     A
C415   O445    1.292   .     A
C415   O446    1.294   .     A
C415   C417    1.462   .     S
C416   C901    1.403   1_554 S
C416   H935    1.084   1_554 S
C418   C419    1.385   .     A
C418   H433    1.083   .     S
C419   H434    1.083   .     S
C419   C924    1.394   .     S
C420   Br448   1.929   .     S
C420   C898    1.431   1_554 S
C420   C923    1.394   1_554 S
Cu421  O441    1.962   .     S
Cu421  Cu422   2.674   .     S
Cu421  O439    1.965   .     S
Cu421  O443    1.963   .     S
Cu421  N437    2.009   .     S
Cu421  O445    1.950   .     S
Cu422  O446    1.962   .     S
Cu422  O440    1.963   .     S
Cu422  N438    2.009   .     S
Cu422  O442    1.950   .     S
Cu422  O444    1.965   .     S
H431   C920    1.084   .     S
C449   O496    1.294   .     A
C449   C465    1.453   .     S
C449   O495    1.287   .     A
C450   C451    1.423   .     A
C450   C956    1.425   .     S
C450   C980    1.431   .     S
C451   C458    1.421   .     A
C451   C455    1.415   .     A
C452   C456    1.394   .     A
C452   C954    1.425   1_554 S
C452   C957    1.419   1_554 S
C453   C454    1.388   .     A
C453   C956    1.419   .     S
C453   C976    1.403   .     S
C454   C455    1.385   .     A
C454   H486    1.084   .     S
C455   H491    1.080   .     S
C456   C473    1.398   .     A
C456   H488    1.077   .     S
C457   C473    1.400   .     A
C457   C472    1.392   .     A
C457   H479    1.083   .     S
C458   C474    1.399   .     A
C458   C460    1.475   .     S
C459   H492    1.084   .     S
C459   C465    1.403   .     A
C459   C125    1.383   1_565 S
C460   O498    1.292   .     A
C460   O497    1.300   .     A
C461   H480    1.084   .     S
C461   C462    1.397   .     A
C462   C470    1.445   .     S
C462   C463    1.397   .     A
C463   H481    1.084   .     S
C464   Br503   1.926   .     S
C464   C465    1.415   .     A
C464   C127    1.385   1_565 S
C466   N494    1.367   .     A
C466   H482    1.082   .     S
C466   C355    1.415   1_655 S
C467   N493    1.366   .     A
C467   H483    1.082   .     S
C468   N493    1.367   .     A
C468   H484    1.082   .     S
C469   H485    1.082   .     S
C469   N494    1.366   .     A
C469   C356    1.415   1_655 S
C470   O499    1.289   .     A
C470   O500    1.289   .     A
C471   O501    1.292   .     A
C471   O502    1.294   .     A
C471   C473    1.462   .     S
C472   C957    1.403   1_554 S
C472   H991    1.084   1_554 S
C474   C475    1.385   .     A
C474   H489    1.083   .     S
C475   H490    1.083   .     S
C475   C980    1.394   .     S
C476   Br504   1.929   .     S
C476   C954    1.431   1_554 S
C476   C979    1.394   1_554 S
Cu477  O497    1.962   .     S
Cu477  Cu478   2.674   .     S
Cu477  O495    1.965   .     S
Cu477  O499    1.963   .     S
Cu477  N493    2.009   .     S
Cu477  O501    1.950   .     S
Cu478  O502    1.962   .     S
Cu478  O496    1.963   .     S
Cu478  N494    2.009   .     S
Cu478  O498    1.950   .     S
Cu478  O500    1.965   .     S
H487   C976    1.084   .     S
C505   O552    1.294   .     A
C505   C521    1.453   .     S
C505   O551    1.287   .     A
C506   C507    1.423   .     A
C506   C4      1.425   1_556 S
C506   C28     1.431   1_556 S
C507   C514    1.421   .     A
C507   C511    1.415   .     A
C508   C512    1.394   .     A
C509   C510    1.388   .     A
C509   C4      1.419   1_556 S
C509   C24     1.403   1_556 S
C510   C511    1.385   .     A
C510   H542    1.084   .     S
C511   H547    1.080   .     S
C512   C529    1.398   .     A
C512   H544    1.077   .     S
C513   C529    1.400   .     A
C513   C528    1.392   .     A
C513   H535    1.083   .     S
C514   C530    1.399   .     A
C514   C516    1.475   .     S
C515   H548    1.084   .     S
C515   C521    1.403   .     A
C515   C685    1.383   .     S
C516   O554    1.292   .     A
C516   O553    1.300   .     A
C517   H536    1.084   .     S
C517   C518    1.397   .     A
C517   C851    1.383   1_545 S
C518   C526    1.445   .     S
C518   C519    1.397   .     A
C519   H537    1.084   .     S
C519   C856    1.385   1_545 S
C520   Br559   1.926   .     S
C520   C521    1.415   .     A
C520   C687    1.385   .     S
C522   N550    1.367   .     A
C522   H538    1.082   .     S
C522   C579    1.415   .     S
C523   N549    1.366   .     A
C523   H539    1.082   .     S
C523   C634    1.415   1_455 S
C524   N549    1.367   .     A
C524   H540    1.082   .     S
C524   C637    1.415   1_455 S
C525   H541    1.082   .     S
C525   N550    1.366   .     A
C525   C580    1.415   .     S
C526   O555    1.289   .     A
C526   O556    1.289   .     A
C527   O557    1.292   .     A
C527   O558    1.294   .     A
C527   C529    1.462   .     S
C530   C531    1.385   .     A
C530   H545    1.083   .     S
C531   H546    1.083   .     S
C531   C28     1.394   1_556 S
C532   Br560   1.929   .     S
Cu533  O553    1.962   .     S
Cu533  Cu534   2.674   .     S
Cu533  O551    1.965   .     S
Cu533  O555    1.963   .     S
Cu533  N549    2.009   .     S
Cu533  O557    1.950   .     S
Cu534  O558    1.962   .     S
Cu534  O552    1.963   .     S
Cu534  N550    2.009   .     S
Cu534  O554    1.950   .     S
Cu534  O556    1.965   .     S
H543   C24     1.084   1_556 S
C561   O608    1.294   .     A
C561   C577    1.453   .     S
C561   O607    1.287   .     A
C562   C563    1.423   .     A
C562   C60     1.425   1_556 S
C562   C84     1.431   1_556 S
C563   C570    1.421   .     A
C563   C567    1.415   .     A
C564   C568    1.394   .     A
C565   C566    1.388   .     A
C565   C60     1.419   1_556 S
C565   C80     1.403   1_556 S
C566   C567    1.385   .     A
C566   H598    1.084   .     S
C567   H603    1.080   .     S
C568   C585    1.398   .     A
C568   H600    1.077   .     S
C569   C585    1.400   .     A
C569   C584    1.392   .     A
C569   H591    1.083   .     S
C570   C586    1.399   .     A
C570   C572    1.475   .     S
C571   H604    1.084   .     S
C571   C577    1.403   .     A
C571   C741    1.383   .     S
C572   O610    1.292   .     A
C572   O609    1.300   .     A
C573   H592    1.084   .     S
C573   C574    1.397   .     A
C573   C907    1.383   1_545 S
C574   C582    1.445   .     S
C574   C575    1.397   .     A
C575   H593    1.084   .     S
C575   C912    1.385   1_545 S
C576   Br615   1.926   .     S
C576   C577    1.415   .     A
C576   C743    1.385   .     S
C578   N606    1.367   .     A
C578   H594    1.082   .     S
C578   C635    1.415   .     S
C579   N605    1.366   .     A
C579   H595    1.082   .     S
C580   N605    1.367   .     A
C580   H596    1.082   .     S
C581   H597    1.082   .     S
C581   N606    1.366   .     A
C581   C636    1.415   .     S
C582   O611    1.289   .     A
C582   O612    1.289   .     A
C583   O613    1.292   .     A
C583   O614    1.294   .     A
C583   C585    1.462   .     S
C586   C587    1.385   .     A
C586   H601    1.083   .     S
C587   H602    1.083   .     S
C587   C84     1.394   1_556 S
C588   Br616   1.929   .     S
Cu589  O609    1.962   .     S
Cu589  Cu590   2.674   .     S
Cu589  O607    1.965   .     S
Cu589  O611    1.963   .     S
Cu589  N605    2.009   .     S
Cu589  O613    1.950   .     S
Cu590  O614    1.962   .     S
Cu590  O608    1.963   .     S
Cu590  N606    2.009   .     S
Cu590  O610    1.950   .     S
Cu590  O612    1.965   .     S
H599   C80     1.084   1_556 S
C617   O664    1.294   .     A
C617   C633    1.453   .     S
C617   O663    1.287   .     A
C618   C619    1.423   .     A
C618   C116    1.425   1_556 S
C618   C140    1.431   1_556 S
C619   C626    1.421   .     A
C619   C623    1.415   .     A
C620   C624    1.394   .     A
C621   C622    1.388   .     A
C621   C116    1.419   1_556 S
C621   C136    1.403   1_556 S
C622   C623    1.385   .     A
C622   H654    1.084   .     S
C623   H659    1.080   .     S
C624   C641    1.398   .     A
C624   H656    1.077   .     S
C625   C641    1.400   .     A
C625   C640    1.392   .     A
C625   H647    1.083   .     S
C626   C642    1.399   .     A
C626   C628    1.475   .     S
C627   H660    1.084   .     S
C627   C633    1.403   .     A
C627   C797    1.383   .     S
C628   O666    1.292   .     A
C628   O665    1.300   .     A
C629   H648    1.084   .     S
C629   C630    1.397   .     A
C629   C963    1.383   1_545 S
C630   C638    1.445   .     S
C630   C631    1.397   .     A
C631   H649    1.084   .     S
C631   C968    1.385   1_545 S
C632   Br671   1.926   .     S
C632   C633    1.415   .     A
C632   C799    1.385   .     S
C634   N662    1.367   .     A
C634   H650    1.082   .     S
C634   C523    1.415   1_655 S
C635   N661    1.366   .     A
C635   H651    1.082   .     S
C636   N661    1.367   .     A
C636   H652    1.082   .     S
C637   H653    1.082   .     S
C637   N662    1.366   .     A
C637   C524    1.415   1_655 S
C638   O667    1.289   .     A
C638   O668    1.289   .     A
C639   O669    1.292   .     A
C639   O670    1.294   .     A
C639   C641    1.462   .     S
C642   C643    1.385   .     A
C642   H657    1.083   .     S
C643   H658    1.083   .     S
C643   C140    1.394   1_556 S
C644   Br672   1.929   .     S
Cu645  O665    1.962   .     S
Cu645  Cu646   2.674   .     S
Cu645  O663    1.965   .     S
Cu645  O667    1.963   .     S
Cu645  N661    2.009   .     S
Cu645  O669    1.950   .     S
Cu646  O670    1.962   .     S
Cu646  O664    1.963   .     S
Cu646  N662    2.009   .     S
Cu646  O666    1.950   .     S
Cu646  O668    1.965   .     S
H655   C136    1.084   1_556 S
C673   O720    1.294   .     A
C673   C689    1.453   .     S
C673   O719    1.287   .     A
C674   C675    1.423   .     A
C674   C172    1.425   1_556 S
C674   C196    1.431   1_556 S
C675   C682    1.421   .     A
C675   C679    1.415   .     A
C676   C680    1.394   .     A
C677   C678    1.388   .     A
C677   C172    1.419   1_556 S
C677   C192    1.403   1_556 S
C678   C679    1.385   .     A
C678   H710    1.084   .     S
C679   H715    1.080   .     S
C680   C697    1.398   .     A
C680   H712    1.077   .     S
C681   C697    1.400   .     A
C681   C696    1.392   .     A
C681   H703    1.083   .     S
C682   C698    1.399   .     A
C682   C684    1.475   .     S
C683   H716    1.084   .     S
C683   C689    1.403   .     A
C683   C853    1.383   .     S
C684   O722    1.292   .     A
C684   O721    1.300   .     A
C685   H704    1.084   .     S
C685   C686    1.397   .     A
C686   C694    1.445   .     S
C686   C687    1.397   .     A
C687   H705    1.084   .     S
C688   Br727   1.926   .     S
C688   C689    1.415   .     A
C688   C855    1.385   .     S
C690   N718    1.367   .     A
C690   H706    1.082   .     S
C690   C747    1.415   .     S
C691   N717    1.366   .     A
C691   H707    1.082   .     S
C691   C802    1.415   1_455 S
C692   N717    1.367   .     A
C692   H708    1.082   .     S
C692   C805    1.415   1_455 S
C693   H709    1.082   .     S
C693   N718    1.366   .     A
C693   C748    1.415   .     S
C694   O723    1.289   .     A
C694   O724    1.289   .     A
C695   O725    1.292   .     A
C695   O726    1.294   .     A
C695   C697    1.462   .     S
C698   C699    1.385   .     A
C698   H713    1.083   .     S
C699   H714    1.083   .     S
C699   C196    1.394   1_556 S
C700   Br728   1.929   .     S
Cu701  O721    1.962   .     S
Cu701  Cu702   2.674   .     S
Cu701  O719    1.965   .     S
Cu701  O723    1.963   .     S
Cu701  N717    2.009   .     S
Cu701  O725    1.950   .     S
Cu702  O726    1.962   .     S
Cu702  O720    1.963   .     S
Cu702  N718    2.009   .     S
Cu702  O722    1.950   .     S
Cu702  O724    1.965   .     S
H711   C192    1.084   1_556 S
C729   O776    1.294   .     A
C729   C745    1.453   .     S
C729   O775    1.287   .     A
C730   C731    1.423   .     A
C730   C228    1.425   1_556 S
C730   C252    1.431   1_556 S
C731   C738    1.421   .     A
C731   C735    1.415   .     A
C732   C736    1.394   .     A
C733   C734    1.388   .     A
C733   C228    1.419   1_556 S
C733   C248    1.403   1_556 S
C734   C735    1.385   .     A
C734   H766    1.084   .     S
C735   H771    1.080   .     S
C736   C753    1.398   .     A
C736   H768    1.077   .     S
C737   C753    1.400   .     A
C737   C752    1.392   .     A
C737   H759    1.083   .     S
C738   C754    1.399   .     A
C738   C740    1.475   .     S
C739   H772    1.084   .     S
C739   C745    1.403   .     A
C739   C909    1.383   .     S
C740   O778    1.292   .     A
C740   O777    1.300   .     A
C741   H760    1.084   .     S
C741   C742    1.397   .     A
C742   C750    1.445   .     S
C742   C743    1.397   .     A
C743   H761    1.084   .     S
C744   Br783   1.926   .     S
C744   C745    1.415   .     A
C744   C911    1.385   .     S
C746   N774    1.367   .     A
C746   H762    1.082   .     S
C746   C803    1.415   .     S
C747   N773    1.366   .     A
C747   H763    1.082   .     S
C748   N773    1.367   .     A
C748   H764    1.082   .     S
C749   H765    1.082   .     S
C749   N774    1.366   .     A
C749   C804    1.415   .     S
C750   O779    1.289   .     A
C750   O780    1.289   .     A
C751   O781    1.292   .     A
C751   O782    1.294   .     A
C751   C753    1.462   .     S
C754   C755    1.385   .     A
C754   H769    1.083   .     S
C755   H770    1.083   .     S
C755   C252    1.394   1_556 S
C756   Br784   1.929   .     S
Cu757  O777    1.962   .     S
Cu757  Cu758   2.674   .     S
Cu757  O775    1.965   .     S
Cu757  O779    1.963   .     S
Cu757  N773    2.009   .     S
Cu757  O781    1.950   .     S
Cu758  O782    1.962   .     S
Cu758  O776    1.963   .     S
Cu758  N774    2.009   .     S
Cu758  O778    1.950   .     S
Cu758  O780    1.965   .     S
H767   C248    1.084   1_556 S
C785   O832    1.294   .     A
C785   C801    1.453   .     S
C785   O831    1.287   .     A
C786   C787    1.423   .     A
C786   C284    1.425   1_556 S
C786   C308    1.431   1_556 S
C787   C794    1.421   .     A
C787   C791    1.415   .     A
C788   C792    1.394   .     A
C789   C790    1.388   .     A
C789   C284    1.419   1_556 S
C789   C304    1.403   1_556 S
C790   C791    1.385   .     A
C790   H822    1.084   .     S
C791   H827    1.080   .     S
C792   C809    1.398   .     A
C792   H824    1.077   .     S
C793   C809    1.400   .     A
C793   C808    1.392   .     A
C793   H815    1.083   .     S
C794   C810    1.399   .     A
C794   C796    1.475   .     S
C795   H828    1.084   .     S
C795   C801    1.403   .     A
C795   C965    1.383   .     S
C796   O834    1.292   .     A
C796   O833    1.300   .     A
C797   H816    1.084   .     S
C797   C798    1.397   .     A
C798   C806    1.445   .     S
C798   C799    1.397   .     A
C799   H817    1.084   .     S
C800   Br839   1.926   .     S
C800   C801    1.415   .     A
C800   C967    1.385   .     S
C802   N830    1.367   .     A
C802   H818    1.082   .     S
C802   C691    1.415   1_655 S
C803   N829    1.366   .     A
C803   H819    1.082   .     S
C804   N829    1.367   .     A
C804   H820    1.082   .     S
C805   H821    1.082   .     S
C805   N830    1.366   .     A
C805   C692    1.415   1_655 S
C806   O835    1.289   .     A
C806   O836    1.289   .     A
C807   O837    1.292   .     A
C807   O838    1.294   .     A
C807   C809    1.462   .     S
C810   C811    1.385   .     A
C810   H825    1.083   .     S
C811   H826    1.083   .     S
C811   C308    1.394   1_556 S
C812   Br840   1.929   .     S
Cu813  O833    1.962   .     S
Cu813  Cu814   2.674   .     S
Cu813  O831    1.965   .     S
Cu813  O835    1.963   .     S
Cu813  N829    2.009   .     S
Cu813  O837    1.950   .     S
Cu814  O838    1.962   .     S
Cu814  O832    1.963   .     S
Cu814  N830    2.009   .     S
Cu814  O834    1.950   .     S
Cu814  O836    1.965   .     S
H823   C304    1.084   1_556 S
C841   O888    1.294   .     A
C841   C857    1.453   .     S
C841   O887    1.287   .     A
C842   C843    1.423   .     A
C842   C340    1.425   1_556 S
C842   C364    1.431   1_556 S
C843   C850    1.421   .     A
C843   C847    1.415   .     A
C844   C848    1.394   .     A
C845   C846    1.388   .     A
C845   C340    1.419   1_556 S
C845   C360    1.403   1_556 S
C846   C847    1.385   .     A
C846   H878    1.084   .     S
C847   H883    1.080   .     S
C848   C865    1.398   .     A
C848   H880    1.077   .     S
C849   C865    1.400   .     A
C849   C864    1.392   .     A
C849   H871    1.083   .     S
C850   C866    1.399   .     A
C850   C852    1.475   .     S
C851   H884    1.084   .     S
C851   C857    1.403   .     A
C851   C517    1.383   1_565 S
C852   O890    1.292   .     A
C852   O889    1.300   .     A
C853   H872    1.084   .     S
C853   C854    1.397   .     A
C854   C862    1.445   .     S
C854   C855    1.397   .     A
C855   H873    1.084   .     S
C856   Br895   1.926   .     S
C856   C857    1.415   .     A
C856   C519    1.385   1_565 S
C858   N886    1.367   .     A
C858   H874    1.082   .     S
C858   C915    1.415   .     S
C859   N885    1.366   .     A
C859   H875    1.082   .     S
C859   C970    1.415   1_455 S
C860   N885    1.367   .     A
C860   H876    1.082   .     S
C860   C973    1.415   1_455 S
C861   H877    1.082   .     S
C861   N886    1.366   .     A
C861   C916    1.415   .     S
C862   O891    1.289   .     A
C862   O892    1.289   .     A
C863   O893    1.292   .     A
C863   O894    1.294   .     A
C863   C865    1.462   .     S
C866   C867    1.385   .     A
C866   H881    1.083   .     S
C867   H882    1.083   .     S
C867   C364    1.394   1_556 S
C868   Br896   1.929   .     S
Cu869  O889    1.962   .     S
Cu869  Cu870   2.674   .     S
Cu869  O887    1.965   .     S
Cu869  O891    1.963   .     S
Cu869  N885    2.009   .     S
Cu869  O893    1.950   .     S
Cu870  O894    1.962   .     S
Cu870  O888    1.963   .     S
Cu870  N886    2.009   .     S
Cu870  O890    1.950   .     S
Cu870  O892    1.965   .     S
H879   C360    1.084   1_556 S
C897   O944    1.294   .     A
C897   C913    1.453   .     S
C897   O943    1.287   .     A
C898   C899    1.423   .     A
C898   C396    1.425   1_556 S
C898   C420    1.431   1_556 S
C899   C906    1.421   .     A
C899   C903    1.415   .     A
C900   C904    1.394   .     A
C901   C902    1.388   .     A
C901   C396    1.419   1_556 S
C901   C416    1.403   1_556 S
C902   C903    1.385   .     A
C902   H934    1.084   .     S
C903   H939    1.080   .     S
C904   C921    1.398   .     A
C904   H936    1.077   .     S
C905   C921    1.400   .     A
C905   C920    1.392   .     A
C905   H927    1.083   .     S
C906   C922    1.399   .     A
C906   C908    1.475   .     S
C907   H940    1.084   .     S
C907   C913    1.403   .     A
C907   C573    1.383   1_565 S
C908   O946    1.292   .     A
C908   O945    1.300   .     A
C909   H928    1.084   .     S
C909   C910    1.397   .     A
C910   C918    1.445   .     S
C910   C911    1.397   .     A
C911   H929    1.084   .     S
C912   Br951   1.926   .     S
C912   C913    1.415   .     A
C912   C575    1.385   1_565 S
C914   N942    1.367   .     A
C914   H930    1.082   .     S
C914   C971    1.415   .     S
C915   N941    1.366   .     A
C915   H931    1.082   .     S
C916   N941    1.367   .     A
C916   H932    1.082   .     S
C917   H933    1.082   .     S
C917   N942    1.366   .     A
C917   C972    1.415   .     S
C918   O947    1.289   .     A
C918   O948    1.289   .     A
C919   O949    1.292   .     A
C919   O950    1.294   .     A
C919   C921    1.462   .     S
C922   C923    1.385   .     A
C922   H937    1.083   .     S
C923   H938    1.083   .     S
C923   C420    1.394   1_556 S
C924   Br952   1.929   .     S
Cu925  O945    1.962   .     S
Cu925  Cu926   2.674   .     S
Cu925  O943    1.965   .     S
Cu925  O947    1.963   .     S
Cu925  N941    2.009   .     S
Cu925  O949    1.950   .     S
Cu926  O950    1.962   .     S
Cu926  O944    1.963   .     S
Cu926  N942    2.009   .     S
Cu926  O946    1.950   .     S
Cu926  O948    1.965   .     S
H935   C416    1.084   1_556 S
C953   O1000   1.294   .     A
C953   C969    1.453   .     S
C953   O999    1.287   .     A
C954   C955    1.423   .     A
C954   C452    1.425   1_556 S
C954   C476    1.431   1_556 S
C955   C962    1.421   .     A
C955   C959    1.415   .     A
C956   C960    1.394   .     A
C957   C958    1.388   .     A
C957   C452    1.419   1_556 S
C957   C472    1.403   1_556 S
C958   C959    1.385   .     A
C958   H990    1.084   .     S
C959   H995    1.080   .     S
C960   C977    1.398   .     A
C960   H992    1.077   .     S
C961   C977    1.400   .     A
C961   C976    1.392   .     A
C961   H983    1.083   .     S
C962   C978    1.399   .     A
C962   C964    1.475   .     S
C963   H996    1.084   .     S
C963   C969    1.403   .     A
C963   C629    1.383   1_565 S
C964   O1002   1.292   .     A
C964   O1001   1.300   .     A
C965   H984    1.084   .     S
C965   C966    1.397   .     A
C966   C974    1.445   .     S
C966   C967    1.397   .     A
C967   H985    1.084   .     S
C968   Br1007  1.926   .     S
C968   C969    1.415   .     A
C968   C631    1.385   1_565 S
C970   N998    1.367   .     A
C970   H986    1.082   .     S
C970   C859    1.415   1_655 S
C971   N997    1.366   .     A
C971   H987    1.082   .     S
C972   N997    1.367   .     A
C972   H988    1.082   .     S
C973   H989    1.082   .     S
C973   N998    1.366   .     A
C973   C860    1.415   1_655 S
C974   O1003   1.289   .     A
C974   O1004   1.289   .     A
C975   O1005   1.292   .     A
C975   O1006   1.294   .     A
C975   C977    1.462   .     S
C978   C979    1.385   .     A
C978   H993    1.083   .     S
C979   H994    1.083   .     S
C979   C476    1.394   1_556 S
C980   Br1008  1.929   .     S
Cu981  O1001   1.962   .     S
Cu981  Cu982   2.674   .     S
Cu981  O999    1.965   .     S
Cu981  O1003   1.963   .     S
Cu981  N997    2.009   .     S
Cu981  O1005   1.950   .     S
Cu982  O1006   1.962   .     S
Cu982  O1000   1.963   .     S
Cu982  N998    2.009   .     S
Cu982  O1002   1.950   .     S
Cu982  O1004   1.965   .     S
H991   C472    1.084   1_556 S
