data_str_m2_o1_o10_pcu_sym.62
_audit_creation_date              2020-01-03
_audit_creation_method            'Materials Studio'
_symmetry_space_group_name_H-M    'P1'
_symmetry_Int_Tables_number       1
_symmetry_cell_setting            triclinic
loop_
_symmetry_equiv_pos_as_xyz
  x,y,z
_cell_length_a                    26.1668
_cell_length_b                    32.7783
_cell_length_c                    28.6056
_cell_angle_alpha                 89.8483
_cell_angle_beta                  97.9609
_cell_angle_gamma                 90.2576
loop_
_atom_site_label
_atom_site_type_symbol
_atom_site_fract_x
_atom_site_fract_y
_atom_site_fract_z
_atom_site_U_iso_or_equiv
_atom_site_adp_type
_atom_site_occupancy
C1     C     0.16654   0.08723   0.16673   0.00000  Uiso   1.00
C2     C     0.16482   0.01987   0.20930   0.00000  Uiso   1.00
C3     C     0.16649   0.29033   0.16668   0.00000  Uiso   1.00
C4     C     0.16637   0.04231   0.16689   0.00000  Uiso   1.00
C5     C     0.12462   0.15332   0.01943   0.00000  Uiso   1.00
C6     C     0.20850   0.18050   0.31383   0.00000  Uiso   1.00
C7     C     0.12471   0.15315   0.30332   0.00000  Uiso   1.00
C8     C     0.20860   0.18026   0.02999   0.00000  Uiso   1.00
C9     C     0.16668   0.24586   0.16665   0.00000  Uiso   1.00
C10    C     0.06793   0.16667   0.15457   0.00000  Uiso   1.00
C11    C     0.26540   0.16671   0.17876   0.00000  Uiso   1.00
C12    C     0.01262   0.16674   0.14793   0.00000  Uiso   1.00
C13    C     0.32071   0.16678   0.18541   0.00000  Uiso   1.00
C14    C     0.16762   0.02020   0.12443   0.00000  Uiso   1.00
C15    C     0.15175   0.31192   0.20529   0.00000  Uiso   1.00
C16    C     0.18091   0.31245   0.12815   0.00000  Uiso   1.00
Cu17   Cu    0.16667   0.16667   0.21355   0.00000  Uiso   1.00
Cu18   Cu    0.16667   0.16666   0.11978   0.00000  Uiso   1.00
H19    H     0.32595   0.16672   0.11199   0.00000  Uiso   1.00
H20    H     0.24190   0.08423   0.29688   0.00000  Uiso   1.00
H21    H     0.00737   0.16683   0.22135   0.00000  Uiso   1.00
H22    H     0.09072   0.14273   0.03351   0.00000  Uiso   1.00
H23    H     0.24198   0.19195   0.29964   0.00000  Uiso   1.00
H24    H     0.09108   0.14194   0.28074   0.00000  Uiso   1.00
H25    H     0.24220   0.19151   0.05257   0.00000  Uiso   1.00
H26    H     0.07138   0.06856   0.03893   0.00000  Uiso   1.00
H27    H     0.04823   0.24586   0.23578   0.00000  Uiso   1.00
H28    H     0.28281   0.27529   0.14530   0.00000  Uiso   1.00
N29    N     0.16668   0.16668   0.28403   0.00000  Uiso   1.00
N30    N     0.16665   0.16666   0.04931   0.00000  Uiso   1.00
O31    O     0.16666   0.10655   0.20625   0.00000  Uiso   1.00
O32    O     0.12742   0.00472   0.03420   0.00000  Uiso   1.00
O33    O     0.09039   0.06786   0.07136   0.00000  Uiso   1.00
O34    O     0.14033   0.26782   0.28298   0.00000  Uiso   1.00
O35    O     0.07976   0.32403   0.26299   0.00000  Uiso   1.00
O36    O     0.06753   0.25865   0.21210   0.00000  Uiso   1.00
O37    O     0.19067   0.27031   0.04936   0.00000  Uiso   1.00
O38    O     0.25190   0.32611   0.06971   0.00000  Uiso   1.00
O39    O     0.26455   0.25942   0.11859   0.00000  Uiso   1.00
O40    O     0.14263   0.06279   0.28334   0.00000  Uiso   1.00
O41    O     0.20158   0.00508   0.30056   0.00000  Uiso   1.00
O42    O     0.16667   0.22678   0.12709   0.00000  Uiso   1.00
O43    O     0.23752   0.07018   0.26596   0.00000  Uiso   1.00
O44    O     0.16666   0.10654   0.12706   0.00000  Uiso   1.00
O45    O     0.16667   0.22679   0.20628   0.00000  Uiso   1.00
O46    O     0.09161   0.16667   0.19712   0.00000  Uiso   1.00
O47    O     0.24172   0.16666   0.13621   0.00000  Uiso   1.00
O48    O     0.09161   0.16666   0.11793   0.00000  Uiso   1.00
O49    O     0.24172   0.16667   0.21540   0.00000  Uiso   1.00
O50    O     0.18355   0.06480   0.04877   0.00000  Uiso   1.00
S51    S     0.14297   0.03936   0.06753   0.00000  Uiso   1.00
S52    S     0.10963   0.29074   0.24310   0.00000  Uiso   1.00
S53    S     0.22227   0.29229   0.08945   0.00000  Uiso   1.00
S54    S     0.18597   0.03941   0.26678   0.00000  Uiso   1.00
C55    C     0.49987   0.08723   0.16673   0.00000  Uiso   1.00
C56    C     0.49815   0.01987   0.20930   0.00000  Uiso   1.00
C57    C     0.49983   0.29033   0.16668   0.00000  Uiso   1.00
C58    C     0.49970   0.04231   0.16689   0.00000  Uiso   1.00
C59    C     0.45795   0.15332   0.01943   0.00000  Uiso   1.00
C60    C     0.54183   0.18050   0.31383   0.00000  Uiso   1.00
C61    C     0.45804   0.15315   0.30332   0.00000  Uiso   1.00
C62    C     0.54193   0.18026   0.02999   0.00000  Uiso   1.00
C63    C     0.50001   0.24586   0.16665   0.00000  Uiso   1.00
C64    C     0.40126   0.16667   0.15457   0.00000  Uiso   1.00
C65    C     0.59874   0.16671   0.17876   0.00000  Uiso   1.00
C66    C     0.34596   0.16674   0.14793   0.00000  Uiso   1.00
C67    C     0.65404   0.16678   0.18541   0.00000  Uiso   1.00
C68    C     0.50095   0.02020   0.12443   0.00000  Uiso   1.00
C69    C     0.48508   0.31192   0.20529   0.00000  Uiso   1.00
C70    C     0.51425   0.31245   0.12815   0.00000  Uiso   1.00
Cu71   Cu    0.50000   0.16667   0.21355   0.00000  Uiso   1.00
Cu72   Cu    0.50000   0.16666   0.11978   0.00000  Uiso   1.00
H73    H     0.65929   0.16672   0.11199   0.00000  Uiso   1.00
H74    H     0.57523   0.08423   0.29688   0.00000  Uiso   1.00
H75    H     0.34071   0.16683   0.22135   0.00000  Uiso   1.00
H76    H     0.42405   0.14273   0.03351   0.00000  Uiso   1.00
H77    H     0.57531   0.19195   0.29964   0.00000  Uiso   1.00
H78    H     0.42441   0.14194   0.28074   0.00000  Uiso   1.00
H79    H     0.57553   0.19151   0.05257   0.00000  Uiso   1.00
H80    H     0.40471   0.06856   0.03893   0.00000  Uiso   1.00
H81    H     0.38157   0.24586   0.23578   0.00000  Uiso   1.00
H82    H     0.61614   0.27529   0.14530   0.00000  Uiso   1.00
N83    N     0.50001   0.16668   0.28403   0.00000  Uiso   1.00
N84    N     0.49999   0.16666   0.04931   0.00000  Uiso   1.00
O85    O     0.50000   0.10655   0.20625   0.00000  Uiso   1.00
O86    O     0.46075   0.00472   0.03420   0.00000  Uiso   1.00
O87    O     0.42373   0.06786   0.07136   0.00000  Uiso   1.00
O88    O     0.47366   0.26782   0.28298   0.00000  Uiso   1.00
O89    O     0.41310   0.32403   0.26299   0.00000  Uiso   1.00
O90    O     0.40086   0.25865   0.21210   0.00000  Uiso   1.00
O91    O     0.52401   0.27031   0.04936   0.00000  Uiso   1.00
O92    O     0.58523   0.32611   0.06971   0.00000  Uiso   1.00
O93    O     0.59789   0.25942   0.11859   0.00000  Uiso   1.00
O94    O     0.47596   0.06279   0.28334   0.00000  Uiso   1.00
O95    O     0.53491   0.00508   0.30056   0.00000  Uiso   1.00
O96    O     0.50000   0.22678   0.12709   0.00000  Uiso   1.00
O97    O     0.57085   0.07018   0.26596   0.00000  Uiso   1.00
O98    O     0.50000   0.10654   0.12706   0.00000  Uiso   1.00
O99    O     0.50000   0.22679   0.20628   0.00000  Uiso   1.00
O100   O     0.42495   0.16667   0.19712   0.00000  Uiso   1.00
O101   O     0.57505   0.16666   0.13621   0.00000  Uiso   1.00
O102   O     0.42494   0.16666   0.11793   0.00000  Uiso   1.00
O103   O     0.57506   0.16667   0.21540   0.00000  Uiso   1.00
O104   O     0.51688   0.06480   0.04877   0.00000  Uiso   1.00
S105   S     0.47630   0.03936   0.06753   0.00000  Uiso   1.00
S106   S     0.44296   0.29074   0.24310   0.00000  Uiso   1.00
S107   S     0.55560   0.29229   0.08945   0.00000  Uiso   1.00
S108   S     0.51930   0.03941   0.26678   0.00000  Uiso   1.00
C109   C     0.83320   0.08723   0.16673   0.00000  Uiso   1.00
C110   C     0.83149   0.01987   0.20930   0.00000  Uiso   1.00
C111   C     0.83316   0.29033   0.16668   0.00000  Uiso   1.00
C112   C     0.83304   0.04231   0.16689   0.00000  Uiso   1.00
C113   C     0.79129   0.15332   0.01943   0.00000  Uiso   1.00
C114   C     0.87517   0.18050   0.31383   0.00000  Uiso   1.00
C115   C     0.79138   0.15315   0.30332   0.00000  Uiso   1.00
C116   C     0.87527   0.18026   0.02999   0.00000  Uiso   1.00
C117   C     0.83334   0.24586   0.16665   0.00000  Uiso   1.00
C118   C     0.73459   0.16667   0.15457   0.00000  Uiso   1.00
C119   C     0.93207   0.16671   0.17876   0.00000  Uiso   1.00
C120   C     0.67929   0.16674   0.14793   0.00000  Uiso   1.00
C121   C     0.98737   0.16678   0.18541   0.00000  Uiso   1.00
C122   C     0.83429   0.02020   0.12443   0.00000  Uiso   1.00
C123   C     0.81841   0.31192   0.20529   0.00000  Uiso   1.00
C124   C     0.84758   0.31245   0.12815   0.00000  Uiso   1.00
Cu125  Cu    0.83333   0.16667   0.21355   0.00000  Uiso   1.00
Cu126  Cu    0.83333   0.16666   0.11978   0.00000  Uiso   1.00
H127   H     0.99262   0.16672   0.11199   0.00000  Uiso   1.00
H128   H     0.90857   0.08423   0.29688   0.00000  Uiso   1.00
H129   H     0.67404   0.16683   0.22135   0.00000  Uiso   1.00
H130   H     0.75738   0.14273   0.03351   0.00000  Uiso   1.00
H131   H     0.90864   0.19195   0.29964   0.00000  Uiso   1.00
H132   H     0.75775   0.14194   0.28074   0.00000  Uiso   1.00
H133   H     0.90887   0.19151   0.05257   0.00000  Uiso   1.00
H134   H     0.73804   0.06856   0.03893   0.00000  Uiso   1.00
H135   H     0.71490   0.24586   0.23578   0.00000  Uiso   1.00
H136   H     0.94947   0.27529   0.14530   0.00000  Uiso   1.00
N137   N     0.83335   0.16668   0.28403   0.00000  Uiso   1.00
N138   N     0.83332   0.16666   0.04931   0.00000  Uiso   1.00
O139   O     0.83333   0.10655   0.20625   0.00000  Uiso   1.00
O140   O     0.79409   0.00472   0.03420   0.00000  Uiso   1.00
O141   O     0.75706   0.06786   0.07136   0.00000  Uiso   1.00
O142   O     0.80700   0.26782   0.28298   0.00000  Uiso   1.00
O143   O     0.74643   0.32403   0.26299   0.00000  Uiso   1.00
O144   O     0.73420   0.25865   0.21210   0.00000  Uiso   1.00
O145   O     0.85734   0.27031   0.04936   0.00000  Uiso   1.00
O146   O     0.91856   0.32611   0.06971   0.00000  Uiso   1.00
O147   O     0.93122   0.25942   0.11859   0.00000  Uiso   1.00
O148   O     0.80929   0.06279   0.28334   0.00000  Uiso   1.00
O149   O     0.86824   0.00508   0.30056   0.00000  Uiso   1.00
O150   O     0.83334   0.22678   0.12709   0.00000  Uiso   1.00
O151   O     0.90419   0.07018   0.26596   0.00000  Uiso   1.00
O152   O     0.83333   0.10654   0.12706   0.00000  Uiso   1.00
O153   O     0.83334   0.22679   0.20628   0.00000  Uiso   1.00
O154   O     0.75828   0.16667   0.19712   0.00000  Uiso   1.00
O155   O     0.90839   0.16666   0.13621   0.00000  Uiso   1.00
O156   O     0.75828   0.16666   0.11793   0.00000  Uiso   1.00
O157   O     0.90839   0.16667   0.21540   0.00000  Uiso   1.00
O158   O     0.85021   0.06480   0.04877   0.00000  Uiso   1.00
S159   S     0.80964   0.03936   0.06753   0.00000  Uiso   1.00
S160   S     0.77629   0.29074   0.24310   0.00000  Uiso   1.00
S161   S     0.88893   0.29229   0.08945   0.00000  Uiso   1.00
S162   S     0.85264   0.03941   0.26678   0.00000  Uiso   1.00
C163   C     0.16654   0.42056   0.16673   0.00000  Uiso   1.00
C164   C     0.16482   0.35320   0.20930   0.00000  Uiso   1.00
C165   C     0.16649   0.62366   0.16668   0.00000  Uiso   1.00
C166   C     0.16637   0.37564   0.16689   0.00000  Uiso   1.00
C167   C     0.12462   0.48665   0.01943   0.00000  Uiso   1.00
C168   C     0.20850   0.51383   0.31383   0.00000  Uiso   1.00
C169   C     0.12471   0.48649   0.30332   0.00000  Uiso   1.00
C170   C     0.20860   0.51359   0.02999   0.00000  Uiso   1.00
C171   C     0.16668   0.57919   0.16665   0.00000  Uiso   1.00
C172   C     0.06793   0.50000   0.15457   0.00000  Uiso   1.00
C173   C     0.26540   0.50005   0.17876   0.00000  Uiso   1.00
C174   C     0.01262   0.50007   0.14793   0.00000  Uiso   1.00
C175   C     0.32071   0.50011   0.18541   0.00000  Uiso   1.00
C176   C     0.16762   0.35353   0.12443   0.00000  Uiso   1.00
C177   C     0.15175   0.64525   0.20529   0.00000  Uiso   1.00
C178   C     0.18091   0.64578   0.12815   0.00000  Uiso   1.00
Cu179  Cu    0.16667   0.50001   0.21355   0.00000  Uiso   1.00
Cu180  Cu    0.16667   0.49999   0.11978   0.00000  Uiso   1.00
H181   H     0.32595   0.50005   0.11199   0.00000  Uiso   1.00
H182   H     0.24190   0.41756   0.29688   0.00000  Uiso   1.00
H183   H     0.00737   0.50017   0.22135   0.00000  Uiso   1.00
H184   H     0.09072   0.47607   0.03351   0.00000  Uiso   1.00
H185   H     0.24198   0.52528   0.29964   0.00000  Uiso   1.00
H186   H     0.09108   0.47528   0.28074   0.00000  Uiso   1.00
H187   H     0.24220   0.52484   0.05257   0.00000  Uiso   1.00
H188   H     0.07138   0.40190   0.03893   0.00000  Uiso   1.00
H189   H     0.04823   0.57919   0.23578   0.00000  Uiso   1.00
H190   H     0.28281   0.60862   0.14530   0.00000  Uiso   1.00
N191   N     0.16668   0.50001   0.28403   0.00000  Uiso   1.00
N192   N     0.16665   0.49999   0.04931   0.00000  Uiso   1.00
O193   O     0.16666   0.43989   0.20625   0.00000  Uiso   1.00
O194   O     0.12742   0.33805   0.03420   0.00000  Uiso   1.00
O195   O     0.09039   0.40120   0.07136   0.00000  Uiso   1.00
O196   O     0.14033   0.60115   0.28298   0.00000  Uiso   1.00
O197   O     0.07976   0.65736   0.26299   0.00000  Uiso   1.00
O198   O     0.06753   0.59199   0.21210   0.00000  Uiso   1.00
O199   O     0.19067   0.60364   0.04936   0.00000  Uiso   1.00
O200   O     0.25190   0.65944   0.06971   0.00000  Uiso   1.00
O201   O     0.26455   0.59275   0.11859   0.00000  Uiso   1.00
O202   O     0.14263   0.39612   0.28334   0.00000  Uiso   1.00
O203   O     0.20158   0.33841   0.30056   0.00000  Uiso   1.00
O204   O     0.16667   0.56011   0.12709   0.00000  Uiso   1.00
O205   O     0.23752   0.40351   0.26596   0.00000  Uiso   1.00
O206   O     0.16666   0.43988   0.12706   0.00000  Uiso   1.00
O207   O     0.16667   0.56012   0.20628   0.00000  Uiso   1.00
O208   O     0.09161   0.50000   0.19712   0.00000  Uiso   1.00
O209   O     0.24172   0.50000   0.13621   0.00000  Uiso   1.00
O210   O     0.09161   0.49999   0.11793   0.00000  Uiso   1.00
O211   O     0.24172   0.50001   0.21540   0.00000  Uiso   1.00
O212   O     0.18355   0.39813   0.04877   0.00000  Uiso   1.00
S213   S     0.14297   0.37269   0.06753   0.00000  Uiso   1.00
S214   S     0.10963   0.62408   0.24310   0.00000  Uiso   1.00
S215   S     0.22227   0.62562   0.08945   0.00000  Uiso   1.00
S216   S     0.18597   0.37274   0.26678   0.00000  Uiso   1.00
C217   C     0.49987   0.42056   0.16673   0.00000  Uiso   1.00
C218   C     0.49815   0.35320   0.20930   0.00000  Uiso   1.00
C219   C     0.49983   0.62366   0.16668   0.00000  Uiso   1.00
C220   C     0.49970   0.37564   0.16689   0.00000  Uiso   1.00
C221   C     0.45795   0.48665   0.01943   0.00000  Uiso   1.00
C222   C     0.54183   0.51383   0.31383   0.00000  Uiso   1.00
C223   C     0.45804   0.48649   0.30332   0.00000  Uiso   1.00
C224   C     0.54193   0.51359   0.02999   0.00000  Uiso   1.00
C225   C     0.50001   0.57919   0.16665   0.00000  Uiso   1.00
C226   C     0.40126   0.50000   0.15457   0.00000  Uiso   1.00
C227   C     0.59874   0.50005   0.17876   0.00000  Uiso   1.00
C228   C     0.34596   0.50007   0.14793   0.00000  Uiso   1.00
C229   C     0.65404   0.50011   0.18541   0.00000  Uiso   1.00
C230   C     0.50095   0.35353   0.12443   0.00000  Uiso   1.00
C231   C     0.48508   0.64525   0.20529   0.00000  Uiso   1.00
C232   C     0.51425   0.64578   0.12815   0.00000  Uiso   1.00
Cu233  Cu    0.50000   0.50001   0.21355   0.00000  Uiso   1.00
Cu234  Cu    0.50000   0.49999   0.11978   0.00000  Uiso   1.00
H235   H     0.65929   0.50005   0.11199   0.00000  Uiso   1.00
H236   H     0.57523   0.41756   0.29688   0.00000  Uiso   1.00
H237   H     0.34071   0.50017   0.22135   0.00000  Uiso   1.00
H238   H     0.42405   0.47607   0.03351   0.00000  Uiso   1.00
H239   H     0.57531   0.52528   0.29964   0.00000  Uiso   1.00
H240   H     0.42441   0.47528   0.28074   0.00000  Uiso   1.00
H241   H     0.57553   0.52484   0.05257   0.00000  Uiso   1.00
H242   H     0.40471   0.40190   0.03893   0.00000  Uiso   1.00
H243   H     0.38157   0.57919   0.23578   0.00000  Uiso   1.00
H244   H     0.61614   0.60862   0.14530   0.00000  Uiso   1.00
N245   N     0.50001   0.50001   0.28403   0.00000  Uiso   1.00
N246   N     0.49999   0.49999   0.04931   0.00000  Uiso   1.00
O247   O     0.50000   0.43989   0.20625   0.00000  Uiso   1.00
O248   O     0.46075   0.33805   0.03420   0.00000  Uiso   1.00
O249   O     0.42373   0.40120   0.07136   0.00000  Uiso   1.00
O250   O     0.47366   0.60115   0.28298   0.00000  Uiso   1.00
O251   O     0.41310   0.65736   0.26299   0.00000  Uiso   1.00
O252   O     0.40086   0.59199   0.21210   0.00000  Uiso   1.00
O253   O     0.52401   0.60364   0.04936   0.00000  Uiso   1.00
O254   O     0.58523   0.65944   0.06971   0.00000  Uiso   1.00
O255   O     0.59789   0.59275   0.11859   0.00000  Uiso   1.00
O256   O     0.47596   0.39612   0.28334   0.00000  Uiso   1.00
O257   O     0.53491   0.33841   0.30056   0.00000  Uiso   1.00
O258   O     0.50000   0.56011   0.12709   0.00000  Uiso   1.00
O259   O     0.57085   0.40351   0.26596   0.00000  Uiso   1.00
O260   O     0.50000   0.43988   0.12706   0.00000  Uiso   1.00
O261   O     0.50000   0.56012   0.20628   0.00000  Uiso   1.00
O262   O     0.42495   0.50000   0.19712   0.00000  Uiso   1.00
O263   O     0.57505   0.50000   0.13621   0.00000  Uiso   1.00
O264   O     0.42494   0.49999   0.11793   0.00000  Uiso   1.00
O265   O     0.57506   0.50001   0.21540   0.00000  Uiso   1.00
O266   O     0.51688   0.39813   0.04877   0.00000  Uiso   1.00
S267   S     0.47630   0.37269   0.06753   0.00000  Uiso   1.00
S268   S     0.44296   0.62408   0.24310   0.00000  Uiso   1.00
S269   S     0.55560   0.62562   0.08945   0.00000  Uiso   1.00
S270   S     0.51930   0.37274   0.26678   0.00000  Uiso   1.00
C271   C     0.83320   0.42056   0.16673   0.00000  Uiso   1.00
C272   C     0.83149   0.35320   0.20930   0.00000  Uiso   1.00
C273   C     0.83316   0.62366   0.16668   0.00000  Uiso   1.00
C274   C     0.83304   0.37564   0.16689   0.00000  Uiso   1.00
C275   C     0.79129   0.48665   0.01943   0.00000  Uiso   1.00
C276   C     0.87517   0.51383   0.31383   0.00000  Uiso   1.00
C277   C     0.79138   0.48649   0.30332   0.00000  Uiso   1.00
C278   C     0.87527   0.51359   0.02999   0.00000  Uiso   1.00
C279   C     0.83334   0.57919   0.16665   0.00000  Uiso   1.00
C280   C     0.73459   0.50000   0.15457   0.00000  Uiso   1.00
C281   C     0.93207   0.50005   0.17876   0.00000  Uiso   1.00
C282   C     0.67929   0.50007   0.14793   0.00000  Uiso   1.00
C283   C     0.98737   0.50011   0.18541   0.00000  Uiso   1.00
C284   C     0.83429   0.35353   0.12443   0.00000  Uiso   1.00
C285   C     0.81841   0.64525   0.20529   0.00000  Uiso   1.00
C286   C     0.84758   0.64578   0.12815   0.00000  Uiso   1.00
Cu287  Cu    0.83333   0.50001   0.21355   0.00000  Uiso   1.00
Cu288  Cu    0.83333   0.49999   0.11978   0.00000  Uiso   1.00
H289   H     0.99262   0.50005   0.11199   0.00000  Uiso   1.00
H290   H     0.90857   0.41756   0.29688   0.00000  Uiso   1.00
H291   H     0.67404   0.50017   0.22135   0.00000  Uiso   1.00
H292   H     0.75738   0.47607   0.03351   0.00000  Uiso   1.00
H293   H     0.90864   0.52528   0.29964   0.00000  Uiso   1.00
H294   H     0.75775   0.47528   0.28074   0.00000  Uiso   1.00
H295   H     0.90887   0.52484   0.05257   0.00000  Uiso   1.00
H296   H     0.73804   0.40190   0.03893   0.00000  Uiso   1.00
H297   H     0.71490   0.57919   0.23578   0.00000  Uiso   1.00
H298   H     0.94947   0.60862   0.14530   0.00000  Uiso   1.00
N299   N     0.83335   0.50001   0.28403   0.00000  Uiso   1.00
N300   N     0.83332   0.49999   0.04931   0.00000  Uiso   1.00
O301   O     0.83333   0.43989   0.20625   0.00000  Uiso   1.00
O302   O     0.79409   0.33805   0.03420   0.00000  Uiso   1.00
O303   O     0.75706   0.40120   0.07136   0.00000  Uiso   1.00
O304   O     0.80700   0.60115   0.28298   0.00000  Uiso   1.00
O305   O     0.74643   0.65736   0.26299   0.00000  Uiso   1.00
O306   O     0.73420   0.59199   0.21210   0.00000  Uiso   1.00
O307   O     0.85734   0.60364   0.04936   0.00000  Uiso   1.00
O308   O     0.91856   0.65944   0.06971   0.00000  Uiso   1.00
O309   O     0.93122   0.59275   0.11859   0.00000  Uiso   1.00
O310   O     0.80929   0.39612   0.28334   0.00000  Uiso   1.00
O311   O     0.86824   0.33841   0.30056   0.00000  Uiso   1.00
O312   O     0.83334   0.56011   0.12709   0.00000  Uiso   1.00
O313   O     0.90419   0.40351   0.26596   0.00000  Uiso   1.00
O314   O     0.83333   0.43988   0.12706   0.00000  Uiso   1.00
O315   O     0.83334   0.56012   0.20628   0.00000  Uiso   1.00
O316   O     0.75828   0.50000   0.19712   0.00000  Uiso   1.00
O317   O     0.90839   0.50000   0.13621   0.00000  Uiso   1.00
O318   O     0.75828   0.49999   0.11793   0.00000  Uiso   1.00
O319   O     0.90839   0.50001   0.21540   0.00000  Uiso   1.00
O320   O     0.85021   0.39813   0.04877   0.00000  Uiso   1.00
S321   S     0.80964   0.37269   0.06753   0.00000  Uiso   1.00
S322   S     0.77629   0.62408   0.24310   0.00000  Uiso   1.00
S323   S     0.88893   0.62562   0.08945   0.00000  Uiso   1.00
S324   S     0.85264   0.37274   0.26678   0.00000  Uiso   1.00
C325   C     0.16654   0.75390   0.16673   0.00000  Uiso   1.00
C326   C     0.16482   0.68653   0.20930   0.00000  Uiso   1.00
C327   C     0.16649   0.95699   0.16668   0.00000  Uiso   1.00
C328   C     0.16637   0.70897   0.16689   0.00000  Uiso   1.00
C329   C     0.12462   0.81998   0.01943   0.00000  Uiso   1.00
C330   C     0.20850   0.84717   0.31383   0.00000  Uiso   1.00
C331   C     0.12471   0.81982   0.30332   0.00000  Uiso   1.00
C332   C     0.20860   0.84693   0.02999   0.00000  Uiso   1.00
C333   C     0.16668   0.91252   0.16665   0.00000  Uiso   1.00
C334   C     0.06793   0.83333   0.15457   0.00000  Uiso   1.00
C335   C     0.26540   0.83338   0.17876   0.00000  Uiso   1.00
C336   C     0.01262   0.83341   0.14793   0.00000  Uiso   1.00
C337   C     0.32071   0.83345   0.18541   0.00000  Uiso   1.00
C338   C     0.16762   0.68686   0.12443   0.00000  Uiso   1.00
C339   C     0.15175   0.97859   0.20529   0.00000  Uiso   1.00
C340   C     0.18091   0.97911   0.12815   0.00000  Uiso   1.00
Cu341  Cu    0.16667   0.83334   0.21355   0.00000  Uiso   1.00
Cu342  Cu    0.16667   0.83333   0.11978   0.00000  Uiso   1.00
H343   H     0.32595   0.83338   0.11199   0.00000  Uiso   1.00
H344   H     0.24190   0.75090   0.29688   0.00000  Uiso   1.00
H345   H     0.00737   0.83350   0.22135   0.00000  Uiso   1.00
H346   H     0.09072   0.80940   0.03351   0.00000  Uiso   1.00
H347   H     0.24198   0.85861   0.29964   0.00000  Uiso   1.00
H348   H     0.09108   0.80861   0.28074   0.00000  Uiso   1.00
H349   H     0.24220   0.85817   0.05257   0.00000  Uiso   1.00
H350   H     0.07138   0.73523   0.03893   0.00000  Uiso   1.00
H351   H     0.04823   0.91253   0.23578   0.00000  Uiso   1.00
H352   H     0.28281   0.94195   0.14530   0.00000  Uiso   1.00
N353   N     0.16668   0.83334   0.28403   0.00000  Uiso   1.00
N354   N     0.16665   0.83332   0.04931   0.00000  Uiso   1.00
O355   O     0.16666   0.77322   0.20625   0.00000  Uiso   1.00
O356   O     0.12742   0.67139   0.03420   0.00000  Uiso   1.00
O357   O     0.09039   0.73453   0.07136   0.00000  Uiso   1.00
O358   O     0.14033   0.93449   0.28298   0.00000  Uiso   1.00
O359   O     0.07976   0.99069   0.26299   0.00000  Uiso   1.00
O360   O     0.06753   0.92532   0.21210   0.00000  Uiso   1.00
O361   O     0.19067   0.93697   0.04936   0.00000  Uiso   1.00
O362   O     0.25190   0.99278   0.06971   0.00000  Uiso   1.00
O363   O     0.26455   0.92608   0.11859   0.00000  Uiso   1.00
O364   O     0.14263   0.72946   0.28334   0.00000  Uiso   1.00
O365   O     0.20158   0.67174   0.30056   0.00000  Uiso   1.00
O366   O     0.16667   0.89345   0.12709   0.00000  Uiso   1.00
O367   O     0.23752   0.73684   0.26596   0.00000  Uiso   1.00
O368   O     0.16666   0.77321   0.12706   0.00000  Uiso   1.00
O369   O     0.16667   0.89346   0.20628   0.00000  Uiso   1.00
O370   O     0.09161   0.83334   0.19712   0.00000  Uiso   1.00
O371   O     0.24172   0.83333   0.13621   0.00000  Uiso   1.00
O372   O     0.09161   0.83333   0.11793   0.00000  Uiso   1.00
O373   O     0.24172   0.83334   0.21540   0.00000  Uiso   1.00
O374   O     0.18355   0.73147   0.04877   0.00000  Uiso   1.00
S375   S     0.14297   0.70602   0.06753   0.00000  Uiso   1.00
S376   S     0.10963   0.95741   0.24310   0.00000  Uiso   1.00
S377   S     0.22227   0.95895   0.08945   0.00000  Uiso   1.00
S378   S     0.18597   0.70608   0.26678   0.00000  Uiso   1.00
C379   C     0.49987   0.75390   0.16673   0.00000  Uiso   1.00
C380   C     0.49815   0.68653   0.20930   0.00000  Uiso   1.00
C381   C     0.49983   0.95699   0.16668   0.00000  Uiso   1.00
C382   C     0.49970   0.70897   0.16689   0.00000  Uiso   1.00
C383   C     0.45795   0.81998   0.01943   0.00000  Uiso   1.00
C384   C     0.54183   0.84717   0.31383   0.00000  Uiso   1.00
C385   C     0.45804   0.81982   0.30332   0.00000  Uiso   1.00
C386   C     0.54193   0.84693   0.02999   0.00000  Uiso   1.00
C387   C     0.50001   0.91252   0.16665   0.00000  Uiso   1.00
C388   C     0.40126   0.83333   0.15457   0.00000  Uiso   1.00
C389   C     0.59874   0.83338   0.17876   0.00000  Uiso   1.00
C390   C     0.34596   0.83341   0.14793   0.00000  Uiso   1.00
C391   C     0.65404   0.83345   0.18541   0.00000  Uiso   1.00
C392   C     0.50095   0.68686   0.12443   0.00000  Uiso   1.00
C393   C     0.48508   0.97859   0.20529   0.00000  Uiso   1.00
C394   C     0.51425   0.97911   0.12815   0.00000  Uiso   1.00
Cu395  Cu    0.50000   0.83334   0.21355   0.00000  Uiso   1.00
Cu396  Cu    0.50000   0.83333   0.11978   0.00000  Uiso   1.00
H397   H     0.65929   0.83338   0.11199   0.00000  Uiso   1.00
H398   H     0.57523   0.75090   0.29688   0.00000  Uiso   1.00
H399   H     0.34071   0.83350   0.22135   0.00000  Uiso   1.00
H400   H     0.42405   0.80940   0.03351   0.00000  Uiso   1.00
H401   H     0.57531   0.85861   0.29964   0.00000  Uiso   1.00
H402   H     0.42441   0.80861   0.28074   0.00000  Uiso   1.00
H403   H     0.57553   0.85817   0.05257   0.00000  Uiso   1.00
H404   H     0.40471   0.73523   0.03893   0.00000  Uiso   1.00
H405   H     0.38157   0.91253   0.23578   0.00000  Uiso   1.00
H406   H     0.61614   0.94195   0.14530   0.00000  Uiso   1.00
N407   N     0.50001   0.83334   0.28403   0.00000  Uiso   1.00
N408   N     0.49999   0.83332   0.04931   0.00000  Uiso   1.00
O409   O     0.50000   0.77322   0.20625   0.00000  Uiso   1.00
O410   O     0.46075   0.67139   0.03420   0.00000  Uiso   1.00
O411   O     0.42373   0.73453   0.07136   0.00000  Uiso   1.00
O412   O     0.47366   0.93449   0.28298   0.00000  Uiso   1.00
O413   O     0.41310   0.99069   0.26299   0.00000  Uiso   1.00
O414   O     0.40086   0.92532   0.21210   0.00000  Uiso   1.00
O415   O     0.52401   0.93697   0.04936   0.00000  Uiso   1.00
O416   O     0.58523   0.99278   0.06971   0.00000  Uiso   1.00
O417   O     0.59789   0.92608   0.11859   0.00000  Uiso   1.00
O418   O     0.47596   0.72946   0.28334   0.00000  Uiso   1.00
O419   O     0.53491   0.67174   0.30056   0.00000  Uiso   1.00
O420   O     0.50000   0.89345   0.12709   0.00000  Uiso   1.00
O421   O     0.57085   0.73684   0.26596   0.00000  Uiso   1.00
O422   O     0.50000   0.77321   0.12706   0.00000  Uiso   1.00
O423   O     0.50000   0.89346   0.20628   0.00000  Uiso   1.00
O424   O     0.42495   0.83334   0.19712   0.00000  Uiso   1.00
O425   O     0.57505   0.83333   0.13621   0.00000  Uiso   1.00
O426   O     0.42494   0.83333   0.11793   0.00000  Uiso   1.00
O427   O     0.57506   0.83334   0.21540   0.00000  Uiso   1.00
O428   O     0.51688   0.73147   0.04877   0.00000  Uiso   1.00
S429   S     0.47630   0.70602   0.06753   0.00000  Uiso   1.00
S430   S     0.44296   0.95741   0.24310   0.00000  Uiso   1.00
S431   S     0.55560   0.95895   0.08945   0.00000  Uiso   1.00
S432   S     0.51930   0.70608   0.26678   0.00000  Uiso   1.00
C433   C     0.83320   0.75390   0.16673   0.00000  Uiso   1.00
C434   C     0.83149   0.68653   0.20930   0.00000  Uiso   1.00
C435   C     0.83316   0.95699   0.16668   0.00000  Uiso   1.00
C436   C     0.83304   0.70897   0.16689   0.00000  Uiso   1.00
C437   C     0.79129   0.81998   0.01943   0.00000  Uiso   1.00
C438   C     0.87517   0.84717   0.31383   0.00000  Uiso   1.00
C439   C     0.79138   0.81982   0.30332   0.00000  Uiso   1.00
C440   C     0.87527   0.84693   0.02999   0.00000  Uiso   1.00
C441   C     0.83334   0.91252   0.16665   0.00000  Uiso   1.00
C442   C     0.73459   0.83333   0.15457   0.00000  Uiso   1.00
C443   C     0.93207   0.83338   0.17876   0.00000  Uiso   1.00
C444   C     0.67929   0.83341   0.14793   0.00000  Uiso   1.00
C445   C     0.98737   0.83345   0.18541   0.00000  Uiso   1.00
C446   C     0.83429   0.68686   0.12443   0.00000  Uiso   1.00
C447   C     0.81841   0.97859   0.20529   0.00000  Uiso   1.00
C448   C     0.84758   0.97911   0.12815   0.00000  Uiso   1.00
Cu449  Cu    0.83333   0.83334   0.21355   0.00000  Uiso   1.00
Cu450  Cu    0.83333   0.83333   0.11978   0.00000  Uiso   1.00
H451   H     0.99262   0.83338   0.11199   0.00000  Uiso   1.00
H452   H     0.90857   0.75090   0.29688   0.00000  Uiso   1.00
H453   H     0.67404   0.83350   0.22135   0.00000  Uiso   1.00
H454   H     0.75738   0.80940   0.03351   0.00000  Uiso   1.00
H455   H     0.90864   0.85861   0.29964   0.00000  Uiso   1.00
H456   H     0.75775   0.80861   0.28074   0.00000  Uiso   1.00
H457   H     0.90887   0.85817   0.05257   0.00000  Uiso   1.00
H458   H     0.73804   0.73523   0.03893   0.00000  Uiso   1.00
H459   H     0.71490   0.91253   0.23578   0.00000  Uiso   1.00
H460   H     0.94947   0.94195   0.14530   0.00000  Uiso   1.00
N461   N     0.83335   0.83334   0.28403   0.00000  Uiso   1.00
N462   N     0.83332   0.83332   0.04931   0.00000  Uiso   1.00
O463   O     0.83333   0.77322   0.20625   0.00000  Uiso   1.00
O464   O     0.79409   0.67139   0.03420   0.00000  Uiso   1.00
O465   O     0.75706   0.73453   0.07136   0.00000  Uiso   1.00
O466   O     0.80700   0.93449   0.28298   0.00000  Uiso   1.00
O467   O     0.74643   0.99069   0.26299   0.00000  Uiso   1.00
O468   O     0.73420   0.92532   0.21210   0.00000  Uiso   1.00
O469   O     0.85734   0.93697   0.04936   0.00000  Uiso   1.00
O470   O     0.91856   0.99278   0.06971   0.00000  Uiso   1.00
O471   O     0.93122   0.92608   0.11859   0.00000  Uiso   1.00
O472   O     0.80929   0.72946   0.28334   0.00000  Uiso   1.00
O473   O     0.86824   0.67174   0.30056   0.00000  Uiso   1.00
O474   O     0.83334   0.89345   0.12709   0.00000  Uiso   1.00
O475   O     0.90419   0.73684   0.26596   0.00000  Uiso   1.00
O476   O     0.83333   0.77321   0.12706   0.00000  Uiso   1.00
O477   O     0.83334   0.89346   0.20628   0.00000  Uiso   1.00
O478   O     0.75828   0.83334   0.19712   0.00000  Uiso   1.00
O479   O     0.90839   0.83333   0.13621   0.00000  Uiso   1.00
O480   O     0.75828   0.83333   0.11793   0.00000  Uiso   1.00
O481   O     0.90839   0.83334   0.21540   0.00000  Uiso   1.00
O482   O     0.85021   0.73147   0.04877   0.00000  Uiso   1.00
S483   S     0.80964   0.70602   0.06753   0.00000  Uiso   1.00
S484   S     0.77629   0.95741   0.24310   0.00000  Uiso   1.00
S485   S     0.88893   0.95895   0.08945   0.00000  Uiso   1.00
S486   S     0.85264   0.70608   0.26678   0.00000  Uiso   1.00
C487   C     0.16654   0.08723   0.50006   0.00000  Uiso   1.00
C488   C     0.16482   0.01987   0.54264   0.00000  Uiso   1.00
C489   C     0.16649   0.29033   0.50001   0.00000  Uiso   1.00
C490   C     0.16637   0.04231   0.50022   0.00000  Uiso   1.00
C491   C     0.12462   0.15332   0.35277   0.00000  Uiso   1.00
C492   C     0.20850   0.18050   0.64717   0.00000  Uiso   1.00
C493   C     0.12471   0.15315   0.63665   0.00000  Uiso   1.00
C494   C     0.20860   0.18026   0.36333   0.00000  Uiso   1.00
C495   C     0.16668   0.24586   0.49998   0.00000  Uiso   1.00
C496   C     0.06793   0.16667   0.48791   0.00000  Uiso   1.00
C497   C     0.26540   0.16671   0.51209   0.00000  Uiso   1.00
C498   C     0.01262   0.16674   0.48126   0.00000  Uiso   1.00
C499   C     0.32071   0.16678   0.51874   0.00000  Uiso   1.00
C500   C     0.16762   0.02020   0.45776   0.00000  Uiso   1.00
C501   C     0.15175   0.31192   0.53863   0.00000  Uiso   1.00
C502   C     0.18091   0.31245   0.46148   0.00000  Uiso   1.00
Cu503  Cu    0.16667   0.16667   0.54689   0.00000  Uiso   1.00
Cu504  Cu    0.16667   0.16666   0.45311   0.00000  Uiso   1.00
H505   H     0.32595   0.16672   0.44532   0.00000  Uiso   1.00
H506   H     0.24190   0.08423   0.63021   0.00000  Uiso   1.00
H507   H     0.00737   0.16683   0.55468   0.00000  Uiso   1.00
H508   H     0.09072   0.14273   0.36684   0.00000  Uiso   1.00
H509   H     0.24198   0.19195   0.63297   0.00000  Uiso   1.00
H510   H     0.09108   0.14194   0.61407   0.00000  Uiso   1.00
H511   H     0.24220   0.19151   0.38590   0.00000  Uiso   1.00
H512   H     0.07138   0.06856   0.37226   0.00000  Uiso   1.00
H513   H     0.04823   0.24586   0.56911   0.00000  Uiso   1.00
H514   H     0.28281   0.27529   0.47863   0.00000  Uiso   1.00
N515   N     0.16668   0.16668   0.61736   0.00000  Uiso   1.00
N516   N     0.16665   0.16666   0.38264   0.00000  Uiso   1.00
O517   O     0.16666   0.10655   0.53958   0.00000  Uiso   1.00
O518   O     0.12742   0.00472   0.36753   0.00000  Uiso   1.00
O519   O     0.09039   0.06786   0.40470   0.00000  Uiso   1.00
O520   O     0.14033   0.26782   0.61632   0.00000  Uiso   1.00
O521   O     0.07976   0.32403   0.59633   0.00000  Uiso   1.00
O522   O     0.06753   0.25865   0.54543   0.00000  Uiso   1.00
O523   O     0.19067   0.27031   0.38269   0.00000  Uiso   1.00
O524   O     0.25190   0.32611   0.40304   0.00000  Uiso   1.00
O525   O     0.26455   0.25942   0.45192   0.00000  Uiso   1.00
O526   O     0.14263   0.06279   0.61667   0.00000  Uiso   1.00
O527   O     0.20158   0.00508   0.63389   0.00000  Uiso   1.00
O528   O     0.16667   0.22678   0.46042   0.00000  Uiso   1.00
O529   O     0.23752   0.07018   0.59929   0.00000  Uiso   1.00
O530   O     0.16666   0.10654   0.46039   0.00000  Uiso   1.00
O531   O     0.16667   0.22679   0.53961   0.00000  Uiso   1.00
O532   O     0.09161   0.16667   0.53046   0.00000  Uiso   1.00
O533   O     0.24172   0.16666   0.46954   0.00000  Uiso   1.00
O534   O     0.09161   0.16666   0.45127   0.00000  Uiso   1.00
O535   O     0.24172   0.16667   0.54873   0.00000  Uiso   1.00
O536   O     0.18355   0.06480   0.38210   0.00000  Uiso   1.00
S537   S     0.14297   0.03936   0.40086   0.00000  Uiso   1.00
S538   S     0.10963   0.29074   0.57644   0.00000  Uiso   1.00
S539   S     0.22227   0.29229   0.42278   0.00000  Uiso   1.00
S540   S     0.18597   0.03941   0.60012   0.00000  Uiso   1.00
C541   C     0.49987   0.08723   0.50006   0.00000  Uiso   1.00
C542   C     0.49815   0.01987   0.54264   0.00000  Uiso   1.00
C543   C     0.49983   0.29033   0.50001   0.00000  Uiso   1.00
C544   C     0.49970   0.04231   0.50022   0.00000  Uiso   1.00
C545   C     0.45795   0.15332   0.35277   0.00000  Uiso   1.00
C546   C     0.54183   0.18050   0.64717   0.00000  Uiso   1.00
C547   C     0.45804   0.15315   0.63665   0.00000  Uiso   1.00
C548   C     0.54193   0.18026   0.36333   0.00000  Uiso   1.00
C549   C     0.50001   0.24586   0.49998   0.00000  Uiso   1.00
C550   C     0.40126   0.16667   0.48791   0.00000  Uiso   1.00
C551   C     0.59874   0.16671   0.51209   0.00000  Uiso   1.00
C552   C     0.34596   0.16674   0.48126   0.00000  Uiso   1.00
C553   C     0.65404   0.16678   0.51874   0.00000  Uiso   1.00
C554   C     0.50095   0.02020   0.45776   0.00000  Uiso   1.00
C555   C     0.48508   0.31192   0.53863   0.00000  Uiso   1.00
C556   C     0.51425   0.31245   0.46148   0.00000  Uiso   1.00
Cu557  Cu    0.50000   0.16667   0.54689   0.00000  Uiso   1.00
Cu558  Cu    0.50000   0.16666   0.45311   0.00000  Uiso   1.00
H559   H     0.65929   0.16672   0.44532   0.00000  Uiso   1.00
H560   H     0.57523   0.08423   0.63021   0.00000  Uiso   1.00
H561   H     0.34071   0.16683   0.55468   0.00000  Uiso   1.00
H562   H     0.42405   0.14273   0.36684   0.00000  Uiso   1.00
H563   H     0.57531   0.19195   0.63297   0.00000  Uiso   1.00
H564   H     0.42441   0.14194   0.61407   0.00000  Uiso   1.00
H565   H     0.57553   0.19151   0.38590   0.00000  Uiso   1.00
H566   H     0.40471   0.06856   0.37226   0.00000  Uiso   1.00
H567   H     0.38157   0.24586   0.56911   0.00000  Uiso   1.00
H568   H     0.61614   0.27529   0.47863   0.00000  Uiso   1.00
N569   N     0.50001   0.16668   0.61736   0.00000  Uiso   1.00
N570   N     0.49999   0.16666   0.38264   0.00000  Uiso   1.00
O571   O     0.50000   0.10655   0.53958   0.00000  Uiso   1.00
O572   O     0.46075   0.00472   0.36753   0.00000  Uiso   1.00
O573   O     0.42373   0.06786   0.40470   0.00000  Uiso   1.00
O574   O     0.47366   0.26782   0.61632   0.00000  Uiso   1.00
O575   O     0.41310   0.32403   0.59633   0.00000  Uiso   1.00
O576   O     0.40086   0.25865   0.54543   0.00000  Uiso   1.00
O577   O     0.52401   0.27031   0.38269   0.00000  Uiso   1.00
O578   O     0.58523   0.32611   0.40304   0.00000  Uiso   1.00
O579   O     0.59789   0.25942   0.45192   0.00000  Uiso   1.00
O580   O     0.47596   0.06279   0.61667   0.00000  Uiso   1.00
O581   O     0.53491   0.00508   0.63389   0.00000  Uiso   1.00
O582   O     0.50000   0.22678   0.46042   0.00000  Uiso   1.00
O583   O     0.57085   0.07018   0.59929   0.00000  Uiso   1.00
O584   O     0.50000   0.10654   0.46039   0.00000  Uiso   1.00
O585   O     0.50000   0.22679   0.53961   0.00000  Uiso   1.00
O586   O     0.42495   0.16667   0.53046   0.00000  Uiso   1.00
O587   O     0.57505   0.16666   0.46954   0.00000  Uiso   1.00
O588   O     0.42494   0.16666   0.45127   0.00000  Uiso   1.00
O589   O     0.57506   0.16667   0.54873   0.00000  Uiso   1.00
O590   O     0.51688   0.06480   0.38210   0.00000  Uiso   1.00
S591   S     0.47630   0.03936   0.40086   0.00000  Uiso   1.00
S592   S     0.44296   0.29074   0.57644   0.00000  Uiso   1.00
S593   S     0.55560   0.29229   0.42278   0.00000  Uiso   1.00
S594   S     0.51930   0.03941   0.60012   0.00000  Uiso   1.00
C595   C     0.83320   0.08723   0.50006   0.00000  Uiso   1.00
C596   C     0.83149   0.01987   0.54264   0.00000  Uiso   1.00
C597   C     0.83316   0.29033   0.50001   0.00000  Uiso   1.00
C598   C     0.83304   0.04231   0.50022   0.00000  Uiso   1.00
C599   C     0.79129   0.15332   0.35277   0.00000  Uiso   1.00
C600   C     0.87517   0.18050   0.64717   0.00000  Uiso   1.00
C601   C     0.79138   0.15315   0.63665   0.00000  Uiso   1.00
C602   C     0.87527   0.18026   0.36333   0.00000  Uiso   1.00
C603   C     0.83334   0.24586   0.49998   0.00000  Uiso   1.00
C604   C     0.73459   0.16667   0.48791   0.00000  Uiso   1.00
C605   C     0.93207   0.16671   0.51209   0.00000  Uiso   1.00
C606   C     0.67929   0.16674   0.48126   0.00000  Uiso   1.00
C607   C     0.98737   0.16678   0.51874   0.00000  Uiso   1.00
C608   C     0.83429   0.02020   0.45776   0.00000  Uiso   1.00
C609   C     0.81841   0.31192   0.53863   0.00000  Uiso   1.00
C610   C     0.84758   0.31245   0.46148   0.00000  Uiso   1.00
Cu611  Cu    0.83333   0.16667   0.54689   0.00000  Uiso   1.00
Cu612  Cu    0.83333   0.16666   0.45311   0.00000  Uiso   1.00
H613   H     0.99262   0.16672   0.44532   0.00000  Uiso   1.00
H614   H     0.90857   0.08423   0.63021   0.00000  Uiso   1.00
H615   H     0.67404   0.16683   0.55468   0.00000  Uiso   1.00
H616   H     0.75738   0.14273   0.36684   0.00000  Uiso   1.00
H617   H     0.90864   0.19195   0.63297   0.00000  Uiso   1.00
H618   H     0.75775   0.14194   0.61407   0.00000  Uiso   1.00
H619   H     0.90887   0.19151   0.38590   0.00000  Uiso   1.00
H620   H     0.73804   0.06856   0.37226   0.00000  Uiso   1.00
H621   H     0.71490   0.24586   0.56911   0.00000  Uiso   1.00
H622   H     0.94947   0.27529   0.47863   0.00000  Uiso   1.00
N623   N     0.83335   0.16668   0.61736   0.00000  Uiso   1.00
N624   N     0.83332   0.16666   0.38264   0.00000  Uiso   1.00
O625   O     0.83333   0.10655   0.53958   0.00000  Uiso   1.00
O626   O     0.79409   0.00472   0.36753   0.00000  Uiso   1.00
O627   O     0.75706   0.06786   0.40470   0.00000  Uiso   1.00
O628   O     0.80700   0.26782   0.61632   0.00000  Uiso   1.00
O629   O     0.74643   0.32403   0.59633   0.00000  Uiso   1.00
O630   O     0.73420   0.25865   0.54543   0.00000  Uiso   1.00
O631   O     0.85734   0.27031   0.38269   0.00000  Uiso   1.00
O632   O     0.91856   0.32611   0.40304   0.00000  Uiso   1.00
O633   O     0.93122   0.25942   0.45192   0.00000  Uiso   1.00
O634   O     0.80929   0.06279   0.61667   0.00000  Uiso   1.00
O635   O     0.86824   0.00508   0.63389   0.00000  Uiso   1.00
O636   O     0.83334   0.22678   0.46042   0.00000  Uiso   1.00
O637   O     0.90419   0.07018   0.59929   0.00000  Uiso   1.00
O638   O     0.83333   0.10654   0.46039   0.00000  Uiso   1.00
O639   O     0.83334   0.22679   0.53961   0.00000  Uiso   1.00
O640   O     0.75828   0.16667   0.53046   0.00000  Uiso   1.00
O641   O     0.90839   0.16666   0.46954   0.00000  Uiso   1.00
O642   O     0.75828   0.16666   0.45127   0.00000  Uiso   1.00
O643   O     0.90839   0.16667   0.54873   0.00000  Uiso   1.00
O644   O     0.85021   0.06480   0.38210   0.00000  Uiso   1.00
S645   S     0.80964   0.03936   0.40086   0.00000  Uiso   1.00
S646   S     0.77629   0.29074   0.57644   0.00000  Uiso   1.00
S647   S     0.88893   0.29229   0.42278   0.00000  Uiso   1.00
S648   S     0.85264   0.03941   0.60012   0.00000  Uiso   1.00
C649   C     0.16654   0.42056   0.50006   0.00000  Uiso   1.00
C650   C     0.16482   0.35320   0.54264   0.00000  Uiso   1.00
C651   C     0.16649   0.62366   0.50001   0.00000  Uiso   1.00
C652   C     0.16637   0.37564   0.50022   0.00000  Uiso   1.00
C653   C     0.12462   0.48665   0.35277   0.00000  Uiso   1.00
C654   C     0.20850   0.51383   0.64717   0.00000  Uiso   1.00
C655   C     0.12471   0.48649   0.63665   0.00000  Uiso   1.00
C656   C     0.20860   0.51359   0.36333   0.00000  Uiso   1.00
C657   C     0.16668   0.57919   0.49998   0.00000  Uiso   1.00
C658   C     0.06793   0.50000   0.48791   0.00000  Uiso   1.00
C659   C     0.26540   0.50005   0.51209   0.00000  Uiso   1.00
C660   C     0.01262   0.50007   0.48126   0.00000  Uiso   1.00
C661   C     0.32071   0.50011   0.51874   0.00000  Uiso   1.00
C662   C     0.16762   0.35353   0.45776   0.00000  Uiso   1.00
C663   C     0.15175   0.64525   0.53863   0.00000  Uiso   1.00
C664   C     0.18091   0.64578   0.46148   0.00000  Uiso   1.00
Cu665  Cu    0.16667   0.50001   0.54689   0.00000  Uiso   1.00
Cu666  Cu    0.16667   0.49999   0.45311   0.00000  Uiso   1.00
H667   H     0.32595   0.50005   0.44532   0.00000  Uiso   1.00
H668   H     0.24190   0.41756   0.63021   0.00000  Uiso   1.00
H669   H     0.00737   0.50017   0.55468   0.00000  Uiso   1.00
H670   H     0.09072   0.47607   0.36684   0.00000  Uiso   1.00
H671   H     0.24198   0.52528   0.63297   0.00000  Uiso   1.00
H672   H     0.09108   0.47528   0.61407   0.00000  Uiso   1.00
H673   H     0.24220   0.52484   0.38590   0.00000  Uiso   1.00
H674   H     0.07138   0.40190   0.37226   0.00000  Uiso   1.00
H675   H     0.04823   0.57919   0.56911   0.00000  Uiso   1.00
H676   H     0.28281   0.60862   0.47863   0.00000  Uiso   1.00
N677   N     0.16668   0.50001   0.61736   0.00000  Uiso   1.00
N678   N     0.16665   0.49999   0.38264   0.00000  Uiso   1.00
O679   O     0.16666   0.43989   0.53958   0.00000  Uiso   1.00
O680   O     0.12742   0.33805   0.36753   0.00000  Uiso   1.00
O681   O     0.09039   0.40120   0.40470   0.00000  Uiso   1.00
O682   O     0.14033   0.60115   0.61632   0.00000  Uiso   1.00
O683   O     0.07976   0.65736   0.59633   0.00000  Uiso   1.00
O684   O     0.06753   0.59199   0.54543   0.00000  Uiso   1.00
O685   O     0.19067   0.60364   0.38269   0.00000  Uiso   1.00
O686   O     0.25190   0.65944   0.40304   0.00000  Uiso   1.00
O687   O     0.26455   0.59275   0.45192   0.00000  Uiso   1.00
O688   O     0.14263   0.39612   0.61667   0.00000  Uiso   1.00
O689   O     0.20158   0.33841   0.63389   0.00000  Uiso   1.00
O690   O     0.16667   0.56011   0.46042   0.00000  Uiso   1.00
O691   O     0.23752   0.40351   0.59929   0.00000  Uiso   1.00
O692   O     0.16666   0.43988   0.46039   0.00000  Uiso   1.00
O693   O     0.16667   0.56012   0.53961   0.00000  Uiso   1.00
O694   O     0.09161   0.50000   0.53046   0.00000  Uiso   1.00
O695   O     0.24172   0.50000   0.46954   0.00000  Uiso   1.00
O696   O     0.09161   0.49999   0.45127   0.00000  Uiso   1.00
O697   O     0.24172   0.50001   0.54873   0.00000  Uiso   1.00
O698   O     0.18355   0.39813   0.38210   0.00000  Uiso   1.00
S699   S     0.14297   0.37269   0.40086   0.00000  Uiso   1.00
S700   S     0.10963   0.62408   0.57644   0.00000  Uiso   1.00
S701   S     0.22227   0.62562   0.42278   0.00000  Uiso   1.00
S702   S     0.18597   0.37274   0.60012   0.00000  Uiso   1.00
C703   C     0.49987   0.42056   0.50006   0.00000  Uiso   1.00
C704   C     0.49815   0.35320   0.54264   0.00000  Uiso   1.00
C705   C     0.49983   0.62366   0.50001   0.00000  Uiso   1.00
C706   C     0.49970   0.37564   0.50022   0.00000  Uiso   1.00
C707   C     0.45795   0.48665   0.35277   0.00000  Uiso   1.00
C708   C     0.54183   0.51383   0.64717   0.00000  Uiso   1.00
C709   C     0.45804   0.48649   0.63665   0.00000  Uiso   1.00
C710   C     0.54193   0.51359   0.36333   0.00000  Uiso   1.00
C711   C     0.50001   0.57919   0.49998   0.00000  Uiso   1.00
C712   C     0.40126   0.50000   0.48791   0.00000  Uiso   1.00
C713   C     0.59874   0.50005   0.51209   0.00000  Uiso   1.00
C714   C     0.34596   0.50007   0.48126   0.00000  Uiso   1.00
C715   C     0.65404   0.50011   0.51874   0.00000  Uiso   1.00
C716   C     0.50095   0.35353   0.45776   0.00000  Uiso   1.00
C717   C     0.48508   0.64525   0.53863   0.00000  Uiso   1.00
C718   C     0.51425   0.64578   0.46148   0.00000  Uiso   1.00
Cu719  Cu    0.50000   0.50001   0.54689   0.00000  Uiso   1.00
Cu720  Cu    0.50000   0.49999   0.45311   0.00000  Uiso   1.00
H721   H     0.65929   0.50005   0.44532   0.00000  Uiso   1.00
H722   H     0.57523   0.41756   0.63021   0.00000  Uiso   1.00
H723   H     0.34071   0.50017   0.55468   0.00000  Uiso   1.00
H724   H     0.42405   0.47607   0.36684   0.00000  Uiso   1.00
H725   H     0.57531   0.52528   0.63297   0.00000  Uiso   1.00
H726   H     0.42441   0.47528   0.61407   0.00000  Uiso   1.00
H727   H     0.57553   0.52484   0.38590   0.00000  Uiso   1.00
H728   H     0.40471   0.40190   0.37226   0.00000  Uiso   1.00
H729   H     0.38157   0.57919   0.56911   0.00000  Uiso   1.00
H730   H     0.61614   0.60862   0.47863   0.00000  Uiso   1.00
N731   N     0.50001   0.50001   0.61736   0.00000  Uiso   1.00
N732   N     0.49999   0.49999   0.38264   0.00000  Uiso   1.00
O733   O     0.50000   0.43989   0.53958   0.00000  Uiso   1.00
O734   O     0.46075   0.33805   0.36753   0.00000  Uiso   1.00
O735   O     0.42373   0.40120   0.40470   0.00000  Uiso   1.00
O736   O     0.47366   0.60115   0.61632   0.00000  Uiso   1.00
O737   O     0.41310   0.65736   0.59633   0.00000  Uiso   1.00
O738   O     0.40086   0.59199   0.54543   0.00000  Uiso   1.00
O739   O     0.52401   0.60364   0.38269   0.00000  Uiso   1.00
O740   O     0.58523   0.65944   0.40304   0.00000  Uiso   1.00
O741   O     0.59789   0.59275   0.45192   0.00000  Uiso   1.00
O742   O     0.47596   0.39612   0.61667   0.00000  Uiso   1.00
O743   O     0.53491   0.33841   0.63389   0.00000  Uiso   1.00
O744   O     0.50000   0.56011   0.46042   0.00000  Uiso   1.00
O745   O     0.57085   0.40351   0.59929   0.00000  Uiso   1.00
O746   O     0.50000   0.43988   0.46039   0.00000  Uiso   1.00
O747   O     0.50000   0.56012   0.53961   0.00000  Uiso   1.00
O748   O     0.42495   0.50000   0.53046   0.00000  Uiso   1.00
O749   O     0.57505   0.50000   0.46954   0.00000  Uiso   1.00
O750   O     0.42494   0.49999   0.45127   0.00000  Uiso   1.00
O751   O     0.57506   0.50001   0.54873   0.00000  Uiso   1.00
O752   O     0.51688   0.39813   0.38210   0.00000  Uiso   1.00
S753   S     0.47630   0.37269   0.40086   0.00000  Uiso   1.00
S754   S     0.44296   0.62408   0.57644   0.00000  Uiso   1.00
S755   S     0.55560   0.62562   0.42278   0.00000  Uiso   1.00
S756   S     0.51930   0.37274   0.60012   0.00000  Uiso   1.00
C757   C     0.83320   0.42056   0.50006   0.00000  Uiso   1.00
C758   C     0.83149   0.35320   0.54264   0.00000  Uiso   1.00
C759   C     0.83316   0.62366   0.50001   0.00000  Uiso   1.00
C760   C     0.83304   0.37564   0.50022   0.00000  Uiso   1.00
C761   C     0.79129   0.48665   0.35277   0.00000  Uiso   1.00
C762   C     0.87517   0.51383   0.64717   0.00000  Uiso   1.00
C763   C     0.79138   0.48649   0.63665   0.00000  Uiso   1.00
C764   C     0.87527   0.51359   0.36333   0.00000  Uiso   1.00
C765   C     0.83334   0.57919   0.49998   0.00000  Uiso   1.00
C766   C     0.73459   0.50000   0.48791   0.00000  Uiso   1.00
C767   C     0.93207   0.50005   0.51209   0.00000  Uiso   1.00
C768   C     0.67929   0.50007   0.48126   0.00000  Uiso   1.00
C769   C     0.98737   0.50011   0.51874   0.00000  Uiso   1.00
C770   C     0.83429   0.35353   0.45776   0.00000  Uiso   1.00
C771   C     0.81841   0.64525   0.53863   0.00000  Uiso   1.00
C772   C     0.84758   0.64578   0.46148   0.00000  Uiso   1.00
Cu773  Cu    0.83333   0.50001   0.54689   0.00000  Uiso   1.00
Cu774  Cu    0.83333   0.49999   0.45311   0.00000  Uiso   1.00
H775   H     0.99262   0.50005   0.44532   0.00000  Uiso   1.00
H776   H     0.90857   0.41756   0.63021   0.00000  Uiso   1.00
H777   H     0.67404   0.50017   0.55468   0.00000  Uiso   1.00
H778   H     0.75738   0.47607   0.36684   0.00000  Uiso   1.00
H779   H     0.90864   0.52528   0.63297   0.00000  Uiso   1.00
H780   H     0.75775   0.47528   0.61407   0.00000  Uiso   1.00
H781   H     0.90887   0.52484   0.38590   0.00000  Uiso   1.00
H782   H     0.73804   0.40190   0.37226   0.00000  Uiso   1.00
H783   H     0.71490   0.57919   0.56911   0.00000  Uiso   1.00
H784   H     0.94947   0.60862   0.47863   0.00000  Uiso   1.00
N785   N     0.83335   0.50001   0.61736   0.00000  Uiso   1.00
N786   N     0.83332   0.49999   0.38264   0.00000  Uiso   1.00
O787   O     0.83333   0.43989   0.53958   0.00000  Uiso   1.00
O788   O     0.79409   0.33805   0.36753   0.00000  Uiso   1.00
O789   O     0.75706   0.40120   0.40470   0.00000  Uiso   1.00
O790   O     0.80700   0.60115   0.61632   0.00000  Uiso   1.00
O791   O     0.74643   0.65736   0.59633   0.00000  Uiso   1.00
O792   O     0.73420   0.59199   0.54543   0.00000  Uiso   1.00
O793   O     0.85734   0.60364   0.38269   0.00000  Uiso   1.00
O794   O     0.91856   0.65944   0.40304   0.00000  Uiso   1.00
O795   O     0.93122   0.59275   0.45192   0.00000  Uiso   1.00
O796   O     0.80929   0.39612   0.61667   0.00000  Uiso   1.00
O797   O     0.86824   0.33841   0.63389   0.00000  Uiso   1.00
O798   O     0.83334   0.56011   0.46042   0.00000  Uiso   1.00
O799   O     0.90419   0.40351   0.59929   0.00000  Uiso   1.00
O800   O     0.83333   0.43988   0.46039   0.00000  Uiso   1.00
O801   O     0.83334   0.56012   0.53961   0.00000  Uiso   1.00
O802   O     0.75828   0.50000   0.53046   0.00000  Uiso   1.00
O803   O     0.90839   0.50000   0.46954   0.00000  Uiso   1.00
O804   O     0.75828   0.49999   0.45127   0.00000  Uiso   1.00
O805   O     0.90839   0.50001   0.54873   0.00000  Uiso   1.00
O806   O     0.85021   0.39813   0.38210   0.00000  Uiso   1.00
S807   S     0.80964   0.37269   0.40086   0.00000  Uiso   1.00
S808   S     0.77629   0.62408   0.57644   0.00000  Uiso   1.00
S809   S     0.88893   0.62562   0.42278   0.00000  Uiso   1.00
S810   S     0.85264   0.37274   0.60012   0.00000  Uiso   1.00
C811   C     0.16654   0.75390   0.50006   0.00000  Uiso   1.00
C812   C     0.16482   0.68653   0.54264   0.00000  Uiso   1.00
C813   C     0.16649   0.95699   0.50001   0.00000  Uiso   1.00
C814   C     0.16637   0.70897   0.50022   0.00000  Uiso   1.00
C815   C     0.12462   0.81998   0.35277   0.00000  Uiso   1.00
C816   C     0.20850   0.84717   0.64717   0.00000  Uiso   1.00
C817   C     0.12471   0.81982   0.63665   0.00000  Uiso   1.00
C818   C     0.20860   0.84693   0.36333   0.00000  Uiso   1.00
C819   C     0.16668   0.91252   0.49998   0.00000  Uiso   1.00
C820   C     0.06793   0.83333   0.48791   0.00000  Uiso   1.00
C821   C     0.26540   0.83338   0.51209   0.00000  Uiso   1.00
C822   C     0.01262   0.83341   0.48126   0.00000  Uiso   1.00
C823   C     0.32071   0.83345   0.51874   0.00000  Uiso   1.00
C824   C     0.16762   0.68686   0.45776   0.00000  Uiso   1.00
C825   C     0.15175   0.97859   0.53863   0.00000  Uiso   1.00
C826   C     0.18091   0.97911   0.46148   0.00000  Uiso   1.00
Cu827  Cu    0.16667   0.83334   0.54689   0.00000  Uiso   1.00
Cu828  Cu    0.16667   0.83333   0.45311   0.00000  Uiso   1.00
H829   H     0.32595   0.83338   0.44532   0.00000  Uiso   1.00
H830   H     0.24190   0.75090   0.63021   0.00000  Uiso   1.00
H831   H     0.00737   0.83350   0.55468   0.00000  Uiso   1.00
H832   H     0.09072   0.80940   0.36684   0.00000  Uiso   1.00
H833   H     0.24198   0.85861   0.63297   0.00000  Uiso   1.00
H834   H     0.09108   0.80861   0.61407   0.00000  Uiso   1.00
H835   H     0.24220   0.85817   0.38590   0.00000  Uiso   1.00
H836   H     0.07138   0.73523   0.37226   0.00000  Uiso   1.00
H837   H     0.04823   0.91253   0.56911   0.00000  Uiso   1.00
H838   H     0.28281   0.94195   0.47863   0.00000  Uiso   1.00
N839   N     0.16668   0.83334   0.61736   0.00000  Uiso   1.00
N840   N     0.16665   0.83332   0.38264   0.00000  Uiso   1.00
O841   O     0.16666   0.77322   0.53958   0.00000  Uiso   1.00
O842   O     0.12742   0.67139   0.36753   0.00000  Uiso   1.00
O843   O     0.09039   0.73453   0.40470   0.00000  Uiso   1.00
O844   O     0.14033   0.93449   0.61632   0.00000  Uiso   1.00
O845   O     0.07976   0.99069   0.59633   0.00000  Uiso   1.00
O846   O     0.06753   0.92532   0.54543   0.00000  Uiso   1.00
O847   O     0.19067   0.93697   0.38269   0.00000  Uiso   1.00
O848   O     0.25190   0.99278   0.40304   0.00000  Uiso   1.00
O849   O     0.26455   0.92608   0.45192   0.00000  Uiso   1.00
O850   O     0.14263   0.72946   0.61667   0.00000  Uiso   1.00
O851   O     0.20158   0.67174   0.63389   0.00000  Uiso   1.00
O852   O     0.16667   0.89345   0.46042   0.00000  Uiso   1.00
O853   O     0.23752   0.73684   0.59929   0.00000  Uiso   1.00
O854   O     0.16666   0.77321   0.46039   0.00000  Uiso   1.00
O855   O     0.16667   0.89346   0.53961   0.00000  Uiso   1.00
O856   O     0.09161   0.83334   0.53046   0.00000  Uiso   1.00
O857   O     0.24172   0.83333   0.46954   0.00000  Uiso   1.00
O858   O     0.09161   0.83333   0.45127   0.00000  Uiso   1.00
O859   O     0.24172   0.83334   0.54873   0.00000  Uiso   1.00
O860   O     0.18355   0.73147   0.38210   0.00000  Uiso   1.00
S861   S     0.14297   0.70602   0.40086   0.00000  Uiso   1.00
S862   S     0.10963   0.95741   0.57644   0.00000  Uiso   1.00
S863   S     0.22227   0.95895   0.42278   0.00000  Uiso   1.00
S864   S     0.18597   0.70608   0.60012   0.00000  Uiso   1.00
C865   C     0.49987   0.75390   0.50006   0.00000  Uiso   1.00
C866   C     0.49815   0.68653   0.54264   0.00000  Uiso   1.00
C867   C     0.49983   0.95699   0.50001   0.00000  Uiso   1.00
C868   C     0.49970   0.70897   0.50022   0.00000  Uiso   1.00
C869   C     0.45795   0.81998   0.35277   0.00000  Uiso   1.00
C870   C     0.54183   0.84717   0.64717   0.00000  Uiso   1.00
C871   C     0.45804   0.81982   0.63665   0.00000  Uiso   1.00
C872   C     0.54193   0.84693   0.36333   0.00000  Uiso   1.00
C873   C     0.50001   0.91252   0.49998   0.00000  Uiso   1.00
C874   C     0.40126   0.83333   0.48791   0.00000  Uiso   1.00
C875   C     0.59874   0.83338   0.51209   0.00000  Uiso   1.00
C876   C     0.34596   0.83341   0.48126   0.00000  Uiso   1.00
C877   C     0.65404   0.83345   0.51874   0.00000  Uiso   1.00
C878   C     0.50095   0.68686   0.45776   0.00000  Uiso   1.00
C879   C     0.48508   0.97859   0.53863   0.00000  Uiso   1.00
C880   C     0.51425   0.97911   0.46148   0.00000  Uiso   1.00
Cu881  Cu    0.50000   0.83334   0.54689   0.00000  Uiso   1.00
Cu882  Cu    0.50000   0.83333   0.45311   0.00000  Uiso   1.00
H883   H     0.65929   0.83338   0.44532   0.00000  Uiso   1.00
H884   H     0.57523   0.75090   0.63021   0.00000  Uiso   1.00
H885   H     0.34071   0.83350   0.55468   0.00000  Uiso   1.00
H886   H     0.42405   0.80940   0.36684   0.00000  Uiso   1.00
H887   H     0.57531   0.85861   0.63297   0.00000  Uiso   1.00
H888   H     0.42441   0.80861   0.61407   0.00000  Uiso   1.00
H889   H     0.57553   0.85817   0.38590   0.00000  Uiso   1.00
H890   H     0.40471   0.73523   0.37226   0.00000  Uiso   1.00
H891   H     0.38157   0.91253   0.56911   0.00000  Uiso   1.00
H892   H     0.61614   0.94195   0.47863   0.00000  Uiso   1.00
N893   N     0.50001   0.83334   0.61736   0.00000  Uiso   1.00
N894   N     0.49999   0.83332   0.38264   0.00000  Uiso   1.00
O895   O     0.50000   0.77322   0.53958   0.00000  Uiso   1.00
O896   O     0.46075   0.67139   0.36753   0.00000  Uiso   1.00
O897   O     0.42373   0.73453   0.40470   0.00000  Uiso   1.00
O898   O     0.47366   0.93449   0.61632   0.00000  Uiso   1.00
O899   O     0.41310   0.99069   0.59633   0.00000  Uiso   1.00
O900   O     0.40086   0.92532   0.54543   0.00000  Uiso   1.00
O901   O     0.52401   0.93697   0.38269   0.00000  Uiso   1.00
O902   O     0.58523   0.99278   0.40304   0.00000  Uiso   1.00
O903   O     0.59789   0.92608   0.45192   0.00000  Uiso   1.00
O904   O     0.47596   0.72946   0.61667   0.00000  Uiso   1.00
O905   O     0.53491   0.67174   0.63389   0.00000  Uiso   1.00
O906   O     0.50000   0.89345   0.46042   0.00000  Uiso   1.00
O907   O     0.57085   0.73684   0.59929   0.00000  Uiso   1.00
O908   O     0.50000   0.77321   0.46039   0.00000  Uiso   1.00
O909   O     0.50000   0.89346   0.53961   0.00000  Uiso   1.00
O910   O     0.42495   0.83334   0.53046   0.00000  Uiso   1.00
O911   O     0.57505   0.83333   0.46954   0.00000  Uiso   1.00
O912   O     0.42494   0.83333   0.45127   0.00000  Uiso   1.00
O913   O     0.57506   0.83334   0.54873   0.00000  Uiso   1.00
O914   O     0.51688   0.73147   0.38210   0.00000  Uiso   1.00
S915   S     0.47630   0.70602   0.40086   0.00000  Uiso   1.00
S916   S     0.44296   0.95741   0.57644   0.00000  Uiso   1.00
S917   S     0.55560   0.95895   0.42278   0.00000  Uiso   1.00
S918   S     0.51930   0.70608   0.60012   0.00000  Uiso   1.00
C919   C     0.83320   0.75390   0.50006   0.00000  Uiso   1.00
C920   C     0.83149   0.68653   0.54264   0.00000  Uiso   1.00
C921   C     0.83316   0.95699   0.50001   0.00000  Uiso   1.00
C922   C     0.83304   0.70897   0.50022   0.00000  Uiso   1.00
C923   C     0.79129   0.81998   0.35277   0.00000  Uiso   1.00
C924   C     0.87517   0.84717   0.64717   0.00000  Uiso   1.00
C925   C     0.79138   0.81982   0.63665   0.00000  Uiso   1.00
C926   C     0.87527   0.84693   0.36333   0.00000  Uiso   1.00
C927   C     0.83334   0.91252   0.49998   0.00000  Uiso   1.00
C928   C     0.73459   0.83333   0.48791   0.00000  Uiso   1.00
C929   C     0.93207   0.83338   0.51209   0.00000  Uiso   1.00
C930   C     0.67929   0.83341   0.48126   0.00000  Uiso   1.00
C931   C     0.98737   0.83345   0.51874   0.00000  Uiso   1.00
C932   C     0.83429   0.68686   0.45776   0.00000  Uiso   1.00
C933   C     0.81841   0.97859   0.53863   0.00000  Uiso   1.00
C934   C     0.84758   0.97911   0.46148   0.00000  Uiso   1.00
Cu935  Cu    0.83333   0.83334   0.54689   0.00000  Uiso   1.00
Cu936  Cu    0.83333   0.83333   0.45311   0.00000  Uiso   1.00
H937   H     0.99262   0.83338   0.44532   0.00000  Uiso   1.00
H938   H     0.90857   0.75090   0.63021   0.00000  Uiso   1.00
H939   H     0.67404   0.83350   0.55468   0.00000  Uiso   1.00
H940   H     0.75738   0.80940   0.36684   0.00000  Uiso   1.00
H941   H     0.90864   0.85861   0.63297   0.00000  Uiso   1.00
H942   H     0.75775   0.80861   0.61407   0.00000  Uiso   1.00
H943   H     0.90887   0.85817   0.38590   0.00000  Uiso   1.00
H944   H     0.73804   0.73523   0.37226   0.00000  Uiso   1.00
H945   H     0.71490   0.91253   0.56911   0.00000  Uiso   1.00
H946   H     0.94947   0.94195   0.47863   0.00000  Uiso   1.00
N947   N     0.83335   0.83334   0.61736   0.00000  Uiso   1.00
N948   N     0.83332   0.83332   0.38264   0.00000  Uiso   1.00
O949   O     0.83333   0.77322   0.53958   0.00000  Uiso   1.00
O950   O     0.79409   0.67139   0.36753   0.00000  Uiso   1.00
O951   O     0.75706   0.73453   0.40470   0.00000  Uiso   1.00
O952   O     0.80700   0.93449   0.61632   0.00000  Uiso   1.00
O953   O     0.74643   0.99069   0.59633   0.00000  Uiso   1.00
O954   O     0.73420   0.92532   0.54543   0.00000  Uiso   1.00
O955   O     0.85734   0.93697   0.38269   0.00000  Uiso   1.00
O956   O     0.91856   0.99278   0.40304   0.00000  Uiso   1.00
O957   O     0.93122   0.92608   0.45192   0.00000  Uiso   1.00
O958   O     0.80929   0.72946   0.61667   0.00000  Uiso   1.00
O959   O     0.86824   0.67174   0.63389   0.00000  Uiso   1.00
O960   O     0.83334   0.89345   0.46042   0.00000  Uiso   1.00
O961   O     0.90419   0.73684   0.59929   0.00000  Uiso   1.00
O962   O     0.83333   0.77321   0.46039   0.00000  Uiso   1.00
O963   O     0.83334   0.89346   0.53961   0.00000  Uiso   1.00
O964   O     0.75828   0.83334   0.53046   0.00000  Uiso   1.00
O965   O     0.90839   0.83333   0.46954   0.00000  Uiso   1.00
O966   O     0.75828   0.83333   0.45127   0.00000  Uiso   1.00
O967   O     0.90839   0.83334   0.54873   0.00000  Uiso   1.00
O968   O     0.85021   0.73147   0.38210   0.00000  Uiso   1.00
S969   S     0.80964   0.70602   0.40086   0.00000  Uiso   1.00
S970   S     0.77629   0.95741   0.57644   0.00000  Uiso   1.00
S971   S     0.88893   0.95895   0.42278   0.00000  Uiso   1.00
S972   S     0.85264   0.70608   0.60012   0.00000  Uiso   1.00
C973   C     0.16654   0.08723   0.83339   0.00000  Uiso   1.00
C974   C     0.16482   0.01987   0.87597   0.00000  Uiso   1.00
C975   C     0.16649   0.29033   0.83334   0.00000  Uiso   1.00
C976   C     0.16637   0.04231   0.83356   0.00000  Uiso   1.00
C977   C     0.12462   0.15332   0.68610   0.00000  Uiso   1.00
C978   C     0.20850   0.18050   0.98050   0.00000  Uiso   1.00
C979   C     0.12471   0.15315   0.96999   0.00000  Uiso   1.00
C980   C     0.20860   0.18026   0.69666   0.00000  Uiso   1.00
C981   C     0.16668   0.24586   0.83332   0.00000  Uiso   1.00
C982   C     0.06793   0.16667   0.82124   0.00000  Uiso   1.00
C983   C     0.26540   0.16671   0.84543   0.00000  Uiso   1.00
C984   C     0.01262   0.16674   0.81459   0.00000  Uiso   1.00
C985   C     0.32071   0.16678   0.85207   0.00000  Uiso   1.00
C986   C     0.16762   0.02020   0.79109   0.00000  Uiso   1.00
C987   C     0.15175   0.31192   0.87196   0.00000  Uiso   1.00
C988   C     0.18091   0.31245   0.79481   0.00000  Uiso   1.00
Cu989  Cu    0.16667   0.16667   0.88022   0.00000  Uiso   1.00
Cu990  Cu    0.16667   0.16666   0.78645   0.00000  Uiso   1.00
H991   H     0.32595   0.16672   0.77865   0.00000  Uiso   1.00
H992   H     0.24190   0.08423   0.96355   0.00000  Uiso   1.00
H993   H     0.00737   0.16683   0.88801   0.00000  Uiso   1.00
H994   H     0.09072   0.14273   0.70017   0.00000  Uiso   1.00
H995   H     0.24198   0.19195   0.96630   0.00000  Uiso   1.00
H996   H     0.09108   0.14194   0.94741   0.00000  Uiso   1.00
H997   H     0.24220   0.19151   0.71923   0.00000  Uiso   1.00
H998   H     0.07138   0.06856   0.70559   0.00000  Uiso   1.00
H999   H     0.04823   0.24586   0.90245   0.00000  Uiso   1.00
H1000  H     0.28281   0.27529   0.81196   0.00000  Uiso   1.00
N1001  N     0.16668   0.16668   0.95069   0.00000  Uiso   1.00
N1002  N     0.16665   0.16666   0.71597   0.00000  Uiso   1.00
O1003  O     0.16666   0.10655   0.87291   0.00000  Uiso   1.00
O1004  O     0.12742   0.00472   0.70087   0.00000  Uiso   1.00
O1005  O     0.09039   0.06786   0.73803   0.00000  Uiso   1.00
O1006  O     0.14033   0.26782   0.94965   0.00000  Uiso   1.00
O1007  O     0.07976   0.32403   0.92966   0.00000  Uiso   1.00
O1008  O     0.06753   0.25865   0.87876   0.00000  Uiso   1.00
O1009  O     0.19067   0.27031   0.71602   0.00000  Uiso   1.00
O1010  O     0.25190   0.32611   0.73638   0.00000  Uiso   1.00
O1011  O     0.26455   0.25942   0.78525   0.00000  Uiso   1.00
O1012  O     0.14263   0.06279   0.95001   0.00000  Uiso   1.00
O1013  O     0.20158   0.00508   0.96722   0.00000  Uiso   1.00
O1014  O     0.16667   0.22678   0.79375   0.00000  Uiso   1.00
O1015  O     0.23752   0.07018   0.93262   0.00000  Uiso   1.00
O1016  O     0.16666   0.10654   0.79372   0.00000  Uiso   1.00
O1017  O     0.16667   0.22679   0.87294   0.00000  Uiso   1.00
O1018  O     0.09161   0.16667   0.86379   0.00000  Uiso   1.00
O1019  O     0.24172   0.16666   0.80288   0.00000  Uiso   1.00
O1020  O     0.09161   0.16666   0.78460   0.00000  Uiso   1.00
O1021  O     0.24172   0.16667   0.88207   0.00000  Uiso   1.00
O1022  O     0.18355   0.06480   0.71543   0.00000  Uiso   1.00
S1023  S     0.14297   0.03936   0.73420   0.00000  Uiso   1.00
S1024  S     0.10963   0.29074   0.90977   0.00000  Uiso   1.00
S1025  S     0.22227   0.29229   0.75611   0.00000  Uiso   1.00
S1026  S     0.18597   0.03941   0.93345   0.00000  Uiso   1.00
C1027  C     0.49987   0.08723   0.83339   0.00000  Uiso   1.00
C1028  C     0.49815   0.01987   0.87597   0.00000  Uiso   1.00
C1029  C     0.49983   0.29033   0.83334   0.00000  Uiso   1.00
C1030  C     0.49970   0.04231   0.83356   0.00000  Uiso   1.00
C1031  C     0.45795   0.15332   0.68610   0.00000  Uiso   1.00
C1032  C     0.54183   0.18050   0.98050   0.00000  Uiso   1.00
C1033  C     0.45804   0.15315   0.96999   0.00000  Uiso   1.00
C1034  C     0.54193   0.18026   0.69666   0.00000  Uiso   1.00
C1035  C     0.50001   0.24586   0.83332   0.00000  Uiso   1.00
C1036  C     0.40126   0.16667   0.82124   0.00000  Uiso   1.00
C1037  C     0.59874   0.16671   0.84543   0.00000  Uiso   1.00
C1038  C     0.34596   0.16674   0.81459   0.00000  Uiso   1.00
C1039  C     0.65404   0.16678   0.85207   0.00000  Uiso   1.00
C1040  C     0.50095   0.02020   0.79109   0.00000  Uiso   1.00
C1041  C     0.48508   0.31192   0.87196   0.00000  Uiso   1.00
C1042  C     0.51425   0.31245   0.79481   0.00000  Uiso   1.00
Cu1043 Cu    0.50000   0.16667   0.88022   0.00000  Uiso   1.00
Cu1044 Cu    0.50000   0.16666   0.78645   0.00000  Uiso   1.00
H1045  H     0.65929   0.16672   0.77865   0.00000  Uiso   1.00
H1046  H     0.57523   0.08423   0.96355   0.00000  Uiso   1.00
H1047  H     0.34071   0.16683   0.88801   0.00000  Uiso   1.00
H1048  H     0.42405   0.14273   0.70017   0.00000  Uiso   1.00
H1049  H     0.57531   0.19195   0.96630   0.00000  Uiso   1.00
H1050  H     0.42441   0.14194   0.94741   0.00000  Uiso   1.00
H1051  H     0.57553   0.19151   0.71923   0.00000  Uiso   1.00
H1052  H     0.40471   0.06856   0.70559   0.00000  Uiso   1.00
H1053  H     0.38157   0.24586   0.90245   0.00000  Uiso   1.00
H1054  H     0.61614   0.27529   0.81196   0.00000  Uiso   1.00
N1055  N     0.50001   0.16668   0.95069   0.00000  Uiso   1.00
N1056  N     0.49999   0.16666   0.71597   0.00000  Uiso   1.00
O1057  O     0.50000   0.10655   0.87291   0.00000  Uiso   1.00
O1058  O     0.46075   0.00472   0.70087   0.00000  Uiso   1.00
O1059  O     0.42373   0.06786   0.73803   0.00000  Uiso   1.00
O1060  O     0.47366   0.26782   0.94965   0.00000  Uiso   1.00
O1061  O     0.41310   0.32403   0.92966   0.00000  Uiso   1.00
O1062  O     0.40086   0.25865   0.87876   0.00000  Uiso   1.00
O1063  O     0.52401   0.27031   0.71602   0.00000  Uiso   1.00
O1064  O     0.58523   0.32611   0.73638   0.00000  Uiso   1.00
O1065  O     0.59789   0.25942   0.78525   0.00000  Uiso   1.00
O1066  O     0.47596   0.06279   0.95001   0.00000  Uiso   1.00
O1067  O     0.53491   0.00508   0.96722   0.00000  Uiso   1.00
O1068  O     0.50000   0.22678   0.79375   0.00000  Uiso   1.00
O1069  O     0.57085   0.07018   0.93262   0.00000  Uiso   1.00
O1070  O     0.50000   0.10654   0.79372   0.00000  Uiso   1.00
O1071  O     0.50000   0.22679   0.87294   0.00000  Uiso   1.00
O1072  O     0.42495   0.16667   0.86379   0.00000  Uiso   1.00
O1073  O     0.57505   0.16666   0.80288   0.00000  Uiso   1.00
O1074  O     0.42494   0.16666   0.78460   0.00000  Uiso   1.00
O1075  O     0.57506   0.16667   0.88207   0.00000  Uiso   1.00
O1076  O     0.51688   0.06480   0.71543   0.00000  Uiso   1.00
S1077  S     0.47630   0.03936   0.73420   0.00000  Uiso   1.00
S1078  S     0.44296   0.29074   0.90977   0.00000  Uiso   1.00
S1079  S     0.55560   0.29229   0.75611   0.00000  Uiso   1.00
S1080  S     0.51930   0.03941   0.93345   0.00000  Uiso   1.00
C1081  C     0.83320   0.08723   0.83339   0.00000  Uiso   1.00
C1082  C     0.83149   0.01987   0.87597   0.00000  Uiso   1.00
C1083  C     0.83316   0.29033   0.83334   0.00000  Uiso   1.00
C1084  C     0.83304   0.04231   0.83356   0.00000  Uiso   1.00
C1085  C     0.79129   0.15332   0.68610   0.00000  Uiso   1.00
C1086  C     0.87517   0.18050   0.98050   0.00000  Uiso   1.00
C1087  C     0.79138   0.15315   0.96999   0.00000  Uiso   1.00
C1088  C     0.87527   0.18026   0.69666   0.00000  Uiso   1.00
C1089  C     0.83334   0.24586   0.83332   0.00000  Uiso   1.00
C1090  C     0.73459   0.16667   0.82124   0.00000  Uiso   1.00
C1091  C     0.93207   0.16671   0.84543   0.00000  Uiso   1.00
C1092  C     0.67929   0.16674   0.81459   0.00000  Uiso   1.00
C1093  C     0.98737   0.16678   0.85207   0.00000  Uiso   1.00
C1094  C     0.83429   0.02020   0.79109   0.00000  Uiso   1.00
C1095  C     0.81841   0.31192   0.87196   0.00000  Uiso   1.00
C1096  C     0.84758   0.31245   0.79481   0.00000  Uiso   1.00
Cu1097 Cu    0.83333   0.16667   0.88022   0.00000  Uiso   1.00
Cu1098 Cu    0.83333   0.16666   0.78645   0.00000  Uiso   1.00
H1099  H     0.99262   0.16672   0.77865   0.00000  Uiso   1.00
H1100  H     0.90857   0.08423   0.96355   0.00000  Uiso   1.00
H1101  H     0.67404   0.16683   0.88801   0.00000  Uiso   1.00
H1102  H     0.75738   0.14273   0.70017   0.00000  Uiso   1.00
H1103  H     0.90864   0.19195   0.96630   0.00000  Uiso   1.00
H1104  H     0.75775   0.14194   0.94741   0.00000  Uiso   1.00
H1105  H     0.90887   0.19151   0.71923   0.00000  Uiso   1.00
H1106  H     0.73804   0.06856   0.70559   0.00000  Uiso   1.00
H1107  H     0.71490   0.24586   0.90245   0.00000  Uiso   1.00
H1108  H     0.94947   0.27529   0.81196   0.00000  Uiso   1.00
N1109  N     0.83335   0.16668   0.95069   0.00000  Uiso   1.00
N1110  N     0.83332   0.16666   0.71597   0.00000  Uiso   1.00
O1111  O     0.83333   0.10655   0.87291   0.00000  Uiso   1.00
O1112  O     0.79409   0.00472   0.70087   0.00000  Uiso   1.00
O1113  O     0.75706   0.06786   0.73803   0.00000  Uiso   1.00
O1114  O     0.80700   0.26782   0.94965   0.00000  Uiso   1.00
O1115  O     0.74643   0.32403   0.92966   0.00000  Uiso   1.00
O1116  O     0.73420   0.25865   0.87876   0.00000  Uiso   1.00
O1117  O     0.85734   0.27031   0.71602   0.00000  Uiso   1.00
O1118  O     0.91856   0.32611   0.73638   0.00000  Uiso   1.00
O1119  O     0.93122   0.25942   0.78525   0.00000  Uiso   1.00
O1120  O     0.80929   0.06279   0.95001   0.00000  Uiso   1.00
O1121  O     0.86824   0.00508   0.96722   0.00000  Uiso   1.00
O1122  O     0.83334   0.22678   0.79375   0.00000  Uiso   1.00
O1123  O     0.90419   0.07018   0.93262   0.00000  Uiso   1.00
O1124  O     0.83333   0.10654   0.79372   0.00000  Uiso   1.00
O1125  O     0.83334   0.22679   0.87294   0.00000  Uiso   1.00
O1126  O     0.75828   0.16667   0.86379   0.00000  Uiso   1.00
O1127  O     0.90839   0.16666   0.80288   0.00000  Uiso   1.00
O1128  O     0.75828   0.16666   0.78460   0.00000  Uiso   1.00
O1129  O     0.90839   0.16667   0.88207   0.00000  Uiso   1.00
O1130  O     0.85021   0.06480   0.71543   0.00000  Uiso   1.00
S1131  S     0.80964   0.03936   0.73420   0.00000  Uiso   1.00
S1132  S     0.77629   0.29074   0.90977   0.00000  Uiso   1.00
S1133  S     0.88893   0.29229   0.75611   0.00000  Uiso   1.00
S1134  S     0.85264   0.03941   0.93345   0.00000  Uiso   1.00
C1135  C     0.16654   0.42056   0.83339   0.00000  Uiso   1.00
C1136  C     0.16482   0.35320   0.87597   0.00000  Uiso   1.00
C1137  C     0.16649   0.62366   0.83334   0.00000  Uiso   1.00
C1138  C     0.16637   0.37564   0.83356   0.00000  Uiso   1.00
C1139  C     0.12462   0.48665   0.68610   0.00000  Uiso   1.00
C1140  C     0.20850   0.51383   0.98050   0.00000  Uiso   1.00
C1141  C     0.12471   0.48649   0.96999   0.00000  Uiso   1.00
C1142  C     0.20860   0.51359   0.69666   0.00000  Uiso   1.00
C1143  C     0.16668   0.57919   0.83332   0.00000  Uiso   1.00
C1144  C     0.06793   0.50000   0.82124   0.00000  Uiso   1.00
C1145  C     0.26540   0.50005   0.84543   0.00000  Uiso   1.00
C1146  C     0.01262   0.50007   0.81459   0.00000  Uiso   1.00
C1147  C     0.32071   0.50011   0.85207   0.00000  Uiso   1.00
C1148  C     0.16762   0.35353   0.79109   0.00000  Uiso   1.00
C1149  C     0.15175   0.64525   0.87196   0.00000  Uiso   1.00
C1150  C     0.18091   0.64578   0.79481   0.00000  Uiso   1.00
Cu1151 Cu    0.16667   0.50001   0.88022   0.00000  Uiso   1.00
Cu1152 Cu    0.16667   0.49999   0.78645   0.00000  Uiso   1.00
H1153  H     0.32595   0.50005   0.77865   0.00000  Uiso   1.00
H1154  H     0.24190   0.41756   0.96355   0.00000  Uiso   1.00
H1155  H     0.00737   0.50017   0.88801   0.00000  Uiso   1.00
H1156  H     0.09072   0.47607   0.70017   0.00000  Uiso   1.00
H1157  H     0.24198   0.52528   0.96630   0.00000  Uiso   1.00
H1158  H     0.09108   0.47528   0.94741   0.00000  Uiso   1.00
H1159  H     0.24220   0.52484   0.71923   0.00000  Uiso   1.00
H1160  H     0.07138   0.40190   0.70559   0.00000  Uiso   1.00
H1161  H     0.04823   0.57919   0.90245   0.00000  Uiso   1.00
H1162  H     0.28281   0.60862   0.81196   0.00000  Uiso   1.00
N1163  N     0.16668   0.50001   0.95069   0.00000  Uiso   1.00
N1164  N     0.16665   0.49999   0.71597   0.00000  Uiso   1.00
O1165  O     0.16666   0.43989   0.87291   0.00000  Uiso   1.00
O1166  O     0.12742   0.33805   0.70087   0.00000  Uiso   1.00
O1167  O     0.09039   0.40120   0.73803   0.00000  Uiso   1.00
O1168  O     0.14033   0.60115   0.94965   0.00000  Uiso   1.00
O1169  O     0.07976   0.65736   0.92966   0.00000  Uiso   1.00
O1170  O     0.06753   0.59199   0.87876   0.00000  Uiso   1.00
O1171  O     0.19067   0.60364   0.71602   0.00000  Uiso   1.00
O1172  O     0.25190   0.65944   0.73638   0.00000  Uiso   1.00
O1173  O     0.26455   0.59275   0.78525   0.00000  Uiso   1.00
O1174  O     0.14263   0.39612   0.95001   0.00000  Uiso   1.00
O1175  O     0.20158   0.33841   0.96722   0.00000  Uiso   1.00
O1176  O     0.16667   0.56011   0.79375   0.00000  Uiso   1.00
O1177  O     0.23752   0.40351   0.93262   0.00000  Uiso   1.00
O1178  O     0.16666   0.43988   0.79372   0.00000  Uiso   1.00
O1179  O     0.16667   0.56012   0.87294   0.00000  Uiso   1.00
O1180  O     0.09161   0.50000   0.86379   0.00000  Uiso   1.00
O1181  O     0.24172   0.50000   0.80288   0.00000  Uiso   1.00
O1182  O     0.09161   0.49999   0.78460   0.00000  Uiso   1.00
O1183  O     0.24172   0.50001   0.88207   0.00000  Uiso   1.00
O1184  O     0.18355   0.39813   0.71543   0.00000  Uiso   1.00
S1185  S     0.14297   0.37269   0.73420   0.00000  Uiso   1.00
S1186  S     0.10963   0.62408   0.90977   0.00000  Uiso   1.00
S1187  S     0.22227   0.62562   0.75611   0.00000  Uiso   1.00
S1188  S     0.18597   0.37274   0.93345   0.00000  Uiso   1.00
C1189  C     0.49987   0.42056   0.83339   0.00000  Uiso   1.00
C1190  C     0.49815   0.35320   0.87597   0.00000  Uiso   1.00
C1191  C     0.49983   0.62366   0.83334   0.00000  Uiso   1.00
C1192  C     0.49970   0.37564   0.83356   0.00000  Uiso   1.00
C1193  C     0.45795   0.48665   0.68610   0.00000  Uiso   1.00
C1194  C     0.54183   0.51383   0.98050   0.00000  Uiso   1.00
C1195  C     0.45804   0.48649   0.96999   0.00000  Uiso   1.00
C1196  C     0.54193   0.51359   0.69666   0.00000  Uiso   1.00
C1197  C     0.50001   0.57919   0.83332   0.00000  Uiso   1.00
C1198  C     0.40126   0.50000   0.82124   0.00000  Uiso   1.00
C1199  C     0.59874   0.50005   0.84543   0.00000  Uiso   1.00
C1200  C     0.34596   0.50007   0.81459   0.00000  Uiso   1.00
C1201  C     0.65404   0.50011   0.85207   0.00000  Uiso   1.00
C1202  C     0.50095   0.35353   0.79109   0.00000  Uiso   1.00
C1203  C     0.48508   0.64525   0.87196   0.00000  Uiso   1.00
C1204  C     0.51425   0.64578   0.79481   0.00000  Uiso   1.00
Cu1205 Cu    0.50000   0.50001   0.88022   0.00000  Uiso   1.00
Cu1206 Cu    0.50000   0.49999   0.78645   0.00000  Uiso   1.00
H1207  H     0.65929   0.50005   0.77865   0.00000  Uiso   1.00
H1208  H     0.57523   0.41756   0.96355   0.00000  Uiso   1.00
H1209  H     0.34071   0.50017   0.88801   0.00000  Uiso   1.00
H1210  H     0.42405   0.47607   0.70017   0.00000  Uiso   1.00
H1211  H     0.57531   0.52528   0.96630   0.00000  Uiso   1.00
H1212  H     0.42441   0.47528   0.94741   0.00000  Uiso   1.00
H1213  H     0.57553   0.52484   0.71923   0.00000  Uiso   1.00
H1214  H     0.40471   0.40190   0.70559   0.00000  Uiso   1.00
H1215  H     0.38157   0.57919   0.90245   0.00000  Uiso   1.00
H1216  H     0.61614   0.60862   0.81196   0.00000  Uiso   1.00
N1217  N     0.50001   0.50001   0.95069   0.00000  Uiso   1.00
N1218  N     0.49999   0.49999   0.71597   0.00000  Uiso   1.00
O1219  O     0.50000   0.43989   0.87291   0.00000  Uiso   1.00
O1220  O     0.46075   0.33805   0.70087   0.00000  Uiso   1.00
O1221  O     0.42373   0.40120   0.73803   0.00000  Uiso   1.00
O1222  O     0.47366   0.60115   0.94965   0.00000  Uiso   1.00
O1223  O     0.41310   0.65736   0.92966   0.00000  Uiso   1.00
O1224  O     0.40086   0.59199   0.87876   0.00000  Uiso   1.00
O1225  O     0.52401   0.60364   0.71602   0.00000  Uiso   1.00
O1226  O     0.58523   0.65944   0.73638   0.00000  Uiso   1.00
O1227  O     0.59789   0.59275   0.78525   0.00000  Uiso   1.00
O1228  O     0.47596   0.39612   0.95001   0.00000  Uiso   1.00
O1229  O     0.53491   0.33841   0.96722   0.00000  Uiso   1.00
O1230  O     0.50000   0.56011   0.79375   0.00000  Uiso   1.00
O1231  O     0.57085   0.40351   0.93262   0.00000  Uiso   1.00
O1232  O     0.50000   0.43988   0.79372   0.00000  Uiso   1.00
O1233  O     0.50000   0.56012   0.87294   0.00000  Uiso   1.00
O1234  O     0.42495   0.50000   0.86379   0.00000  Uiso   1.00
O1235  O     0.57505   0.50000   0.80288   0.00000  Uiso   1.00
O1236  O     0.42494   0.49999   0.78460   0.00000  Uiso   1.00
O1237  O     0.57506   0.50001   0.88207   0.00000  Uiso   1.00
O1238  O     0.51688   0.39813   0.71543   0.00000  Uiso   1.00
S1239  S     0.47630   0.37269   0.73420   0.00000  Uiso   1.00
S1240  S     0.44296   0.62408   0.90977   0.00000  Uiso   1.00
S1241  S     0.55560   0.62562   0.75611   0.00000  Uiso   1.00
S1242  S     0.51930   0.37274   0.93345   0.00000  Uiso   1.00
C1243  C     0.83320   0.42056   0.83339   0.00000  Uiso   1.00
C1244  C     0.83149   0.35320   0.87597   0.00000  Uiso   1.00
C1245  C     0.83316   0.62366   0.83334   0.00000  Uiso   1.00
C1246  C     0.83304   0.37564   0.83356   0.00000  Uiso   1.00
C1247  C     0.79129   0.48665   0.68610   0.00000  Uiso   1.00
C1248  C     0.87517   0.51383   0.98050   0.00000  Uiso   1.00
C1249  C     0.79138   0.48649   0.96999   0.00000  Uiso   1.00
C1250  C     0.87527   0.51359   0.69666   0.00000  Uiso   1.00
C1251  C     0.83334   0.57919   0.83332   0.00000  Uiso   1.00
C1252  C     0.73459   0.50000   0.82124   0.00000  Uiso   1.00
C1253  C     0.93207   0.50005   0.84543   0.00000  Uiso   1.00
C1254  C     0.67929   0.50007   0.81459   0.00000  Uiso   1.00
C1255  C     0.98737   0.50011   0.85207   0.00000  Uiso   1.00
C1256  C     0.83429   0.35353   0.79109   0.00000  Uiso   1.00
C1257  C     0.81841   0.64525   0.87196   0.00000  Uiso   1.00
C1258  C     0.84758   0.64578   0.79481   0.00000  Uiso   1.00
Cu1259 Cu    0.83333   0.50001   0.88022   0.00000  Uiso   1.00
Cu1260 Cu    0.83333   0.49999   0.78645   0.00000  Uiso   1.00
H1261  H     0.99262   0.50005   0.77865   0.00000  Uiso   1.00
H1262  H     0.90857   0.41756   0.96355   0.00000  Uiso   1.00
H1263  H     0.67404   0.50017   0.88801   0.00000  Uiso   1.00
H1264  H     0.75738   0.47607   0.70017   0.00000  Uiso   1.00
H1265  H     0.90864   0.52528   0.96630   0.00000  Uiso   1.00
H1266  H     0.75775   0.47528   0.94741   0.00000  Uiso   1.00
H1267  H     0.90887   0.52484   0.71923   0.00000  Uiso   1.00
H1268  H     0.73804   0.40190   0.70559   0.00000  Uiso   1.00
H1269  H     0.71490   0.57919   0.90245   0.00000  Uiso   1.00
H1270  H     0.94947   0.60862   0.81196   0.00000  Uiso   1.00
N1271  N     0.83335   0.50001   0.95069   0.00000  Uiso   1.00
N1272  N     0.83332   0.49999   0.71597   0.00000  Uiso   1.00
O1273  O     0.83333   0.43989   0.87291   0.00000  Uiso   1.00
O1274  O     0.79409   0.33805   0.70087   0.00000  Uiso   1.00
O1275  O     0.75706   0.40120   0.73803   0.00000  Uiso   1.00
O1276  O     0.80700   0.60115   0.94965   0.00000  Uiso   1.00
O1277  O     0.74643   0.65736   0.92966   0.00000  Uiso   1.00
O1278  O     0.73420   0.59199   0.87876   0.00000  Uiso   1.00
O1279  O     0.85734   0.60364   0.71602   0.00000  Uiso   1.00
O1280  O     0.91856   0.65944   0.73638   0.00000  Uiso   1.00
O1281  O     0.93122   0.59275   0.78525   0.00000  Uiso   1.00
O1282  O     0.80929   0.39612   0.95001   0.00000  Uiso   1.00
O1283  O     0.86824   0.33841   0.96722   0.00000  Uiso   1.00
O1284  O     0.83334   0.56011   0.79375   0.00000  Uiso   1.00
O1285  O     0.90419   0.40351   0.93262   0.00000  Uiso   1.00
O1286  O     0.83333   0.43988   0.79372   0.00000  Uiso   1.00
O1287  O     0.83334   0.56012   0.87294   0.00000  Uiso   1.00
O1288  O     0.75828   0.50000   0.86379   0.00000  Uiso   1.00
O1289  O     0.90839   0.50000   0.80288   0.00000  Uiso   1.00
O1290  O     0.75828   0.49999   0.78460   0.00000  Uiso   1.00
O1291  O     0.90839   0.50001   0.88207   0.00000  Uiso   1.00
O1292  O     0.85021   0.39813   0.71543   0.00000  Uiso   1.00
S1293  S     0.80964   0.37269   0.73420   0.00000  Uiso   1.00
S1294  S     0.77629   0.62408   0.90977   0.00000  Uiso   1.00
S1295  S     0.88893   0.62562   0.75611   0.00000  Uiso   1.00
S1296  S     0.85264   0.37274   0.93345   0.00000  Uiso   1.00
C1297  C     0.16654   0.75390   0.83339   0.00000  Uiso   1.00
C1298  C     0.16482   0.68653   0.87597   0.00000  Uiso   1.00
C1299  C     0.16649   0.95699   0.83334   0.00000  Uiso   1.00
C1300  C     0.16637   0.70897   0.83356   0.00000  Uiso   1.00
C1301  C     0.12462   0.81998   0.68610   0.00000  Uiso   1.00
C1302  C     0.20850   0.84717   0.98050   0.00000  Uiso   1.00
C1303  C     0.12471   0.81982   0.96999   0.00000  Uiso   1.00
C1304  C     0.20860   0.84693   0.69666   0.00000  Uiso   1.00
C1305  C     0.16668   0.91252   0.83332   0.00000  Uiso   1.00
C1306  C     0.06793   0.83333   0.82124   0.00000  Uiso   1.00
C1307  C     0.26540   0.83338   0.84543   0.00000  Uiso   1.00
C1308  C     0.01262   0.83341   0.81459   0.00000  Uiso   1.00
C1309  C     0.32071   0.83345   0.85207   0.00000  Uiso   1.00
C1310  C     0.16762   0.68686   0.79109   0.00000  Uiso   1.00
C1311  C     0.15175   0.97859   0.87196   0.00000  Uiso   1.00
C1312  C     0.18091   0.97911   0.79481   0.00000  Uiso   1.00
Cu1313 Cu    0.16667   0.83334   0.88022   0.00000  Uiso   1.00
Cu1314 Cu    0.16667   0.83333   0.78645   0.00000  Uiso   1.00
H1315  H     0.32595   0.83338   0.77865   0.00000  Uiso   1.00
H1316  H     0.24190   0.75090   0.96355   0.00000  Uiso   1.00
H1317  H     0.00737   0.83350   0.88801   0.00000  Uiso   1.00
H1318  H     0.09072   0.80940   0.70017   0.00000  Uiso   1.00
H1319  H     0.24198   0.85861   0.96630   0.00000  Uiso   1.00
H1320  H     0.09108   0.80861   0.94741   0.00000  Uiso   1.00
H1321  H     0.24220   0.85817   0.71923   0.00000  Uiso   1.00
H1322  H     0.07138   0.73523   0.70559   0.00000  Uiso   1.00
H1323  H     0.04823   0.91253   0.90245   0.00000  Uiso   1.00
H1324  H     0.28281   0.94195   0.81196   0.00000  Uiso   1.00
N1325  N     0.16668   0.83334   0.95069   0.00000  Uiso   1.00
N1326  N     0.16665   0.83332   0.71597   0.00000  Uiso   1.00
O1327  O     0.16666   0.77322   0.87291   0.00000  Uiso   1.00
O1328  O     0.12742   0.67139   0.70087   0.00000  Uiso   1.00
O1329  O     0.09039   0.73453   0.73803   0.00000  Uiso   1.00
O1330  O     0.14033   0.93449   0.94965   0.00000  Uiso   1.00
O1331  O     0.07976   0.99069   0.92966   0.00000  Uiso   1.00
O1332  O     0.06753   0.92532   0.87876   0.00000  Uiso   1.00
O1333  O     0.19067   0.93697   0.71602   0.00000  Uiso   1.00
O1334  O     0.25190   0.99278   0.73638   0.00000  Uiso   1.00
O1335  O     0.26455   0.92608   0.78525   0.00000  Uiso   1.00
O1336  O     0.14263   0.72946   0.95001   0.00000  Uiso   1.00
O1337  O     0.20158   0.67174   0.96722   0.00000  Uiso   1.00
O1338  O     0.16667   0.89345   0.79375   0.00000  Uiso   1.00
O1339  O     0.23752   0.73684   0.93262   0.00000  Uiso   1.00
O1340  O     0.16666   0.77321   0.79372   0.00000  Uiso   1.00
O1341  O     0.16667   0.89346   0.87294   0.00000  Uiso   1.00
O1342  O     0.09161   0.83334   0.86379   0.00000  Uiso   1.00
O1343  O     0.24172   0.83333   0.80288   0.00000  Uiso   1.00
O1344  O     0.09161   0.83333   0.78460   0.00000  Uiso   1.00
O1345  O     0.24172   0.83334   0.88207   0.00000  Uiso   1.00
O1346  O     0.18355   0.73147   0.71543   0.00000  Uiso   1.00
S1347  S     0.14297   0.70602   0.73420   0.00000  Uiso   1.00
S1348  S     0.10963   0.95741   0.90977   0.00000  Uiso   1.00
S1349  S     0.22227   0.95895   0.75611   0.00000  Uiso   1.00
S1350  S     0.18597   0.70608   0.93345   0.00000  Uiso   1.00
C1351  C     0.49987   0.75390   0.83339   0.00000  Uiso   1.00
C1352  C     0.49815   0.68653   0.87597   0.00000  Uiso   1.00
C1353  C     0.49983   0.95699   0.83334   0.00000  Uiso   1.00
C1354  C     0.49970   0.70897   0.83356   0.00000  Uiso   1.00
C1355  C     0.45795   0.81998   0.68610   0.00000  Uiso   1.00
C1356  C     0.54183   0.84717   0.98050   0.00000  Uiso   1.00
C1357  C     0.45804   0.81982   0.96999   0.00000  Uiso   1.00
C1358  C     0.54193   0.84693   0.69666   0.00000  Uiso   1.00
C1359  C     0.50001   0.91252   0.83332   0.00000  Uiso   1.00
C1360  C     0.40126   0.83333   0.82124   0.00000  Uiso   1.00
C1361  C     0.59874   0.83338   0.84543   0.00000  Uiso   1.00
C1362  C     0.34596   0.83341   0.81459   0.00000  Uiso   1.00
C1363  C     0.65404   0.83345   0.85207   0.00000  Uiso   1.00
C1364  C     0.50095   0.68686   0.79109   0.00000  Uiso   1.00
C1365  C     0.48508   0.97859   0.87196   0.00000  Uiso   1.00
C1366  C     0.51425   0.97911   0.79481   0.00000  Uiso   1.00
Cu1367 Cu    0.50000   0.83334   0.88022   0.00000  Uiso   1.00
Cu1368 Cu    0.50000   0.83333   0.78645   0.00000  Uiso   1.00
H1369  H     0.65929   0.83338   0.77865   0.00000  Uiso   1.00
H1370  H     0.57523   0.75090   0.96355   0.00000  Uiso   1.00
H1371  H     0.34071   0.83350   0.88801   0.00000  Uiso   1.00
H1372  H     0.42405   0.80940   0.70017   0.00000  Uiso   1.00
H1373  H     0.57531   0.85861   0.96630   0.00000  Uiso   1.00
H1374  H     0.42441   0.80861   0.94741   0.00000  Uiso   1.00
H1375  H     0.57553   0.85817   0.71923   0.00000  Uiso   1.00
H1376  H     0.40471   0.73523   0.70559   0.00000  Uiso   1.00
H1377  H     0.38157   0.91253   0.90245   0.00000  Uiso   1.00
H1378  H     0.61614   0.94195   0.81196   0.00000  Uiso   1.00
N1379  N     0.50001   0.83334   0.95069   0.00000  Uiso   1.00
N1380  N     0.49999   0.83332   0.71597   0.00000  Uiso   1.00
O1381  O     0.50000   0.77322   0.87291   0.00000  Uiso   1.00
O1382  O     0.46075   0.67139   0.70087   0.00000  Uiso   1.00
O1383  O     0.42373   0.73453   0.73803   0.00000  Uiso   1.00
O1384  O     0.47366   0.93449   0.94965   0.00000  Uiso   1.00
O1385  O     0.41310   0.99069   0.92966   0.00000  Uiso   1.00
O1386  O     0.40086   0.92532   0.87876   0.00000  Uiso   1.00
O1387  O     0.52401   0.93697   0.71602   0.00000  Uiso   1.00
O1388  O     0.58523   0.99278   0.73638   0.00000  Uiso   1.00
O1389  O     0.59789   0.92608   0.78525   0.00000  Uiso   1.00
O1390  O     0.47596   0.72946   0.95001   0.00000  Uiso   1.00
O1391  O     0.53491   0.67174   0.96722   0.00000  Uiso   1.00
O1392  O     0.50000   0.89345   0.79375   0.00000  Uiso   1.00
O1393  O     0.57085   0.73684   0.93262   0.00000  Uiso   1.00
O1394  O     0.50000   0.77321   0.79372   0.00000  Uiso   1.00
O1395  O     0.50000   0.89346   0.87294   0.00000  Uiso   1.00
O1396  O     0.42495   0.83334   0.86379   0.00000  Uiso   1.00
O1397  O     0.57505   0.83333   0.80288   0.00000  Uiso   1.00
O1398  O     0.42494   0.83333   0.78460   0.00000  Uiso   1.00
O1399  O     0.57506   0.83334   0.88207   0.00000  Uiso   1.00
O1400  O     0.51688   0.73147   0.71543   0.00000  Uiso   1.00
S1401  S     0.47630   0.70602   0.73420   0.00000  Uiso   1.00
S1402  S     0.44296   0.95741   0.90977   0.00000  Uiso   1.00
S1403  S     0.55560   0.95895   0.75611   0.00000  Uiso   1.00
S1404  S     0.51930   0.70608   0.93345   0.00000  Uiso   1.00
C1405  C     0.83320   0.75390   0.83339   0.00000  Uiso   1.00
C1406  C     0.83149   0.68653   0.87597   0.00000  Uiso   1.00
C1407  C     0.83316   0.95699   0.83334   0.00000  Uiso   1.00
C1408  C     0.83304   0.70897   0.83356   0.00000  Uiso   1.00
C1409  C     0.79129   0.81998   0.68610   0.00000  Uiso   1.00
C1410  C     0.87517   0.84717   0.98050   0.00000  Uiso   1.00
C1411  C     0.79138   0.81982   0.96999   0.00000  Uiso   1.00
C1412  C     0.87527   0.84693   0.69666   0.00000  Uiso   1.00
C1413  C     0.83334   0.91252   0.83332   0.00000  Uiso   1.00
C1414  C     0.73459   0.83333   0.82124   0.00000  Uiso   1.00
C1415  C     0.93207   0.83338   0.84543   0.00000  Uiso   1.00
C1416  C     0.67929   0.83341   0.81459   0.00000  Uiso   1.00
C1417  C     0.98737   0.83345   0.85207   0.00000  Uiso   1.00
C1418  C     0.83429   0.68686   0.79109   0.00000  Uiso   1.00
C1419  C     0.81841   0.97859   0.87196   0.00000  Uiso   1.00
C1420  C     0.84758   0.97911   0.79481   0.00000  Uiso   1.00
Cu1421 Cu    0.83333   0.83334   0.88022   0.00000  Uiso   1.00
Cu1422 Cu    0.83333   0.83333   0.78645   0.00000  Uiso   1.00
H1423  H     0.99262   0.83338   0.77865   0.00000  Uiso   1.00
H1424  H     0.90857   0.75090   0.96355   0.00000  Uiso   1.00
H1425  H     0.67404   0.83350   0.88801   0.00000  Uiso   1.00
H1426  H     0.75738   0.80940   0.70017   0.00000  Uiso   1.00
H1427  H     0.90864   0.85861   0.96630   0.00000  Uiso   1.00
H1428  H     0.75775   0.80861   0.94741   0.00000  Uiso   1.00
H1429  H     0.90887   0.85817   0.71923   0.00000  Uiso   1.00
H1430  H     0.73804   0.73523   0.70559   0.00000  Uiso   1.00
H1431  H     0.71490   0.91253   0.90245   0.00000  Uiso   1.00
H1432  H     0.94947   0.94195   0.81196   0.00000  Uiso   1.00
N1433  N     0.83335   0.83334   0.95069   0.00000  Uiso   1.00
N1434  N     0.83332   0.83332   0.71597   0.00000  Uiso   1.00
O1435  O     0.83333   0.77322   0.87291   0.00000  Uiso   1.00
O1436  O     0.79409   0.67139   0.70087   0.00000  Uiso   1.00
O1437  O     0.75706   0.73453   0.73803   0.00000  Uiso   1.00
O1438  O     0.80700   0.93449   0.94965   0.00000  Uiso   1.00
O1439  O     0.74643   0.99069   0.92966   0.00000  Uiso   1.00
O1440  O     0.73420   0.92532   0.87876   0.00000  Uiso   1.00
O1441  O     0.85734   0.93697   0.71602   0.00000  Uiso   1.00
O1442  O     0.91856   0.99278   0.73638   0.00000  Uiso   1.00
O1443  O     0.93122   0.92608   0.78525   0.00000  Uiso   1.00
O1444  O     0.80929   0.72946   0.95001   0.00000  Uiso   1.00
O1445  O     0.86824   0.67174   0.96722   0.00000  Uiso   1.00
O1446  O     0.83334   0.89345   0.79375   0.00000  Uiso   1.00
O1447  O     0.90419   0.73684   0.93262   0.00000  Uiso   1.00
O1448  O     0.83333   0.77321   0.79372   0.00000  Uiso   1.00
O1449  O     0.83334   0.89346   0.87294   0.00000  Uiso   1.00
O1450  O     0.75828   0.83334   0.86379   0.00000  Uiso   1.00
O1451  O     0.90839   0.83333   0.80288   0.00000  Uiso   1.00
O1452  O     0.75828   0.83333   0.78460   0.00000  Uiso   1.00
O1453  O     0.90839   0.83334   0.88207   0.00000  Uiso   1.00
O1454  O     0.85021   0.73147   0.71543   0.00000  Uiso   1.00
S1455  S     0.80964   0.70602   0.73420   0.00000  Uiso   1.00
S1456  S     0.77629   0.95741   0.90977   0.00000  Uiso   1.00
S1457  S     0.88893   0.95895   0.75611   0.00000  Uiso   1.00
S1458  S     0.85264   0.70608   0.93345   0.00000  Uiso   1.00
loop_
_geom_bond_atom_site_label_1
_geom_bond_atom_site_label_2
_geom_bond_distance
_geom_bond_site_symmetry_2
_ccdc_geom_bond_type
C1     C4      1.472   .     S
C1     O31     1.297   .     A
C1     O44     1.298   .     A
C2     C4      1.422   .     A
C2     S54     1.781   .     S
C2     C339    1.395   1_545 S
C3     C9      1.458   .     S
C3     C16     1.411   .     A
C3     C15     1.412   .     A
C4     C14     1.420   .     A
C5     N30     1.367   .     A
C5     H22     1.079   .     S
C5     C979    1.415   1_554 S
C6     H23     1.081   .     S
C6     N29     1.367   .     A
C6     C494    1.415   .     S
C7     N29     1.367   .     A
C7     H24     1.080   .     S
C7     C491    1.415   .     S
C8     H25     1.080   .     S
C8     N30     1.368   .     A
C8     C978    1.415   1_554 S
C9     O45     1.293   .     A
C9     O42     1.294   .     A
C10    O46     1.287   .     A
C10    O48     1.289   .     A
C10    C12     1.433   .     S
C11    O47     1.287   .     A
C11    C13     1.433   .     S
C11    O49     1.289   .     A
C12    C121    1.335   1_455 S
C12    H127    1.087   1_455 S
C13    C66     1.335   .     S
C13    H75     1.087   .     S
C14    S51     1.780   .     S
C14    C340    1.392   1_545 S
C15    S52     1.785   .     S
C15    C164    1.395   .     S
C16    S53     1.782   .     S
C16    C176    1.392   .     S
Cu17   N29     2.016   .     S
Cu17   Cu18    2.682   .     S
Cu17   O46     1.955   .     S
Cu17   O45     1.981   .     S
Cu17   O31     1.982   .     S
Cu17   O49     1.957   .     S
Cu18   O44     1.981   .     S
Cu18   O47     1.955   .     S
Cu18   O42     1.982   .     S
Cu18   N30     2.016   .     S
Cu18   O48     1.957   .     S
H19    C66     1.087   .     S
H20    O43     0.991   .     S
H21    C121    1.087   1_455 S
H26    O33     0.991   .     S
H27    O36     0.991   .     S
H28    O39     0.991   .     S
O32    S51     1.503   .     D
O33    S51     1.683   .     S
O34    S52     1.503   .     D
O35    S52     1.503   .     D
O36    S52     1.682   .     S
O37    S53     1.501   .     D
O38    S53     1.503   .     D
O39    S53     1.682   .     S
O40    S54     1.502   .     D
O41    S54     1.502   .     D
O43    S54     1.683   .     S
O50    S51     1.503   .     D
C55    C58     1.472   .     S
C55    O85     1.297   .     A
C55    O98     1.298   .     A
C56    C58     1.422   .     A
C56    S108    1.781   .     S
C56    C393    1.395   1_545 S
C57    C63     1.458   .     S
C57    C70     1.411   .     A
C57    C69     1.412   .     A
C58    C68     1.420   .     A
C59    N84     1.367   .     A
C59    H76     1.079   .     S
C59    C1033   1.415   1_554 S
C60    H77     1.081   .     S
C60    N83     1.367   .     A
C60    C548    1.415   .     S
C61    N83     1.367   .     A
C61    H78     1.080   .     S
C61    C545    1.415   .     S
C62    H79     1.080   .     S
C62    N84     1.368   .     A
C62    C1032   1.415   1_554 S
C63    O99     1.293   .     A
C63    O96     1.294   .     A
C64    O100    1.287   .     A
C64    O102    1.289   .     A
C64    C66     1.433   .     S
C65    O101    1.287   .     A
C65    C67     1.433   .     S
C65    O103    1.289   .     A
C67    C120    1.335   .     S
C67    H129    1.087   .     S
C68    S105    1.780   .     S
C68    C394    1.392   1_545 S
C69    S106    1.785   .     S
C69    C218    1.395   .     S
C70    S107    1.782   .     S
C70    C230    1.392   .     S
Cu71   N83     2.016   .     S
Cu71   Cu72    2.682   .     S
Cu71   O100    1.955   .     S
Cu71   O99     1.981   .     S
Cu71   O85     1.982   .     S
Cu71   O103    1.957   .     S
Cu72   O98     1.981   .     S
Cu72   O101    1.955   .     S
Cu72   O96     1.982   .     S
Cu72   N84     2.016   .     S
Cu72   O102    1.957   .     S
H73    C120    1.087   .     S
H74    O97     0.991   .     S
H80    O87     0.991   .     S
H81    O90     0.991   .     S
H82    O93     0.991   .     S
O86    S105    1.503   .     D
O87    S105    1.683   .     S
O88    S106    1.503   .     D
O89    S106    1.503   .     D
O90    S106    1.682   .     S
O91    S107    1.501   .     D
O92    S107    1.503   .     D
O93    S107    1.682   .     S
O94    S108    1.502   .     D
O95    S108    1.502   .     D
O97    S108    1.683   .     S
O104   S105    1.503   .     D
C109   C112    1.472   .     S
C109   O139    1.297   .     A
C109   O152    1.298   .     A
C110   C112    1.422   .     A
C110   S162    1.781   .     S
C110   C447    1.395   1_545 S
C111   C117    1.458   .     S
C111   C124    1.411   .     A
C111   C123    1.412   .     A
C112   C122    1.420   .     A
C113   N138    1.367   .     A
C113   H130    1.079   .     S
C113   C1087   1.415   1_554 S
C114   H131    1.081   .     S
C114   N137    1.367   .     A
C114   C602    1.415   .     S
C115   N137    1.367   .     A
C115   H132    1.080   .     S
C115   C599    1.415   .     S
C116   H133    1.080   .     S
C116   N138    1.368   .     A
C116   C1086   1.415   1_554 S
C117   O153    1.293   .     A
C117   O150    1.294   .     A
C118   O154    1.287   .     A
C118   O156    1.289   .     A
C118   C120    1.433   .     S
C119   O155    1.287   .     A
C119   C121    1.433   .     S
C119   O157    1.289   .     A
C121   C12     1.335   1_655 S
C121   H21     1.087   1_655 S
C122   S159    1.780   .     S
C122   C448    1.392   1_545 S
C123   S160    1.785   .     S
C123   C272    1.395   .     S
C124   S161    1.782   .     S
C124   C284    1.392   .     S
Cu125  N137    2.016   .     S
Cu125  Cu126   2.682   .     S
Cu125  O154    1.955   .     S
Cu125  O153    1.981   .     S
Cu125  O139    1.982   .     S
Cu125  O157    1.957   .     S
Cu126  O152    1.981   .     S
Cu126  O155    1.955   .     S
Cu126  O150    1.982   .     S
Cu126  N138    2.016   .     S
Cu126  O156    1.957   .     S
H127   C12     1.087   1_655 S
H128   O151    0.991   .     S
H134   O141    0.991   .     S
H135   O144    0.991   .     S
H136   O147    0.991   .     S
O140   S159    1.503   .     D
O141   S159    1.683   .     S
O142   S160    1.503   .     D
O143   S160    1.503   .     D
O144   S160    1.682   .     S
O145   S161    1.501   .     D
O146   S161    1.503   .     D
O147   S161    1.682   .     S
O148   S162    1.502   .     D
O149   S162    1.502   .     D
O151   S162    1.683   .     S
O158   S159    1.503   .     D
C163   C166    1.472   .     S
C163   O193    1.297   .     A
C163   O206    1.298   .     A
C164   C166    1.422   .     A
C164   S216    1.781   .     S
C165   C171    1.458   .     S
C165   C178    1.411   .     A
C165   C177    1.412   .     A
C166   C176    1.420   .     A
C167   N192    1.367   .     A
C167   H184    1.079   .     S
C167   C1141   1.415   1_554 S
C168   H185    1.081   .     S
C168   N191    1.367   .     A
C168   C656    1.415   .     S
C169   N191    1.367   .     A
C169   H186    1.080   .     S
C169   C653    1.415   .     S
C170   H187    1.080   .     S
C170   N192    1.368   .     A
C170   C1140   1.415   1_554 S
C171   O207    1.293   .     A
C171   O204    1.294   .     A
C172   O208    1.287   .     A
C172   O210    1.289   .     A
C172   C174    1.433   .     S
C173   O209    1.287   .     A
C173   C175    1.433   .     S
C173   O211    1.289   .     A
C174   C283    1.335   1_455 S
C174   H289    1.087   1_455 S
C175   C228    1.335   .     S
C175   H237    1.087   .     S
C176   S213    1.780   .     S
C177   S214    1.785   .     S
C177   C326    1.395   .     S
C178   S215    1.782   .     S
C178   C338    1.392   .     S
Cu179  N191    2.016   .     S
Cu179  Cu180   2.682   .     S
Cu179  O208    1.955   .     S
Cu179  O207    1.981   .     S
Cu179  O193    1.982   .     S
Cu179  O211    1.957   .     S
Cu180  O206    1.981   .     S
Cu180  O209    1.955   .     S
Cu180  O204    1.982   .     S
Cu180  N192    2.016   .     S
Cu180  O210    1.957   .     S
H181   C228    1.087   .     S
H182   O205    0.991   .     S
H183   C283    1.087   1_455 S
H188   O195    0.991   .     S
H189   O198    0.991   .     S
H190   O201    0.991   .     S
O194   S213    1.503   .     D
O195   S213    1.683   .     S
O196   S214    1.503   .     D
O197   S214    1.503   .     D
O198   S214    1.682   .     S
O199   S215    1.501   .     D
O200   S215    1.503   .     D
O201   S215    1.682   .     S
O202   S216    1.502   .     D
O203   S216    1.502   .     D
O205   S216    1.683   .     S
O212   S213    1.503   .     D
C217   C220    1.472   .     S
C217   O247    1.297   .     A
C217   O260    1.298   .     A
C218   C220    1.422   .     A
C218   S270    1.781   .     S
C219   C225    1.458   .     S
C219   C232    1.411   .     A
C219   C231    1.412   .     A
C220   C230    1.420   .     A
C221   N246    1.367   .     A
C221   H238    1.079   .     S
C221   C1195   1.415   1_554 S
C222   H239    1.081   .     S
C222   N245    1.367   .     A
C222   C710    1.415   .     S
C223   N245    1.367   .     A
C223   H240    1.080   .     S
C223   C707    1.415   .     S
C224   H241    1.080   .     S
C224   N246    1.368   .     A
C224   C1194   1.415   1_554 S
C225   O261    1.293   .     A
C225   O258    1.294   .     A
C226   O262    1.287   .     A
C226   O264    1.289   .     A
C226   C228    1.433   .     S
C227   O263    1.287   .     A
C227   C229    1.433   .     S
C227   O265    1.289   .     A
C229   C282    1.335   .     S
C229   H291    1.087   .     S
C230   S267    1.780   .     S
C231   S268    1.785   .     S
C231   C380    1.395   .     S
C232   S269    1.782   .     S
C232   C392    1.392   .     S
Cu233  N245    2.016   .     S
Cu233  Cu234   2.682   .     S
Cu233  O262    1.955   .     S
Cu233  O261    1.981   .     S
Cu233  O247    1.982   .     S
Cu233  O265    1.957   .     S
Cu234  O260    1.981   .     S
Cu234  O263    1.955   .     S
Cu234  O258    1.982   .     S
Cu234  N246    2.016   .     S
Cu234  O264    1.957   .     S
H235   C282    1.087   .     S
H236   O259    0.991   .     S
H242   O249    0.991   .     S
H243   O252    0.991   .     S
H244   O255    0.991   .     S
O248   S267    1.503   .     D
O249   S267    1.683   .     S
O250   S268    1.503   .     D
O251   S268    1.503   .     D
O252   S268    1.682   .     S
O253   S269    1.501   .     D
O254   S269    1.503   .     D
O255   S269    1.682   .     S
O256   S270    1.502   .     D
O257   S270    1.502   .     D
O259   S270    1.683   .     S
O266   S267    1.503   .     D
C271   C274    1.472   .     S
C271   O301    1.297   .     A
C271   O314    1.298   .     A
C272   C274    1.422   .     A
C272   S324    1.781   .     S
C273   C279    1.458   .     S
C273   C286    1.411   .     A
C273   C285    1.412   .     A
C274   C284    1.420   .     A
C275   N300    1.367   .     A
C275   H292    1.079   .     S
C275   C1249   1.415   1_554 S
C276   H293    1.081   .     S
C276   N299    1.367   .     A
C276   C764    1.415   .     S
C277   N299    1.367   .     A
C277   H294    1.080   .     S
C277   C761    1.415   .     S
C278   H295    1.080   .     S
C278   N300    1.368   .     A
C278   C1248   1.415   1_554 S
C279   O315    1.293   .     A
C279   O312    1.294   .     A
C280   O316    1.287   .     A
C280   O318    1.289   .     A
C280   C282    1.433   .     S
C281   O317    1.287   .     A
C281   C283    1.433   .     S
C281   O319    1.289   .     A
C283   C174    1.335   1_655 S
C283   H183    1.087   1_655 S
C284   S321    1.780   .     S
C285   S322    1.785   .     S
C285   C434    1.395   .     S
C286   S323    1.782   .     S
C286   C446    1.392   .     S
Cu287  N299    2.016   .     S
Cu287  Cu288   2.682   .     S
Cu287  O316    1.955   .     S
Cu287  O315    1.981   .     S
Cu287  O301    1.982   .     S
Cu287  O319    1.957   .     S
Cu288  O314    1.981   .     S
Cu288  O317    1.955   .     S
Cu288  O312    1.982   .     S
Cu288  N300    2.016   .     S
Cu288  O318    1.957   .     S
H289   C174    1.087   1_655 S
H290   O313    0.991   .     S
H296   O303    0.991   .     S
H297   O306    0.991   .     S
H298   O309    0.991   .     S
O302   S321    1.503   .     D
O303   S321    1.683   .     S
O304   S322    1.503   .     D
O305   S322    1.503   .     D
O306   S322    1.682   .     S
O307   S323    1.501   .     D
O308   S323    1.503   .     D
O309   S323    1.682   .     S
O310   S324    1.502   .     D
O311   S324    1.502   .     D
O313   S324    1.683   .     S
O320   S321    1.503   .     D
C325   C328    1.472   .     S
C325   O355    1.297   .     A
C325   O368    1.298   .     A
C326   C328    1.422   .     A
C326   S378    1.781   .     S
C327   C333    1.458   .     S
C327   C340    1.411   .     A
C327   C339    1.412   .     A
C328   C338    1.420   .     A
C329   N354    1.367   .     A
C329   H346    1.079   .     S
C329   C1303   1.415   1_554 S
C330   H347    1.081   .     S
C330   N353    1.367   .     A
C330   C818    1.415   .     S
C331   N353    1.367   .     A
C331   H348    1.080   .     S
C331   C815    1.415   .     S
C332   H349    1.080   .     S
C332   N354    1.368   .     A
C332   C1302   1.415   1_554 S
C333   O369    1.293   .     A
C333   O366    1.294   .     A
C334   O370    1.287   .     A
C334   O372    1.289   .     A
C334   C336    1.433   .     S
C335   O371    1.287   .     A
C335   C337    1.433   .     S
C335   O373    1.289   .     A
C336   C445    1.335   1_455 S
C336   H451    1.087   1_455 S
C337   C390    1.335   .     S
C337   H399    1.087   .     S
C338   S375    1.780   .     S
C339   S376    1.785   .     S
C339   C2      1.395   1_565 S
C340   S377    1.782   .     S
C340   C14     1.392   1_565 S
Cu341  N353    2.016   .     S
Cu341  Cu342   2.682   .     S
Cu341  O370    1.955   .     S
Cu341  O369    1.981   .     S
Cu341  O355    1.982   .     S
Cu341  O373    1.957   .     S
Cu342  O368    1.981   .     S
Cu342  O371    1.955   .     S
Cu342  O366    1.982   .     S
Cu342  N354    2.016   .     S
Cu342  O372    1.957   .     S
H343   C390    1.087   .     S
H344   O367    0.991   .     S
H345   C445    1.087   1_455 S
H350   O357    0.991   .     S
H351   O360    0.991   .     S
H352   O363    0.991   .     S
O356   S375    1.503   .     D
O357   S375    1.683   .     S
O358   S376    1.503   .     D
O359   S376    1.503   .     D
O360   S376    1.682   .     S
O361   S377    1.501   .     D
O362   S377    1.503   .     D
O363   S377    1.682   .     S
O364   S378    1.502   .     D
O365   S378    1.502   .     D
O367   S378    1.683   .     S
O374   S375    1.503   .     D
C379   C382    1.472   .     S
C379   O409    1.297   .     A
C379   O422    1.298   .     A
C380   C382    1.422   .     A
C380   S432    1.781   .     S
C381   C387    1.458   .     S
C381   C394    1.411   .     A
C381   C393    1.412   .     A
C382   C392    1.420   .     A
C383   N408    1.367   .     A
C383   H400    1.079   .     S
C383   C1357   1.415   1_554 S
C384   H401    1.081   .     S
C384   N407    1.367   .     A
C384   C872    1.415   .     S
C385   N407    1.367   .     A
C385   H402    1.080   .     S
C385   C869    1.415   .     S
C386   H403    1.080   .     S
C386   N408    1.368   .     A
C386   C1356   1.415   1_554 S
C387   O423    1.293   .     A
C387   O420    1.294   .     A
C388   O424    1.287   .     A
C388   O426    1.289   .     A
C388   C390    1.433   .     S
C389   O425    1.287   .     A
C389   C391    1.433   .     S
C389   O427    1.289   .     A
C391   C444    1.335   .     S
C391   H453    1.087   .     S
C392   S429    1.780   .     S
C393   S430    1.785   .     S
C393   C56     1.395   1_565 S
C394   S431    1.782   .     S
C394   C68     1.392   1_565 S
Cu395  N407    2.016   .     S
Cu395  Cu396   2.682   .     S
Cu395  O424    1.955   .     S
Cu395  O423    1.981   .     S
Cu395  O409    1.982   .     S
Cu395  O427    1.957   .     S
Cu396  O422    1.981   .     S
Cu396  O425    1.955   .     S
Cu396  O420    1.982   .     S
Cu396  N408    2.016   .     S
Cu396  O426    1.957   .     S
H397   C444    1.087   .     S
H398   O421    0.991   .     S
H404   O411    0.991   .     S
H405   O414    0.991   .     S
H406   O417    0.991   .     S
O410   S429    1.503   .     D
O411   S429    1.683   .     S
O412   S430    1.503   .     D
O413   S430    1.503   .     D
O414   S430    1.682   .     S
O415   S431    1.501   .     D
O416   S431    1.503   .     D
O417   S431    1.682   .     S
O418   S432    1.502   .     D
O419   S432    1.502   .     D
O421   S432    1.683   .     S
O428   S429    1.503   .     D
C433   C436    1.472   .     S
C433   O463    1.297   .     A
C433   O476    1.298   .     A
C434   C436    1.422   .     A
C434   S486    1.781   .     S
C435   C441    1.458   .     S
C435   C448    1.411   .     A
C435   C447    1.412   .     A
C436   C446    1.420   .     A
C437   N462    1.367   .     A
C437   H454    1.079   .     S
C437   C1411   1.415   1_554 S
C438   H455    1.081   .     S
C438   N461    1.367   .     A
C438   C926    1.415   .     S
C439   N461    1.367   .     A
C439   H456    1.080   .     S
C439   C923    1.415   .     S
C440   H457    1.080   .     S
C440   N462    1.368   .     A
C440   C1410   1.415   1_554 S
C441   O477    1.293   .     A
C441   O474    1.294   .     A
C442   O478    1.287   .     A
C442   O480    1.289   .     A
C442   C444    1.433   .     S
C443   O479    1.287   .     A
C443   C445    1.433   .     S
C443   O481    1.289   .     A
C445   C336    1.335   1_655 S
C445   H345    1.087   1_655 S
C446   S483    1.780   .     S
C447   S484    1.785   .     S
C447   C110    1.395   1_565 S
C448   S485    1.782   .     S
C448   C122    1.392   1_565 S
Cu449  N461    2.016   .     S
Cu449  Cu450   2.682   .     S
Cu449  O478    1.955   .     S
Cu449  O477    1.981   .     S
Cu449  O463    1.982   .     S
Cu449  O481    1.957   .     S
Cu450  O476    1.981   .     S
Cu450  O479    1.955   .     S
Cu450  O474    1.982   .     S
Cu450  N462    2.016   .     S
Cu450  O480    1.957   .     S
H451   C336    1.087   1_655 S
H452   O475    0.991   .     S
H458   O465    0.991   .     S
H459   O468    0.991   .     S
H460   O471    0.991   .     S
O464   S483    1.503   .     D
O465   S483    1.683   .     S
O466   S484    1.503   .     D
O467   S484    1.503   .     D
O468   S484    1.682   .     S
O469   S485    1.501   .     D
O470   S485    1.503   .     D
O471   S485    1.682   .     S
O472   S486    1.502   .     D
O473   S486    1.502   .     D
O475   S486    1.683   .     S
O482   S483    1.503   .     D
C487   C490    1.472   .     S
C487   O517    1.297   .     A
C487   O530    1.298   .     A
C488   C490    1.422   .     A
C488   S540    1.781   .     S
C488   C825    1.395   1_545 S
C489   C495    1.458   .     S
C489   C502    1.411   .     A
C489   C501    1.412   .     A
C490   C500    1.420   .     A
C491   N516    1.367   .     A
C491   H508    1.079   .     S
C492   H509    1.081   .     S
C492   N515    1.367   .     A
C492   C980    1.415   .     S
C493   N515    1.367   .     A
C493   H510    1.080   .     S
C493   C977    1.415   .     S
C494   H511    1.080   .     S
C494   N516    1.368   .     A
C495   O531    1.293   .     A
C495   O528    1.294   .     A
C496   O532    1.287   .     A
C496   O534    1.289   .     A
C496   C498    1.433   .     S
C497   O533    1.287   .     A
C497   C499    1.433   .     S
C497   O535    1.289   .     A
C498   C607    1.335   1_455 S
C498   H613    1.087   1_455 S
C499   C552    1.335   .     S
C499   H561    1.087   .     S
C500   S537    1.780   .     S
C500   C826    1.392   1_545 S
C501   S538    1.785   .     S
C501   C650    1.395   .     S
C502   S539    1.782   .     S
C502   C662    1.392   .     S
Cu503  N515    2.016   .     S
Cu503  Cu504   2.682   .     S
Cu503  O532    1.955   .     S
Cu503  O531    1.981   .     S
Cu503  O517    1.982   .     S
Cu503  O535    1.957   .     S
Cu504  O530    1.981   .     S
Cu504  O533    1.955   .     S
Cu504  O528    1.982   .     S
Cu504  N516    2.016   .     S
Cu504  O534    1.957   .     S
H505   C552    1.087   .     S
H506   O529    0.991   .     S
H507   C607    1.087   1_455 S
H512   O519    0.991   .     S
H513   O522    0.991   .     S
H514   O525    0.991   .     S
O518   S537    1.503   .     D
O519   S537    1.683   .     S
O520   S538    1.503   .     D
O521   S538    1.503   .     D
O522   S538    1.682   .     S
O523   S539    1.501   .     D
O524   S539    1.503   .     D
O525   S539    1.682   .     S
O526   S540    1.502   .     D
O527   S540    1.502   .     D
O529   S540    1.683   .     S
O536   S537    1.503   .     D
C541   C544    1.472   .     S
C541   O571    1.297   .     A
C541   O584    1.298   .     A
C542   C544    1.422   .     A
C542   S594    1.781   .     S
C542   C879    1.395   1_545 S
C543   C549    1.458   .     S
C543   C556    1.411   .     A
C543   C555    1.412   .     A
C544   C554    1.420   .     A
C545   N570    1.367   .     A
C545   H562    1.079   .     S
C546   H563    1.081   .     S
C546   N569    1.367   .     A
C546   C1034   1.415   .     S
C547   N569    1.367   .     A
C547   H564    1.080   .     S
C547   C1031   1.415   .     S
C548   H565    1.080   .     S
C548   N570    1.368   .     A
C549   O585    1.293   .     A
C549   O582    1.294   .     A
C550   O586    1.287   .     A
C550   O588    1.289   .     A
C550   C552    1.433   .     S
C551   O587    1.287   .     A
C551   C553    1.433   .     S
C551   O589    1.289   .     A
C553   C606    1.335   .     S
C553   H615    1.087   .     S
C554   S591    1.780   .     S
C554   C880    1.392   1_545 S
C555   S592    1.785   .     S
C555   C704    1.395   .     S
C556   S593    1.782   .     S
C556   C716    1.392   .     S
Cu557  N569    2.016   .     S
Cu557  Cu558   2.682   .     S
Cu557  O586    1.955   .     S
Cu557  O585    1.981   .     S
Cu557  O571    1.982   .     S
Cu557  O589    1.957   .     S
Cu558  O584    1.981   .     S
Cu558  O587    1.955   .     S
Cu558  O582    1.982   .     S
Cu558  N570    2.016   .     S
Cu558  O588    1.957   .     S
H559   C606    1.087   .     S
H560   O583    0.991   .     S
H566   O573    0.991   .     S
H567   O576    0.991   .     S
H568   O579    0.991   .     S
O572   S591    1.503   .     D
O573   S591    1.683   .     S
O574   S592    1.503   .     D
O575   S592    1.503   .     D
O576   S592    1.682   .     S
O577   S593    1.501   .     D
O578   S593    1.503   .     D
O579   S593    1.682   .     S
O580   S594    1.502   .     D
O581   S594    1.502   .     D
O583   S594    1.683   .     S
O590   S591    1.503   .     D
C595   C598    1.472   .     S
C595   O625    1.297   .     A
C595   O638    1.298   .     A
C596   C598    1.422   .     A
C596   S648    1.781   .     S
C596   C933    1.395   1_545 S
C597   C603    1.458   .     S
C597   C610    1.411   .     A
C597   C609    1.412   .     A
C598   C608    1.420   .     A
C599   N624    1.367   .     A
C599   H616    1.079   .     S
C600   H617    1.081   .     S
C600   N623    1.367   .     A
C600   C1088   1.415   .     S
C601   N623    1.367   .     A
C601   H618    1.080   .     S
C601   C1085   1.415   .     S
C602   H619    1.080   .     S
C602   N624    1.368   .     A
C603   O639    1.293   .     A
C603   O636    1.294   .     A
C604   O640    1.287   .     A
C604   O642    1.289   .     A
C604   C606    1.433   .     S
C605   O641    1.287   .     A
C605   C607    1.433   .     S
C605   O643    1.289   .     A
C607   C498    1.335   1_655 S
C607   H507    1.087   1_655 S
C608   S645    1.780   .     S
C608   C934    1.392   1_545 S
C609   S646    1.785   .     S
C609   C758    1.395   .     S
C610   S647    1.782   .     S
C610   C770    1.392   .     S
Cu611  N623    2.016   .     S
Cu611  Cu612   2.682   .     S
Cu611  O640    1.955   .     S
Cu611  O639    1.981   .     S
Cu611  O625    1.982   .     S
Cu611  O643    1.957   .     S
Cu612  O638    1.981   .     S
Cu612  O641    1.955   .     S
Cu612  O636    1.982   .     S
Cu612  N624    2.016   .     S
Cu612  O642    1.957   .     S
H613   C498    1.087   1_655 S
H614   O637    0.991   .     S
H620   O627    0.991   .     S
H621   O630    0.991   .     S
H622   O633    0.991   .     S
O626   S645    1.503   .     D
O627   S645    1.683   .     S
O628   S646    1.503   .     D
O629   S646    1.503   .     D
O630   S646    1.682   .     S
O631   S647    1.501   .     D
O632   S647    1.503   .     D
O633   S647    1.682   .     S
O634   S648    1.502   .     D
O635   S648    1.502   .     D
O637   S648    1.683   .     S
O644   S645    1.503   .     D
C649   C652    1.472   .     S
C649   O679    1.297   .     A
C649   O692    1.298   .     A
C650   C652    1.422   .     A
C650   S702    1.781   .     S
C651   C657    1.458   .     S
C651   C664    1.411   .     A
C651   C663    1.412   .     A
C652   C662    1.420   .     A
C653   N678    1.367   .     A
C653   H670    1.079   .     S
C654   H671    1.081   .     S
C654   N677    1.367   .     A
C654   C1142   1.415   .     S
C655   N677    1.367   .     A
C655   H672    1.080   .     S
C655   C1139   1.415   .     S
C656   H673    1.080   .     S
C656   N678    1.368   .     A
C657   O693    1.293   .     A
C657   O690    1.294   .     A
C658   O694    1.287   .     A
C658   O696    1.289   .     A
C658   C660    1.433   .     S
C659   O695    1.287   .     A
C659   C661    1.433   .     S
C659   O697    1.289   .     A
C660   C769    1.335   1_455 S
C660   H775    1.087   1_455 S
C661   C714    1.335   .     S
C661   H723    1.087   .     S
C662   S699    1.780   .     S
C663   S700    1.785   .     S
C663   C812    1.395   .     S
C664   S701    1.782   .     S
C664   C824    1.392   .     S
Cu665  N677    2.016   .     S
Cu665  Cu666   2.682   .     S
Cu665  O694    1.955   .     S
Cu665  O693    1.981   .     S
Cu665  O679    1.982   .     S
Cu665  O697    1.957   .     S
Cu666  O692    1.981   .     S
Cu666  O695    1.955   .     S
Cu666  O690    1.982   .     S
Cu666  N678    2.016   .     S
Cu666  O696    1.957   .     S
H667   C714    1.087   .     S
H668   O691    0.991   .     S
H669   C769    1.087   1_455 S
H674   O681    0.991   .     S
H675   O684    0.991   .     S
H676   O687    0.991   .     S
O680   S699    1.503   .     D
O681   S699    1.683   .     S
O682   S700    1.503   .     D
O683   S700    1.503   .     D
O684   S700    1.682   .     S
O685   S701    1.501   .     D
O686   S701    1.503   .     D
O687   S701    1.682   .     S
O688   S702    1.502   .     D
O689   S702    1.502   .     D
O691   S702    1.683   .     S
O698   S699    1.503   .     D
C703   C706    1.472   .     S
C703   O733    1.297   .     A
C703   O746    1.298   .     A
C704   C706    1.422   .     A
C704   S756    1.781   .     S
C705   C711    1.458   .     S
C705   C718    1.411   .     A
C705   C717    1.412   .     A
C706   C716    1.420   .     A
C707   N732    1.367   .     A
C707   H724    1.079   .     S
C708   H725    1.081   .     S
C708   N731    1.367   .     A
C708   C1196   1.415   .     S
C709   N731    1.367   .     A
C709   H726    1.080   .     S
C709   C1193   1.415   .     S
C710   H727    1.080   .     S
C710   N732    1.368   .     A
C711   O747    1.293   .     A
C711   O744    1.294   .     A
C712   O748    1.287   .     A
C712   O750    1.289   .     A
C712   C714    1.433   .     S
C713   O749    1.287   .     A
C713   C715    1.433   .     S
C713   O751    1.289   .     A
C715   C768    1.335   .     S
C715   H777    1.087   .     S
C716   S753    1.780   .     S
C717   S754    1.785   .     S
C717   C866    1.395   .     S
C718   S755    1.782   .     S
C718   C878    1.392   .     S
Cu719  N731    2.016   .     S
Cu719  Cu720   2.682   .     S
Cu719  O748    1.955   .     S
Cu719  O747    1.981   .     S
Cu719  O733    1.982   .     S
Cu719  O751    1.957   .     S
Cu720  O746    1.981   .     S
Cu720  O749    1.955   .     S
Cu720  O744    1.982   .     S
Cu720  N732    2.016   .     S
Cu720  O750    1.957   .     S
H721   C768    1.087   .     S
H722   O745    0.991   .     S
H728   O735    0.991   .     S
H729   O738    0.991   .     S
H730   O741    0.991   .     S
O734   S753    1.503   .     D
O735   S753    1.683   .     S
O736   S754    1.503   .     D
O737   S754    1.503   .     D
O738   S754    1.682   .     S
O739   S755    1.501   .     D
O740   S755    1.503   .     D
O741   S755    1.682   .     S
O742   S756    1.502   .     D
O743   S756    1.502   .     D
O745   S756    1.683   .     S
O752   S753    1.503   .     D
C757   C760    1.472   .     S
C757   O787    1.297   .     A
C757   O800    1.298   .     A
C758   C760    1.422   .     A
C758   S810    1.781   .     S
C759   C765    1.458   .     S
C759   C772    1.411   .     A
C759   C771    1.412   .     A
C760   C770    1.420   .     A
C761   N786    1.367   .     A
C761   H778    1.079   .     S
C762   H779    1.081   .     S
C762   N785    1.367   .     A
C762   C1250   1.415   .     S
C763   N785    1.367   .     A
C763   H780    1.080   .     S
C763   C1247   1.415   .     S
C764   H781    1.080   .     S
C764   N786    1.368   .     A
C765   O801    1.293   .     A
C765   O798    1.294   .     A
C766   O802    1.287   .     A
C766   O804    1.289   .     A
C766   C768    1.433   .     S
C767   O803    1.287   .     A
C767   C769    1.433   .     S
C767   O805    1.289   .     A
C769   C660    1.335   1_655 S
C769   H669    1.087   1_655 S
C770   S807    1.780   .     S
C771   S808    1.785   .     S
C771   C920    1.395   .     S
C772   S809    1.782   .     S
C772   C932    1.392   .     S
Cu773  N785    2.016   .     S
Cu773  Cu774   2.682   .     S
Cu773  O802    1.955   .     S
Cu773  O801    1.981   .     S
Cu773  O787    1.982   .     S
Cu773  O805    1.957   .     S
Cu774  O800    1.981   .     S
Cu774  O803    1.955   .     S
Cu774  O798    1.982   .     S
Cu774  N786    2.016   .     S
Cu774  O804    1.957   .     S
H775   C660    1.087   1_655 S
H776   O799    0.991   .     S
H782   O789    0.991   .     S
H783   O792    0.991   .     S
H784   O795    0.991   .     S
O788   S807    1.503   .     D
O789   S807    1.683   .     S
O790   S808    1.503   .     D
O791   S808    1.503   .     D
O792   S808    1.682   .     S
O793   S809    1.501   .     D
O794   S809    1.503   .     D
O795   S809    1.682   .     S
O796   S810    1.502   .     D
O797   S810    1.502   .     D
O799   S810    1.683   .     S
O806   S807    1.503   .     D
C811   C814    1.472   .     S
C811   O841    1.297   .     A
C811   O854    1.298   .     A
C812   C814    1.422   .     A
C812   S864    1.781   .     S
C813   C819    1.458   .     S
C813   C826    1.411   .     A
C813   C825    1.412   .     A
C814   C824    1.420   .     A
C815   N840    1.367   .     A
C815   H832    1.079   .     S
C816   H833    1.081   .     S
C816   N839    1.367   .     A
C816   C1304   1.415   .     S
C817   N839    1.367   .     A
C817   H834    1.080   .     S
C817   C1301   1.415   .     S
C818   H835    1.080   .     S
C818   N840    1.368   .     A
C819   O855    1.293   .     A
C819   O852    1.294   .     A
C820   O856    1.287   .     A
C820   O858    1.289   .     A
C820   C822    1.433   .     S
C821   O857    1.287   .     A
C821   C823    1.433   .     S
C821   O859    1.289   .     A
C822   C931    1.335   1_455 S
C822   H937    1.087   1_455 S
C823   C876    1.335   .     S
C823   H885    1.087   .     S
C824   S861    1.780   .     S
C825   S862    1.785   .     S
C825   C488    1.395   1_565 S
C826   S863    1.782   .     S
C826   C500    1.392   1_565 S
Cu827  N839    2.016   .     S
Cu827  Cu828   2.682   .     S
Cu827  O856    1.955   .     S
Cu827  O855    1.981   .     S
Cu827  O841    1.982   .     S
Cu827  O859    1.957   .     S
Cu828  O854    1.981   .     S
Cu828  O857    1.955   .     S
Cu828  O852    1.982   .     S
Cu828  N840    2.016   .     S
Cu828  O858    1.957   .     S
H829   C876    1.087   .     S
H830   O853    0.991   .     S
H831   C931    1.087   1_455 S
H836   O843    0.991   .     S
H837   O846    0.991   .     S
H838   O849    0.991   .     S
O842   S861    1.503   .     D
O843   S861    1.683   .     S
O844   S862    1.503   .     D
O845   S862    1.503   .     D
O846   S862    1.682   .     S
O847   S863    1.501   .     D
O848   S863    1.503   .     D
O849   S863    1.682   .     S
O850   S864    1.502   .     D
O851   S864    1.502   .     D
O853   S864    1.683   .     S
O860   S861    1.503   .     D
C865   C868    1.472   .     S
C865   O895    1.297   .     A
C865   O908    1.298   .     A
C866   C868    1.422   .     A
C866   S918    1.781   .     S
C867   C873    1.458   .     S
C867   C880    1.411   .     A
C867   C879    1.412   .     A
C868   C878    1.420   .     A
C869   N894    1.367   .     A
C869   H886    1.079   .     S
C870   H887    1.081   .     S
C870   N893    1.367   .     A
C870   C1358   1.415   .     S
C871   N893    1.367   .     A
C871   H888    1.080   .     S
C871   C1355   1.415   .     S
C872   H889    1.080   .     S
C872   N894    1.368   .     A
C873   O909    1.293   .     A
C873   O906    1.294   .     A
C874   O910    1.287   .     A
C874   O912    1.289   .     A
C874   C876    1.433   .     S
C875   O911    1.287   .     A
C875   C877    1.433   .     S
C875   O913    1.289   .     A
C877   C930    1.335   .     S
C877   H939    1.087   .     S
C878   S915    1.780   .     S
C879   S916    1.785   .     S
C879   C542    1.395   1_565 S
C880   S917    1.782   .     S
C880   C554    1.392   1_565 S
Cu881  N893    2.016   .     S
Cu881  Cu882   2.682   .     S
Cu881  O910    1.955   .     S
Cu881  O909    1.981   .     S
Cu881  O895    1.982   .     S
Cu881  O913    1.957   .     S
Cu882  O908    1.981   .     S
Cu882  O911    1.955   .     S
Cu882  O906    1.982   .     S
Cu882  N894    2.016   .     S
Cu882  O912    1.957   .     S
H883   C930    1.087   .     S
H884   O907    0.991   .     S
H890   O897    0.991   .     S
H891   O900    0.991   .     S
H892   O903    0.991   .     S
O896   S915    1.503   .     D
O897   S915    1.683   .     S
O898   S916    1.503   .     D
O899   S916    1.503   .     D
O900   S916    1.682   .     S
O901   S917    1.501   .     D
O902   S917    1.503   .     D
O903   S917    1.682   .     S
O904   S918    1.502   .     D
O905   S918    1.502   .     D
O907   S918    1.683   .     S
O914   S915    1.503   .     D
C919   C922    1.472   .     S
C919   O949    1.297   .     A
C919   O962    1.298   .     A
C920   C922    1.422   .     A
C920   S972    1.781   .     S
C921   C927    1.458   .     S
C921   C934    1.411   .     A
C921   C933    1.412   .     A
C922   C932    1.420   .     A
C923   N948    1.367   .     A
C923   H940    1.079   .     S
C924   H941    1.081   .     S
C924   N947    1.367   .     A
C924   C1412   1.415   .     S
C925   N947    1.367   .     A
C925   H942    1.080   .     S
C925   C1409   1.415   .     S
C926   H943    1.080   .     S
C926   N948    1.368   .     A
C927   O963    1.293   .     A
C927   O960    1.294   .     A
C928   O964    1.287   .     A
C928   O966    1.289   .     A
C928   C930    1.433   .     S
C929   O965    1.287   .     A
C929   C931    1.433   .     S
C929   O967    1.289   .     A
C931   C822    1.335   1_655 S
C931   H831    1.087   1_655 S
C932   S969    1.780   .     S
C933   S970    1.785   .     S
C933   C596    1.395   1_565 S
C934   S971    1.782   .     S
C934   C608    1.392   1_565 S
Cu935  N947    2.016   .     S
Cu935  Cu936   2.682   .     S
Cu935  O964    1.955   .     S
Cu935  O963    1.981   .     S
Cu935  O949    1.982   .     S
Cu935  O967    1.957   .     S
Cu936  O962    1.981   .     S
Cu936  O965    1.955   .     S
Cu936  O960    1.982   .     S
Cu936  N948    2.016   .     S
Cu936  O966    1.957   .     S
H937   C822    1.087   1_655 S
H938   O961    0.991   .     S
H944   O951    0.991   .     S
H945   O954    0.991   .     S
H946   O957    0.991   .     S
O950   S969    1.503   .     D
O951   S969    1.683   .     S
O952   S970    1.503   .     D
O953   S970    1.503   .     D
O954   S970    1.682   .     S
O955   S971    1.501   .     D
O956   S971    1.503   .     D
O957   S971    1.682   .     S
O958   S972    1.502   .     D
O959   S972    1.502   .     D
O961   S972    1.683   .     S
O968   S969    1.503   .     D
C973   C976    1.472   .     S
C973   O1003   1.297   .     A
C973   O1016   1.298   .     A
C974   C976    1.422   .     A
C974   S1026   1.781   .     S
C974   C1311   1.395   1_545 S
C975   C981    1.458   .     S
C975   C988    1.411   .     A
C975   C987    1.412   .     A
C976   C986    1.420   .     A
C977   N1002   1.367   .     A
C977   H994    1.079   .     S
C978   H995    1.081   .     S
C978   N1001   1.367   .     A
C978   C8      1.415   1_556 S
C979   N1001   1.367   .     A
C979   H996    1.080   .     S
C979   C5      1.415   1_556 S
C980   H997    1.080   .     S
C980   N1002   1.368   .     A
C981   O1017   1.293   .     A
C981   O1014   1.294   .     A
C982   O1018   1.287   .     A
C982   O1020   1.289   .     A
C982   C984    1.433   .     S
C983   O1019   1.287   .     A
C983   C985    1.433   .     S
C983   O1021   1.289   .     A
C984   C1093   1.335   1_455 S
C984   H1099   1.087   1_455 S
C985   C1038   1.335   .     S
C985   H1047   1.087   .     S
C986   S1023   1.780   .     S
C986   C1312   1.392   1_545 S
C987   S1024   1.785   .     S
C987   C1136   1.395   .     S
C988   S1025   1.782   .     S
C988   C1148   1.392   .     S
Cu989  N1001   2.016   .     S
Cu989  Cu990   2.682   .     S
Cu989  O1018   1.955   .     S
Cu989  O1017   1.981   .     S
Cu989  O1003   1.982   .     S
Cu989  O1021   1.957   .     S
Cu990  O1016   1.981   .     S
Cu990  O1019   1.955   .     S
Cu990  O1014   1.982   .     S
Cu990  N1002   2.016   .     S
Cu990  O1020   1.957   .     S
H991   C1038   1.087   .     S
H992   O1015   0.991   .     S
H993   C1093   1.087   1_455 S
H998   O1005   0.991   .     S
H999   O1008   0.991   .     S
H1000  O1011   0.991   .     S
O1004  S1023   1.503   .     D
O1005  S1023   1.683   .     S
O1006  S1024   1.503   .     D
O1007  S1024   1.503   .     D
O1008  S1024   1.682   .     S
O1009  S1025   1.501   .     D
O1010  S1025   1.503   .     D
O1011  S1025   1.682   .     S
O1012  S1026   1.502   .     D
O1013  S1026   1.502   .     D
O1015  S1026   1.683   .     S
O1022  S1023   1.503   .     D
C1027  C1030   1.472   .     S
C1027  O1057   1.297   .     A
C1027  O1070   1.298   .     A
C1028  C1030   1.422   .     A
C1028  S1080   1.781   .     S
C1028  C1365   1.395   1_545 S
C1029  C1035   1.458   .     S
C1029  C1042   1.411   .     A
C1029  C1041   1.412   .     A
C1030  C1040   1.420   .     A
C1031  N1056   1.367   .     A
C1031  H1048   1.079   .     S
C1032  H1049   1.081   .     S
C1032  N1055   1.367   .     A
C1032  C62     1.415   1_556 S
C1033  N1055   1.367   .     A
C1033  H1050   1.080   .     S
C1033  C59     1.415   1_556 S
C1034  H1051   1.080   .     S
C1034  N1056   1.368   .     A
C1035  O1071   1.293   .     A
C1035  O1068   1.294   .     A
C1036  O1072   1.287   .     A
C1036  O1074   1.289   .     A
C1036  C1038   1.433   .     S
C1037  O1073   1.287   .     A
C1037  C1039   1.433   .     S
C1037  O1075   1.289   .     A
C1039  C1092   1.335   .     S
C1039  H1101   1.087   .     S
C1040  S1077   1.780   .     S
C1040  C1366   1.392   1_545 S
C1041  S1078   1.785   .     S
C1041  C1190   1.395   .     S
C1042  S1079   1.782   .     S
C1042  C1202   1.392   .     S
Cu1043 N1055   2.016   .     S
Cu1043 Cu1044  2.682   .     S
Cu1043 O1072   1.955   .     S
Cu1043 O1071   1.981   .     S
Cu1043 O1057   1.982   .     S
Cu1043 O1075   1.957   .     S
Cu1044 O1070   1.981   .     S
Cu1044 O1073   1.955   .     S
Cu1044 O1068   1.982   .     S
Cu1044 N1056   2.016   .     S
Cu1044 O1074   1.957   .     S
H1045  C1092   1.087   .     S
H1046  O1069   0.991   .     S
H1052  O1059   0.991   .     S
H1053  O1062   0.991   .     S
H1054  O1065   0.991   .     S
O1058  S1077   1.503   .     D
O1059  S1077   1.683   .     S
O1060  S1078   1.503   .     D
O1061  S1078   1.503   .     D
O1062  S1078   1.682   .     S
O1063  S1079   1.501   .     D
O1064  S1079   1.503   .     D
O1065  S1079   1.682   .     S
O1066  S1080   1.502   .     D
O1067  S1080   1.502   .     D
O1069  S1080   1.683   .     S
O1076  S1077   1.503   .     D
C1081  C1084   1.472   .     S
C1081  O1111   1.297   .     A
C1081  O1124   1.298   .     A
C1082  C1084   1.422   .     A
C1082  S1134   1.781   .     S
C1082  C1419   1.395   1_545 S
C1083  C1089   1.458   .     S
C1083  C1096   1.411   .     A
C1083  C1095   1.412   .     A
C1084  C1094   1.420   .     A
C1085  N1110   1.367   .     A
C1085  H1102   1.079   .     S
C1086  H1103   1.081   .     S
C1086  N1109   1.367   .     A
C1086  C116    1.415   1_556 S
C1087  N1109   1.367   .     A
C1087  H1104   1.080   .     S
C1087  C113    1.415   1_556 S
C1088  H1105   1.080   .     S
C1088  N1110   1.368   .     A
C1089  O1125   1.293   .     A
C1089  O1122   1.294   .     A
C1090  O1126   1.287   .     A
C1090  O1128   1.289   .     A
C1090  C1092   1.433   .     S
C1091  O1127   1.287   .     A
C1091  C1093   1.433   .     S
C1091  O1129   1.289   .     A
C1093  C984    1.335   1_655 S
C1093  H993    1.087   1_655 S
C1094  S1131   1.780   .     S
C1094  C1420   1.392   1_545 S
C1095  S1132   1.785   .     S
C1095  C1244   1.395   .     S
C1096  S1133   1.782   .     S
C1096  C1256   1.392   .     S
Cu1097 N1109   2.016   .     S
Cu1097 Cu1098  2.682   .     S
Cu1097 O1126   1.955   .     S
Cu1097 O1125   1.981   .     S
Cu1097 O1111   1.982   .     S
Cu1097 O1129   1.957   .     S
Cu1098 O1124   1.981   .     S
Cu1098 O1127   1.955   .     S
Cu1098 O1122   1.982   .     S
Cu1098 N1110   2.016   .     S
Cu1098 O1128   1.957   .     S
H1099  C984    1.087   1_655 S
H1100  O1123   0.991   .     S
H1106  O1113   0.991   .     S
H1107  O1116   0.991   .     S
H1108  O1119   0.991   .     S
O1112  S1131   1.503   .     D
O1113  S1131   1.683   .     S
O1114  S1132   1.503   .     D
O1115  S1132   1.503   .     D
O1116  S1132   1.682   .     S
O1117  S1133   1.501   .     D
O1118  S1133   1.503   .     D
O1119  S1133   1.682   .     S
O1120  S1134   1.502   .     D
O1121  S1134   1.502   .     D
O1123  S1134   1.683   .     S
O1130  S1131   1.503   .     D
C1135  C1138   1.472   .     S
C1135  O1165   1.297   .     A
C1135  O1178   1.298   .     A
C1136  C1138   1.422   .     A
C1136  S1188   1.781   .     S
C1137  C1143   1.458   .     S
C1137  C1150   1.411   .     A
C1137  C1149   1.412   .     A
C1138  C1148   1.420   .     A
C1139  N1164   1.367   .     A
C1139  H1156   1.079   .     S
C1140  H1157   1.081   .     S
C1140  N1163   1.367   .     A
C1140  C170    1.415   1_556 S
C1141  N1163   1.367   .     A
C1141  H1158   1.080   .     S
C1141  C167    1.415   1_556 S
C1142  H1159   1.080   .     S
C1142  N1164   1.368   .     A
C1143  O1179   1.293   .     A
C1143  O1176   1.294   .     A
C1144  O1180   1.287   .     A
C1144  O1182   1.289   .     A
C1144  C1146   1.433   .     S
C1145  O1181   1.287   .     A
C1145  C1147   1.433   .     S
C1145  O1183   1.289   .     A
C1146  C1255   1.335   1_455 S
C1146  H1261   1.087   1_455 S
C1147  C1200   1.335   .     S
C1147  H1209   1.087   .     S
C1148  S1185   1.780   .     S
C1149  S1186   1.785   .     S
C1149  C1298   1.395   .     S
C1150  S1187   1.782   .     S
C1150  C1310   1.392   .     S
Cu1151 N1163   2.016   .     S
Cu1151 Cu1152  2.682   .     S
Cu1151 O1180   1.955   .     S
Cu1151 O1179   1.981   .     S
Cu1151 O1165   1.982   .     S
Cu1151 O1183   1.957   .     S
Cu1152 O1178   1.981   .     S
Cu1152 O1181   1.955   .     S
Cu1152 O1176   1.982   .     S
Cu1152 N1164   2.016   .     S
Cu1152 O1182   1.957   .     S
H1153  C1200   1.087   .     S
H1154  O1177   0.991   .     S
H1155  C1255   1.087   1_455 S
H1160  O1167   0.991   .     S
H1161  O1170   0.991   .     S
H1162  O1173   0.991   .     S
O1166  S1185   1.503   .     D
O1167  S1185   1.683   .     S
O1168  S1186   1.503   .     D
O1169  S1186   1.503   .     D
O1170  S1186   1.682   .     S
O1171  S1187   1.501   .     D
O1172  S1187   1.503   .     D
O1173  S1187   1.682   .     S
O1174  S1188   1.502   .     D
O1175  S1188   1.502   .     D
O1177  S1188   1.683   .     S
O1184  S1185   1.503   .     D
C1189  C1192   1.472   .     S
C1189  O1219   1.297   .     A
C1189  O1232   1.298   .     A
C1190  C1192   1.422   .     A
C1190  S1242   1.781   .     S
C1191  C1197   1.458   .     S
C1191  C1204   1.411   .     A
C1191  C1203   1.412   .     A
C1192  C1202   1.420   .     A
C1193  N1218   1.367   .     A
C1193  H1210   1.079   .     S
C1194  H1211   1.081   .     S
C1194  N1217   1.367   .     A
C1194  C224    1.415   1_556 S
C1195  N1217   1.367   .     A
C1195  H1212   1.080   .     S
C1195  C221    1.415   1_556 S
C1196  H1213   1.080   .     S
C1196  N1218   1.368   .     A
C1197  O1233   1.293   .     A
C1197  O1230   1.294   .     A
C1198  O1234   1.287   .     A
C1198  O1236   1.289   .     A
C1198  C1200   1.433   .     S
C1199  O1235   1.287   .     A
C1199  C1201   1.433   .     S
C1199  O1237   1.289   .     A
C1201  C1254   1.335   .     S
C1201  H1263   1.087   .     S
C1202  S1239   1.780   .     S
C1203  S1240   1.785   .     S
C1203  C1352   1.395   .     S
C1204  S1241   1.782   .     S
C1204  C1364   1.392   .     S
Cu1205 N1217   2.016   .     S
Cu1205 Cu1206  2.682   .     S
Cu1205 O1234   1.955   .     S
Cu1205 O1233   1.981   .     S
Cu1205 O1219   1.982   .     S
Cu1205 O1237   1.957   .     S
Cu1206 O1232   1.981   .     S
Cu1206 O1235   1.955   .     S
Cu1206 O1230   1.982   .     S
Cu1206 N1218   2.016   .     S
Cu1206 O1236   1.957   .     S
H1207  C1254   1.087   .     S
H1208  O1231   0.991   .     S
H1214  O1221   0.991   .     S
H1215  O1224   0.991   .     S
H1216  O1227   0.991   .     S
O1220  S1239   1.503   .     D
O1221  S1239   1.683   .     S
O1222  S1240   1.503   .     D
O1223  S1240   1.503   .     D
O1224  S1240   1.682   .     S
O1225  S1241   1.501   .     D
O1226  S1241   1.503   .     D
O1227  S1241   1.682   .     S
O1228  S1242   1.502   .     D
O1229  S1242   1.502   .     D
O1231  S1242   1.683   .     S
O1238  S1239   1.503   .     D
C1243  C1246   1.472   .     S
C1243  O1273   1.297   .     A
C1243  O1286   1.298   .     A
C1244  C1246   1.422   .     A
C1244  S1296   1.781   .     S
C1245  C1251   1.458   .     S
C1245  C1258   1.411   .     A
C1245  C1257   1.412   .     A
C1246  C1256   1.420   .     A
C1247  N1272   1.367   .     A
C1247  H1264   1.079   .     S
C1248  H1265   1.081   .     S
C1248  N1271   1.367   .     A
C1248  C278    1.415   1_556 S
C1249  N1271   1.367   .     A
C1249  H1266   1.080   .     S
C1249  C275    1.415   1_556 S
C1250  H1267   1.080   .     S
C1250  N1272   1.368   .     A
C1251  O1287   1.293   .     A
C1251  O1284   1.294   .     A
C1252  O1288   1.287   .     A
C1252  O1290   1.289   .     A
C1252  C1254   1.433   .     S
C1253  O1289   1.287   .     A
C1253  C1255   1.433   .     S
C1253  O1291   1.289   .     A
C1255  C1146   1.335   1_655 S
C1255  H1155   1.087   1_655 S
C1256  S1293   1.780   .     S
C1257  S1294   1.785   .     S
C1257  C1406   1.395   .     S
C1258  S1295   1.782   .     S
C1258  C1418   1.392   .     S
Cu1259 N1271   2.016   .     S
Cu1259 Cu1260  2.682   .     S
Cu1259 O1288   1.955   .     S
Cu1259 O1287   1.981   .     S
Cu1259 O1273   1.982   .     S
Cu1259 O1291   1.957   .     S
Cu1260 O1286   1.981   .     S
Cu1260 O1289   1.955   .     S
Cu1260 O1284   1.982   .     S
Cu1260 N1272   2.016   .     S
Cu1260 O1290   1.957   .     S
H1261  C1146   1.087   1_655 S
H1262  O1285   0.991   .     S
H1268  O1275   0.991   .     S
H1269  O1278   0.991   .     S
H1270  O1281   0.991   .     S
O1274  S1293   1.503   .     D
O1275  S1293   1.683   .     S
O1276  S1294   1.503   .     D
O1277  S1294   1.503   .     D
O1278  S1294   1.682   .     S
O1279  S1295   1.501   .     D
O1280  S1295   1.503   .     D
O1281  S1295   1.682   .     S
O1282  S1296   1.502   .     D
O1283  S1296   1.502   .     D
O1285  S1296   1.683   .     S
O1292  S1293   1.503   .     D
C1297  C1300   1.472   .     S
C1297  O1327   1.297   .     A
C1297  O1340   1.298   .     A
C1298  C1300   1.422   .     A
C1298  S1350   1.781   .     S
C1299  C1305   1.458   .     S
C1299  C1312   1.411   .     A
C1299  C1311   1.412   .     A
C1300  C1310   1.420   .     A
C1301  N1326   1.367   .     A
C1301  H1318   1.079   .     S
C1302  H1319   1.081   .     S
C1302  N1325   1.367   .     A
C1302  C332    1.415   1_556 S
C1303  N1325   1.367   .     A
C1303  H1320   1.080   .     S
C1303  C329    1.415   1_556 S
C1304  H1321   1.080   .     S
C1304  N1326   1.368   .     A
C1305  O1341   1.293   .     A
C1305  O1338   1.294   .     A
C1306  O1342   1.287   .     A
C1306  O1344   1.289   .     A
C1306  C1308   1.433   .     S
C1307  O1343   1.287   .     A
C1307  C1309   1.433   .     S
C1307  O1345   1.289   .     A
C1308  C1417   1.335   1_455 S
C1308  H1423   1.087   1_455 S
C1309  C1362   1.335   .     S
C1309  H1371   1.087   .     S
C1310  S1347   1.780   .     S
C1311  S1348   1.785   .     S
C1311  C974    1.395   1_565 S
C1312  S1349   1.782   .     S
C1312  C986    1.392   1_565 S
Cu1313 N1325   2.016   .     S
Cu1313 Cu1314  2.682   .     S
Cu1313 O1342   1.955   .     S
Cu1313 O1341   1.981   .     S
Cu1313 O1327   1.982   .     S
Cu1313 O1345   1.957   .     S
Cu1314 O1340   1.981   .     S
Cu1314 O1343   1.955   .     S
Cu1314 O1338   1.982   .     S
Cu1314 N1326   2.016   .     S
Cu1314 O1344   1.957   .     S
H1315  C1362   1.087   .     S
H1316  O1339   0.991   .     S
H1317  C1417   1.087   1_455 S
H1322  O1329   0.991   .     S
H1323  O1332   0.991   .     S
H1324  O1335   0.991   .     S
O1328  S1347   1.503   .     D
O1329  S1347   1.683   .     S
O1330  S1348   1.503   .     D
O1331  S1348   1.503   .     D
O1332  S1348   1.682   .     S
O1333  S1349   1.501   .     D
O1334  S1349   1.503   .     D
O1335  S1349   1.682   .     S
O1336  S1350   1.502   .     D
O1337  S1350   1.502   .     D
O1339  S1350   1.683   .     S
O1346  S1347   1.503   .     D
C1351  C1354   1.472   .     S
C1351  O1381   1.297   .     A
C1351  O1394   1.298   .     A
C1352  C1354   1.422   .     A
C1352  S1404   1.781   .     S
C1353  C1359   1.458   .     S
C1353  C1366   1.411   .     A
C1353  C1365   1.412   .     A
C1354  C1364   1.420   .     A
C1355  N1380   1.367   .     A
C1355  H1372   1.079   .     S
C1356  H1373   1.081   .     S
C1356  N1379   1.367   .     A
C1356  C386    1.415   1_556 S
C1357  N1379   1.367   .     A
C1357  H1374   1.080   .     S
C1357  C383    1.415   1_556 S
C1358  H1375   1.080   .     S
C1358  N1380   1.368   .     A
C1359  O1395   1.293   .     A
C1359  O1392   1.294   .     A
C1360  O1396   1.287   .     A
C1360  O1398   1.289   .     A
C1360  C1362   1.433   .     S
C1361  O1397   1.287   .     A
C1361  C1363   1.433   .     S
C1361  O1399   1.289   .     A
C1363  C1416   1.335   .     S
C1363  H1425   1.087   .     S
C1364  S1401   1.780   .     S
C1365  S1402   1.785   .     S
C1365  C1028   1.395   1_565 S
C1366  S1403   1.782   .     S
C1366  C1040   1.392   1_565 S
Cu1367 N1379   2.016   .     S
Cu1367 Cu1368  2.682   .     S
Cu1367 O1396   1.955   .     S
Cu1367 O1395   1.981   .     S
Cu1367 O1381   1.982   .     S
Cu1367 O1399   1.957   .     S
Cu1368 O1394   1.981   .     S
Cu1368 O1397   1.955   .     S
Cu1368 O1392   1.982   .     S
Cu1368 N1380   2.016   .     S
Cu1368 O1398   1.957   .     S
H1369  C1416   1.087   .     S
H1370  O1393   0.991   .     S
H1376  O1383   0.991   .     S
H1377  O1386   0.991   .     S
H1378  O1389   0.991   .     S
O1382  S1401   1.503   .     D
O1383  S1401   1.683   .     S
O1384  S1402   1.503   .     D
O1385  S1402   1.503   .     D
O1386  S1402   1.682   .     S
O1387  S1403   1.501   .     D
O1388  S1403   1.503   .     D
O1389  S1403   1.682   .     S
O1390  S1404   1.502   .     D
O1391  S1404   1.502   .     D
O1393  S1404   1.683   .     S
O1400  S1401   1.503   .     D
C1405  C1408   1.472   .     S
C1405  O1435   1.297   .     A
C1405  O1448   1.298   .     A
C1406  C1408   1.422   .     A
C1406  S1458   1.781   .     S
C1407  C1413   1.458   .     S
C1407  C1420   1.411   .     A
C1407  C1419   1.412   .     A
C1408  C1418   1.420   .     A
C1409  N1434   1.367   .     A
C1409  H1426   1.079   .     S
C1410  H1427   1.081   .     S
C1410  N1433   1.367   .     A
C1410  C440    1.415   1_556 S
C1411  N1433   1.367   .     A
C1411  H1428   1.080   .     S
C1411  C437    1.415   1_556 S
C1412  H1429   1.080   .     S
C1412  N1434   1.368   .     A
C1413  O1449   1.293   .     A
C1413  O1446   1.294   .     A
C1414  O1450   1.287   .     A
C1414  O1452   1.289   .     A
C1414  C1416   1.433   .     S
C1415  O1451   1.287   .     A
C1415  C1417   1.433   .     S
C1415  O1453   1.289   .     A
C1417  C1308   1.335   1_655 S
C1417  H1317   1.087   1_655 S
C1418  S1455   1.780   .     S
C1419  S1456   1.785   .     S
C1419  C1082   1.395   1_565 S
C1420  S1457   1.782   .     S
C1420  C1094   1.392   1_565 S
Cu1421 N1433   2.016   .     S
Cu1421 Cu1422  2.682   .     S
Cu1421 O1450   1.955   .     S
Cu1421 O1449   1.981   .     S
Cu1421 O1435   1.982   .     S
Cu1421 O1453   1.957   .     S
Cu1422 O1448   1.981   .     S
Cu1422 O1451   1.955   .     S
Cu1422 O1446   1.982   .     S
Cu1422 N1434   2.016   .     S
Cu1422 O1452   1.957   .     S
H1423  C1308   1.087   1_655 S
H1424  O1447   0.991   .     S
H1430  O1437   0.991   .     S
H1431  O1440   0.991   .     S
H1432  O1443   0.991   .     S
O1436  S1455   1.503   .     D
O1437  S1455   1.683   .     S
O1438  S1456   1.503   .     D
O1439  S1456   1.503   .     D
O1440  S1456   1.682   .     S
O1441  S1457   1.501   .     D
O1442  S1457   1.503   .     D
O1443  S1457   1.682   .     S
O1444  S1458   1.502   .     D
O1445  S1458   1.502   .     D
O1447  S1458   1.683   .     S
O1454  S1455   1.503   .     D
