data_str_m2_o10_o17_pcu_sym.158
_audit_creation_date              2020-01-03
_audit_creation_method            'Materials Studio'
_symmetry_space_group_name_H-M    'P1'
_symmetry_Int_Tables_number       1
_symmetry_cell_setting            triclinic
loop_
_symmetry_equiv_pos_as_xyz
  x,y,z
_cell_length_a                    29.9017
_cell_length_b                    26.0106
_cell_length_c                    22.5454
_cell_angle_alpha                 103.1850
_cell_angle_beta                  94.6366
_cell_angle_gamma                 93.3144
loop_
_atom_site_label
_atom_site_type_symbol
_atom_site_fract_x
_atom_site_fract_y
_atom_site_fract_z
_atom_site_U_iso_or_equiv
_atom_site_adp_type
_atom_site_occupancy
C1     C     0.24859   0.06661   0.15103   0.00000  Uiso   1.00
C2     C     0.25141   0.26672   0.18230   0.00000  Uiso   1.00
C3     C     0.01476   0.07335   0.11081   0.00000  Uiso   1.00
C4     C     0.48524   0.25999   0.22252   0.00000  Uiso   1.00
C5     C     0.24786   0.01049   0.14241   0.00000  Uiso   1.00
C6     C     0.25214   0.32284   0.19092   0.00000  Uiso   1.00
C7     C     0.16462   0.16646   0.16720   0.00000  Uiso   1.00
C8     C     0.33538   0.16688   0.16613   0.00000  Uiso   1.00
C9     C     0.41041   0.21302   0.19424   0.00000  Uiso   1.00
C10    C     0.08959   0.12031   0.13909   0.00000  Uiso   1.00
C11    C     0.38350   0.16724   0.16496   0.00000  Uiso   1.00
C12    C     0.11650   0.16609   0.16837   0.00000  Uiso   1.00
C13    C     0.40234   0.12159   0.13575   0.00000  Uiso   1.00
C14    C     0.09766   0.21175   0.19758   0.00000  Uiso   1.00
C15    C     0.44891   0.12087   0.13688   0.00000  Uiso   1.00
C16    C     0.05109   0.21246   0.19646   0.00000  Uiso   1.00
C17    C     0.47655   0.16704   0.16621   0.00000  Uiso   1.00
C18    C     0.02345   0.16629   0.16712   0.00000  Uiso   1.00
C19    C     0.45723   0.21387   0.19456   0.00000  Uiso   1.00
C20    C     0.04277   0.11946   0.13877   0.00000  Uiso   1.00
C21    C     0.46815   0.07454   0.10976   0.00000  Uiso   1.00
C22    C     0.03185   0.25880   0.22358   0.00000  Uiso   1.00
Cu23   Cu    0.25501   0.17246   0.22813   0.00000  Uiso   1.00
Cu24   Cu    0.24500   0.16087   0.10521   0.00000  Uiso   1.00
H25    H     0.39431   0.24760   0.21625   0.00000  Uiso   1.00
H26    H     0.10569   0.08574   0.11708   0.00000  Uiso   1.00
H27    H     0.38068   0.08640   0.11354   0.00000  Uiso   1.00
H28    H     0.11932   0.24693   0.21980   0.00000  Uiso   1.00
H29    H     0.44689   0.03896   0.08799   0.00000  Uiso   1.00
H30    H     0.05311   0.29437   0.24534   0.00000  Uiso   1.00
H31    H     0.24380   0.31969   0.09580   0.00000  Uiso   1.00
H32    H     0.25620   0.01364   0.23753   0.00000  Uiso   1.00
N33    N     0.23745   0.15214   0.01284   0.00000  Uiso   1.00
N34    N     0.26256   0.18119   0.32049   0.00000  Uiso   1.00
O35    O     0.25326   0.09538   0.20659   0.00000  Uiso   1.00
O36    O     0.24675   0.23796   0.12674   0.00000  Uiso   1.00
O37    O     0.24480   0.08559   0.10279   0.00000  Uiso   1.00
O38    O     0.25520   0.24774   0.23055   0.00000  Uiso   1.00
O39    O     0.18936   0.17155   0.21857   0.00000  Uiso   1.00
O40    O     0.31065   0.16179   0.11476   0.00000  Uiso   1.00
O41    O     0.18090   0.16176   0.11477   0.00000  Uiso   1.00
O42    O     0.31910   0.17157   0.21857   0.00000  Uiso   1.00
Br43   Br    0.03793   0.00714   0.07464   0.00000  Uiso   1.00
Br44   Br    0.46207   0.32619   0.25870   0.00000  Uiso   1.00
C45    C     0.20503   0.11594   0.30944   0.00000  Uiso   1.00
N46    N     0.17776   0.08548   0.27948   0.00000  Uiso   1.00
C47    C     0.29498   0.21739   0.02389   0.00000  Uiso   1.00
N48    N     0.32224   0.24785   0.05386   0.00000  Uiso   1.00
C49    C     0.74859   0.06661   0.15103   0.00000  Uiso   1.00
C50    C     0.75141   0.26672   0.18230   0.00000  Uiso   1.00
C51    C     0.51476   0.07335   0.11081   0.00000  Uiso   1.00
C52    C     0.98524   0.25999   0.22252   0.00000  Uiso   1.00
C53    C     0.74786   0.01049   0.14241   0.00000  Uiso   1.00
C54    C     0.75214   0.32284   0.19092   0.00000  Uiso   1.00
C55    C     0.66462   0.16646   0.16720   0.00000  Uiso   1.00
C56    C     0.83538   0.16688   0.16613   0.00000  Uiso   1.00
C57    C     0.91041   0.21302   0.19424   0.00000  Uiso   1.00
C58    C     0.58959   0.12031   0.13909   0.00000  Uiso   1.00
C59    C     0.88350   0.16724   0.16496   0.00000  Uiso   1.00
C60    C     0.61650   0.16609   0.16837   0.00000  Uiso   1.00
C61    C     0.90234   0.12159   0.13575   0.00000  Uiso   1.00
C62    C     0.59766   0.21175   0.19758   0.00000  Uiso   1.00
C63    C     0.94891   0.12087   0.13688   0.00000  Uiso   1.00
C64    C     0.55109   0.21246   0.19646   0.00000  Uiso   1.00
C65    C     0.97655   0.16704   0.16621   0.00000  Uiso   1.00
C66    C     0.52345   0.16629   0.16712   0.00000  Uiso   1.00
C67    C     0.95723   0.21387   0.19456   0.00000  Uiso   1.00
C68    C     0.54277   0.11946   0.13877   0.00000  Uiso   1.00
C69    C     0.96815   0.07454   0.10976   0.00000  Uiso   1.00
C70    C     0.53185   0.25880   0.22358   0.00000  Uiso   1.00
Cu71   Cu    0.75501   0.17246   0.22813   0.00000  Uiso   1.00
Cu72   Cu    0.74500   0.16087   0.10521   0.00000  Uiso   1.00
H73    H     0.89431   0.24760   0.21625   0.00000  Uiso   1.00
H74    H     0.60569   0.08574   0.11708   0.00000  Uiso   1.00
H75    H     0.88068   0.08640   0.11354   0.00000  Uiso   1.00
H76    H     0.61932   0.24693   0.21980   0.00000  Uiso   1.00
H77    H     0.94689   0.03896   0.08799   0.00000  Uiso   1.00
H78    H     0.55311   0.29437   0.24534   0.00000  Uiso   1.00
H79    H     0.74380   0.31969   0.09580   0.00000  Uiso   1.00
H80    H     0.75620   0.01364   0.23753   0.00000  Uiso   1.00
N81    N     0.73745   0.15214   0.01284   0.00000  Uiso   1.00
N82    N     0.76256   0.18119   0.32049   0.00000  Uiso   1.00
O83    O     0.75326   0.09538   0.20659   0.00000  Uiso   1.00
O84    O     0.74675   0.23796   0.12674   0.00000  Uiso   1.00
O85    O     0.74480   0.08559   0.10279   0.00000  Uiso   1.00
O86    O     0.75520   0.24774   0.23055   0.00000  Uiso   1.00
O87    O     0.68936   0.17155   0.21857   0.00000  Uiso   1.00
O88    O     0.81065   0.16179   0.11476   0.00000  Uiso   1.00
O89    O     0.68090   0.16176   0.11477   0.00000  Uiso   1.00
O90    O     0.81910   0.17157   0.21857   0.00000  Uiso   1.00
Br91   Br    0.53793   0.00714   0.07464   0.00000  Uiso   1.00
Br92   Br    0.96207   0.32619   0.25870   0.00000  Uiso   1.00
C93    C     0.70503   0.11594   0.30944   0.00000  Uiso   1.00
N94    N     0.67776   0.08548   0.27948   0.00000  Uiso   1.00
C95    C     0.79498   0.21739   0.02389   0.00000  Uiso   1.00
N96    N     0.82224   0.24785   0.05386   0.00000  Uiso   1.00
C97    C     0.24859   0.39994   0.15103   0.00000  Uiso   1.00
C98    C     0.25141   0.60006   0.18230   0.00000  Uiso   1.00
C99    C     0.01476   0.40668   0.11081   0.00000  Uiso   1.00
C100   C     0.48524   0.59332   0.22252   0.00000  Uiso   1.00
C101   C     0.24786   0.34382   0.14241   0.00000  Uiso   1.00
C102   C     0.25214   0.65618   0.19092   0.00000  Uiso   1.00
C103   C     0.16462   0.49979   0.16720   0.00000  Uiso   1.00
C104   C     0.33538   0.50021   0.16613   0.00000  Uiso   1.00
C105   C     0.41041   0.54635   0.19424   0.00000  Uiso   1.00
C106   C     0.08959   0.45365   0.13909   0.00000  Uiso   1.00
C107   C     0.38350   0.50058   0.16496   0.00000  Uiso   1.00
C108   C     0.11650   0.49943   0.16837   0.00000  Uiso   1.00
C109   C     0.40234   0.45492   0.13575   0.00000  Uiso   1.00
C110   C     0.09766   0.54508   0.19758   0.00000  Uiso   1.00
C111   C     0.44891   0.45421   0.13688   0.00000  Uiso   1.00
C112   C     0.05109   0.54579   0.19646   0.00000  Uiso   1.00
C113   C     0.47655   0.50037   0.16621   0.00000  Uiso   1.00
C114   C     0.02345   0.49963   0.16712   0.00000  Uiso   1.00
C115   C     0.45723   0.54721   0.19456   0.00000  Uiso   1.00
C116   C     0.04277   0.45279   0.13877   0.00000  Uiso   1.00
C117   C     0.46815   0.40787   0.10976   0.00000  Uiso   1.00
C118   C     0.03185   0.59213   0.22358   0.00000  Uiso   1.00
Cu119  Cu    0.25501   0.50579   0.22813   0.00000  Uiso   1.00
Cu120  Cu    0.24500   0.49421   0.10521   0.00000  Uiso   1.00
H121   H     0.39431   0.58093   0.21625   0.00000  Uiso   1.00
H122   H     0.10569   0.41907   0.11708   0.00000  Uiso   1.00
H123   H     0.38068   0.41974   0.11354   0.00000  Uiso   1.00
H124   H     0.11932   0.58026   0.21980   0.00000  Uiso   1.00
H125   H     0.44689   0.37230   0.08799   0.00000  Uiso   1.00
H126   H     0.05311   0.62770   0.24534   0.00000  Uiso   1.00
H127   H     0.24380   0.65303   0.09580   0.00000  Uiso   1.00
H128   H     0.25620   0.34697   0.23753   0.00000  Uiso   1.00
N129   N     0.23745   0.48547   0.01284   0.00000  Uiso   1.00
N130   N     0.26256   0.51453   0.32049   0.00000  Uiso   1.00
O131   O     0.25326   0.42871   0.20659   0.00000  Uiso   1.00
O132   O     0.24675   0.57129   0.12674   0.00000  Uiso   1.00
O133   O     0.24480   0.41892   0.10279   0.00000  Uiso   1.00
O134   O     0.25520   0.58108   0.23055   0.00000  Uiso   1.00
O135   O     0.18936   0.50488   0.21857   0.00000  Uiso   1.00
O136   O     0.31065   0.49512   0.11476   0.00000  Uiso   1.00
O137   O     0.18090   0.49510   0.11477   0.00000  Uiso   1.00
O138   O     0.31910   0.50490   0.21857   0.00000  Uiso   1.00
Br139  Br    0.03793   0.34048   0.07464   0.00000  Uiso   1.00
Br140  Br    0.46207   0.65952   0.25870   0.00000  Uiso   1.00
C141   C     0.20503   0.44927   0.30944   0.00000  Uiso   1.00
N142   N     0.17776   0.41882   0.27948   0.00000  Uiso   1.00
C143   C     0.29498   0.55073   0.02389   0.00000  Uiso   1.00
N144   N     0.32224   0.58118   0.05386   0.00000  Uiso   1.00
C145   C     0.74859   0.39994   0.15103   0.00000  Uiso   1.00
C146   C     0.75141   0.60006   0.18230   0.00000  Uiso   1.00
C147   C     0.51476   0.40668   0.11081   0.00000  Uiso   1.00
C148   C     0.98524   0.59332   0.22252   0.00000  Uiso   1.00
C149   C     0.74786   0.34382   0.14241   0.00000  Uiso   1.00
C150   C     0.75214   0.65618   0.19092   0.00000  Uiso   1.00
C151   C     0.66462   0.49979   0.16720   0.00000  Uiso   1.00
C152   C     0.83538   0.50021   0.16613   0.00000  Uiso   1.00
C153   C     0.91041   0.54635   0.19424   0.00000  Uiso   1.00
C154   C     0.58959   0.45365   0.13909   0.00000  Uiso   1.00
C155   C     0.88350   0.50058   0.16496   0.00000  Uiso   1.00
C156   C     0.61650   0.49943   0.16837   0.00000  Uiso   1.00
C157   C     0.90234   0.45492   0.13575   0.00000  Uiso   1.00
C158   C     0.59766   0.54508   0.19758   0.00000  Uiso   1.00
C159   C     0.94891   0.45421   0.13688   0.00000  Uiso   1.00
C160   C     0.55109   0.54579   0.19646   0.00000  Uiso   1.00
C161   C     0.97655   0.50037   0.16621   0.00000  Uiso   1.00
C162   C     0.52345   0.49963   0.16712   0.00000  Uiso   1.00
C163   C     0.95723   0.54721   0.19456   0.00000  Uiso   1.00
C164   C     0.54277   0.45279   0.13877   0.00000  Uiso   1.00
C165   C     0.96815   0.40787   0.10976   0.00000  Uiso   1.00
C166   C     0.53185   0.59213   0.22358   0.00000  Uiso   1.00
Cu167  Cu    0.75501   0.50579   0.22813   0.00000  Uiso   1.00
Cu168  Cu    0.74500   0.49421   0.10521   0.00000  Uiso   1.00
H169   H     0.89431   0.58093   0.21625   0.00000  Uiso   1.00
H170   H     0.60569   0.41907   0.11708   0.00000  Uiso   1.00
H171   H     0.88068   0.41974   0.11354   0.00000  Uiso   1.00
H172   H     0.61932   0.58026   0.21980   0.00000  Uiso   1.00
H173   H     0.94689   0.37230   0.08799   0.00000  Uiso   1.00
H174   H     0.55311   0.62770   0.24534   0.00000  Uiso   1.00
H175   H     0.74380   0.65303   0.09580   0.00000  Uiso   1.00
H176   H     0.75620   0.34697   0.23753   0.00000  Uiso   1.00
N177   N     0.73745   0.48547   0.01284   0.00000  Uiso   1.00
N178   N     0.76256   0.51453   0.32049   0.00000  Uiso   1.00
O179   O     0.75326   0.42871   0.20659   0.00000  Uiso   1.00
O180   O     0.74675   0.57129   0.12674   0.00000  Uiso   1.00
O181   O     0.74480   0.41892   0.10279   0.00000  Uiso   1.00
O182   O     0.75520   0.58108   0.23055   0.00000  Uiso   1.00
O183   O     0.68936   0.50488   0.21857   0.00000  Uiso   1.00
O184   O     0.81065   0.49512   0.11476   0.00000  Uiso   1.00
O185   O     0.68090   0.49510   0.11477   0.00000  Uiso   1.00
O186   O     0.81910   0.50490   0.21857   0.00000  Uiso   1.00
Br187  Br    0.53793   0.34048   0.07464   0.00000  Uiso   1.00
Br188  Br    0.96207   0.65952   0.25870   0.00000  Uiso   1.00
C189   C     0.70503   0.44927   0.30944   0.00000  Uiso   1.00
N190   N     0.67776   0.41882   0.27948   0.00000  Uiso   1.00
C191   C     0.79498   0.55073   0.02389   0.00000  Uiso   1.00
N192   N     0.82224   0.58118   0.05386   0.00000  Uiso   1.00
C193   C     0.24859   0.73328   0.15103   0.00000  Uiso   1.00
C194   C     0.25141   0.93339   0.18230   0.00000  Uiso   1.00
C195   C     0.01476   0.74001   0.11081   0.00000  Uiso   1.00
C196   C     0.48524   0.92665   0.22252   0.00000  Uiso   1.00
C197   C     0.24786   0.67716   0.14241   0.00000  Uiso   1.00
C198   C     0.25214   0.98951   0.19092   0.00000  Uiso   1.00
C199   C     0.16462   0.83312   0.16720   0.00000  Uiso   1.00
C200   C     0.33538   0.83354   0.16613   0.00000  Uiso   1.00
C201   C     0.41041   0.87969   0.19424   0.00000  Uiso   1.00
C202   C     0.08959   0.78698   0.13909   0.00000  Uiso   1.00
C203   C     0.38350   0.83391   0.16496   0.00000  Uiso   1.00
C204   C     0.11650   0.83276   0.16837   0.00000  Uiso   1.00
C205   C     0.40234   0.78825   0.13575   0.00000  Uiso   1.00
C206   C     0.09766   0.87841   0.19758   0.00000  Uiso   1.00
C207   C     0.44891   0.78754   0.13688   0.00000  Uiso   1.00
C208   C     0.05109   0.87913   0.19646   0.00000  Uiso   1.00
C209   C     0.47655   0.83371   0.16621   0.00000  Uiso   1.00
C210   C     0.02345   0.83296   0.16712   0.00000  Uiso   1.00
C211   C     0.45723   0.88054   0.19456   0.00000  Uiso   1.00
C212   C     0.04277   0.78613   0.13877   0.00000  Uiso   1.00
C213   C     0.46815   0.74120   0.10976   0.00000  Uiso   1.00
C214   C     0.03185   0.92547   0.22358   0.00000  Uiso   1.00
Cu215  Cu    0.25501   0.83913   0.22813   0.00000  Uiso   1.00
Cu216  Cu    0.24500   0.82754   0.10521   0.00000  Uiso   1.00
H217   H     0.39431   0.91426   0.21625   0.00000  Uiso   1.00
H218   H     0.10569   0.75240   0.11708   0.00000  Uiso   1.00
H219   H     0.38068   0.75307   0.11354   0.00000  Uiso   1.00
H220   H     0.11932   0.91360   0.21980   0.00000  Uiso   1.00
H221   H     0.44689   0.70563   0.08799   0.00000  Uiso   1.00
H222   H     0.05311   0.96104   0.24534   0.00000  Uiso   1.00
H223   H     0.24380   0.98636   0.09580   0.00000  Uiso   1.00
H224   H     0.25620   0.68031   0.23753   0.00000  Uiso   1.00
N225   N     0.23745   0.81881   0.01284   0.00000  Uiso   1.00
N226   N     0.26256   0.84786   0.32049   0.00000  Uiso   1.00
O227   O     0.25326   0.76204   0.20659   0.00000  Uiso   1.00
O228   O     0.24675   0.90462   0.12674   0.00000  Uiso   1.00
O229   O     0.24480   0.75226   0.10279   0.00000  Uiso   1.00
O230   O     0.25520   0.91441   0.23055   0.00000  Uiso   1.00
O231   O     0.18936   0.83821   0.21857   0.00000  Uiso   1.00
O232   O     0.31065   0.82845   0.11476   0.00000  Uiso   1.00
O233   O     0.18090   0.82843   0.11477   0.00000  Uiso   1.00
O234   O     0.31910   0.83824   0.21857   0.00000  Uiso   1.00
Br235  Br    0.03793   0.67381   0.07464   0.00000  Uiso   1.00
Br236  Br    0.46207   0.99286   0.25870   0.00000  Uiso   1.00
C237   C     0.20503   0.78261   0.30944   0.00000  Uiso   1.00
N238   N     0.17776   0.75215   0.27948   0.00000  Uiso   1.00
C239   C     0.29498   0.88406   0.02389   0.00000  Uiso   1.00
N240   N     0.32224   0.91452   0.05386   0.00000  Uiso   1.00
C241   C     0.74859   0.73328   0.15103   0.00000  Uiso   1.00
C242   C     0.75141   0.93339   0.18230   0.00000  Uiso   1.00
C243   C     0.51476   0.74001   0.11081   0.00000  Uiso   1.00
C244   C     0.98524   0.92665   0.22252   0.00000  Uiso   1.00
C245   C     0.74786   0.67716   0.14241   0.00000  Uiso   1.00
C246   C     0.75214   0.98951   0.19092   0.00000  Uiso   1.00
C247   C     0.66462   0.83312   0.16720   0.00000  Uiso   1.00
C248   C     0.83538   0.83354   0.16613   0.00000  Uiso   1.00
C249   C     0.91041   0.87969   0.19424   0.00000  Uiso   1.00
C250   C     0.58959   0.78698   0.13909   0.00000  Uiso   1.00
C251   C     0.88350   0.83391   0.16496   0.00000  Uiso   1.00
C252   C     0.61650   0.83276   0.16837   0.00000  Uiso   1.00
C253   C     0.90234   0.78825   0.13575   0.00000  Uiso   1.00
C254   C     0.59766   0.87841   0.19758   0.00000  Uiso   1.00
C255   C     0.94891   0.78754   0.13688   0.00000  Uiso   1.00
C256   C     0.55109   0.87913   0.19646   0.00000  Uiso   1.00
C257   C     0.97655   0.83371   0.16621   0.00000  Uiso   1.00
C258   C     0.52345   0.83296   0.16712   0.00000  Uiso   1.00
C259   C     0.95723   0.88054   0.19456   0.00000  Uiso   1.00
C260   C     0.54277   0.78613   0.13877   0.00000  Uiso   1.00
C261   C     0.96815   0.74120   0.10976   0.00000  Uiso   1.00
C262   C     0.53185   0.92547   0.22358   0.00000  Uiso   1.00
Cu263  Cu    0.75501   0.83913   0.22813   0.00000  Uiso   1.00
Cu264  Cu    0.74500   0.82754   0.10521   0.00000  Uiso   1.00
H265   H     0.89431   0.91426   0.21625   0.00000  Uiso   1.00
H266   H     0.60569   0.75240   0.11708   0.00000  Uiso   1.00
H267   H     0.88068   0.75307   0.11354   0.00000  Uiso   1.00
H268   H     0.61932   0.91360   0.21980   0.00000  Uiso   1.00
H269   H     0.94689   0.70563   0.08799   0.00000  Uiso   1.00
H270   H     0.55311   0.96104   0.24534   0.00000  Uiso   1.00
H271   H     0.74380   0.98636   0.09580   0.00000  Uiso   1.00
H272   H     0.75620   0.68031   0.23753   0.00000  Uiso   1.00
N273   N     0.73745   0.81881   0.01284   0.00000  Uiso   1.00
N274   N     0.76256   0.84786   0.32049   0.00000  Uiso   1.00
O275   O     0.75326   0.76204   0.20659   0.00000  Uiso   1.00
O276   O     0.74675   0.90462   0.12674   0.00000  Uiso   1.00
O277   O     0.74480   0.75226   0.10279   0.00000  Uiso   1.00
O278   O     0.75520   0.91441   0.23055   0.00000  Uiso   1.00
O279   O     0.68936   0.83821   0.21857   0.00000  Uiso   1.00
O280   O     0.81065   0.82845   0.11476   0.00000  Uiso   1.00
O281   O     0.68090   0.82843   0.11477   0.00000  Uiso   1.00
O282   O     0.81910   0.83824   0.21857   0.00000  Uiso   1.00
Br283  Br    0.53793   0.67381   0.07464   0.00000  Uiso   1.00
Br284  Br    0.96207   0.99286   0.25870   0.00000  Uiso   1.00
C285   C     0.70503   0.78261   0.30944   0.00000  Uiso   1.00
N286   N     0.67776   0.75215   0.27948   0.00000  Uiso   1.00
C287   C     0.79498   0.88406   0.02389   0.00000  Uiso   1.00
N288   N     0.82224   0.91452   0.05386   0.00000  Uiso   1.00
C289   C     0.24859   0.06661   0.48437   0.00000  Uiso   1.00
C290   C     0.25141   0.26672   0.51563   0.00000  Uiso   1.00
C291   C     0.01476   0.07335   0.44414   0.00000  Uiso   1.00
C292   C     0.48524   0.25999   0.55586   0.00000  Uiso   1.00
C293   C     0.24786   0.01049   0.47574   0.00000  Uiso   1.00
C294   C     0.25214   0.32284   0.52426   0.00000  Uiso   1.00
C295   C     0.16462   0.16646   0.50054   0.00000  Uiso   1.00
C296   C     0.33538   0.16688   0.49946   0.00000  Uiso   1.00
C297   C     0.41041   0.21302   0.52757   0.00000  Uiso   1.00
C298   C     0.08959   0.12031   0.47243   0.00000  Uiso   1.00
C299   C     0.38350   0.16724   0.49829   0.00000  Uiso   1.00
C300   C     0.11650   0.16609   0.50171   0.00000  Uiso   1.00
C301   C     0.40234   0.12159   0.46908   0.00000  Uiso   1.00
C302   C     0.09766   0.21175   0.53092   0.00000  Uiso   1.00
C303   C     0.44891   0.12087   0.47021   0.00000  Uiso   1.00
C304   C     0.05109   0.21246   0.52979   0.00000  Uiso   1.00
C305   C     0.47655   0.16704   0.49955   0.00000  Uiso   1.00
C306   C     0.02345   0.16629   0.50045   0.00000  Uiso   1.00
C307   C     0.45723   0.21387   0.52790   0.00000  Uiso   1.00
C308   C     0.04277   0.11946   0.47210   0.00000  Uiso   1.00
C309   C     0.46815   0.07454   0.44309   0.00000  Uiso   1.00
C310   C     0.03185   0.25880   0.55691   0.00000  Uiso   1.00
Cu311  Cu    0.25501   0.17246   0.56146   0.00000  Uiso   1.00
Cu312  Cu    0.24500   0.16087   0.43854   0.00000  Uiso   1.00
H313   H     0.39431   0.24760   0.54958   0.00000  Uiso   1.00
H314   H     0.10569   0.08574   0.45042   0.00000  Uiso   1.00
H315   H     0.38068   0.08640   0.44687   0.00000  Uiso   1.00
H316   H     0.11932   0.24693   0.55313   0.00000  Uiso   1.00
H317   H     0.44689   0.03896   0.42133   0.00000  Uiso   1.00
H318   H     0.05311   0.29437   0.57867   0.00000  Uiso   1.00
H319   H     0.24380   0.31969   0.42913   0.00000  Uiso   1.00
H320   H     0.25620   0.01364   0.57087   0.00000  Uiso   1.00
N321   N     0.23745   0.15214   0.34617   0.00000  Uiso   1.00
N322   N     0.26256   0.18119   0.65383   0.00000  Uiso   1.00
O323   O     0.25326   0.09538   0.53992   0.00000  Uiso   1.00
O324   O     0.24675   0.23796   0.46008   0.00000  Uiso   1.00
O325   O     0.24480   0.08559   0.43612   0.00000  Uiso   1.00
O326   O     0.25520   0.24774   0.56388   0.00000  Uiso   1.00
O327   O     0.18936   0.17155   0.55191   0.00000  Uiso   1.00
O328   O     0.31065   0.16179   0.44809   0.00000  Uiso   1.00
O329   O     0.18090   0.16176   0.44810   0.00000  Uiso   1.00
O330   O     0.31910   0.17157   0.55190   0.00000  Uiso   1.00
Br331  Br    0.03793   0.00714   0.40797   0.00000  Uiso   1.00
Br332  Br    0.46207   0.32619   0.59203   0.00000  Uiso   1.00
C333   C     0.20503   0.11594   0.64278   0.00000  Uiso   1.00
N334   N     0.17776   0.08548   0.61281   0.00000  Uiso   1.00
C335   C     0.29498   0.21739   0.35722   0.00000  Uiso   1.00
N336   N     0.32224   0.24785   0.38719   0.00000  Uiso   1.00
C337   C     0.74859   0.06661   0.48437   0.00000  Uiso   1.00
C338   C     0.75141   0.26672   0.51563   0.00000  Uiso   1.00
C339   C     0.51476   0.07335   0.44414   0.00000  Uiso   1.00
C340   C     0.98524   0.25999   0.55586   0.00000  Uiso   1.00
C341   C     0.74786   0.01049   0.47574   0.00000  Uiso   1.00
C342   C     0.75214   0.32284   0.52426   0.00000  Uiso   1.00
C343   C     0.66462   0.16646   0.50054   0.00000  Uiso   1.00
C344   C     0.83538   0.16688   0.49946   0.00000  Uiso   1.00
C345   C     0.91041   0.21302   0.52757   0.00000  Uiso   1.00
C346   C     0.58959   0.12031   0.47243   0.00000  Uiso   1.00
C347   C     0.88350   0.16724   0.49829   0.00000  Uiso   1.00
C348   C     0.61650   0.16609   0.50171   0.00000  Uiso   1.00
C349   C     0.90234   0.12159   0.46908   0.00000  Uiso   1.00
C350   C     0.59766   0.21175   0.53092   0.00000  Uiso   1.00
C351   C     0.94891   0.12087   0.47021   0.00000  Uiso   1.00
C352   C     0.55109   0.21246   0.52979   0.00000  Uiso   1.00
C353   C     0.97655   0.16704   0.49955   0.00000  Uiso   1.00
C354   C     0.52345   0.16629   0.50045   0.00000  Uiso   1.00
C355   C     0.95723   0.21387   0.52790   0.00000  Uiso   1.00
C356   C     0.54277   0.11946   0.47210   0.00000  Uiso   1.00
C357   C     0.96815   0.07454   0.44309   0.00000  Uiso   1.00
C358   C     0.53185   0.25880   0.55691   0.00000  Uiso   1.00
Cu359  Cu    0.75501   0.17246   0.56146   0.00000  Uiso   1.00
Cu360  Cu    0.74500   0.16087   0.43854   0.00000  Uiso   1.00
H361   H     0.89431   0.24760   0.54958   0.00000  Uiso   1.00
H362   H     0.60569   0.08574   0.45042   0.00000  Uiso   1.00
H363   H     0.88068   0.08640   0.44687   0.00000  Uiso   1.00
H364   H     0.61932   0.24693   0.55313   0.00000  Uiso   1.00
H365   H     0.94689   0.03896   0.42133   0.00000  Uiso   1.00
H366   H     0.55311   0.29437   0.57867   0.00000  Uiso   1.00
H367   H     0.74380   0.31969   0.42913   0.00000  Uiso   1.00
H368   H     0.75620   0.01364   0.57087   0.00000  Uiso   1.00
N369   N     0.73745   0.15214   0.34617   0.00000  Uiso   1.00
N370   N     0.76256   0.18119   0.65383   0.00000  Uiso   1.00
O371   O     0.75326   0.09538   0.53992   0.00000  Uiso   1.00
O372   O     0.74675   0.23796   0.46008   0.00000  Uiso   1.00
O373   O     0.74480   0.08559   0.43612   0.00000  Uiso   1.00
O374   O     0.75520   0.24774   0.56388   0.00000  Uiso   1.00
O375   O     0.68936   0.17155   0.55191   0.00000  Uiso   1.00
O376   O     0.81065   0.16179   0.44809   0.00000  Uiso   1.00
O377   O     0.68090   0.16176   0.44810   0.00000  Uiso   1.00
O378   O     0.81910   0.17157   0.55190   0.00000  Uiso   1.00
Br379  Br    0.53793   0.00714   0.40797   0.00000  Uiso   1.00
Br380  Br    0.96207   0.32619   0.59203   0.00000  Uiso   1.00
C381   C     0.70503   0.11594   0.64278   0.00000  Uiso   1.00
N382   N     0.67776   0.08548   0.61281   0.00000  Uiso   1.00
C383   C     0.79498   0.21739   0.35722   0.00000  Uiso   1.00
N384   N     0.82224   0.24785   0.38719   0.00000  Uiso   1.00
C385   C     0.24859   0.39994   0.48437   0.00000  Uiso   1.00
C386   C     0.25141   0.60006   0.51563   0.00000  Uiso   1.00
C387   C     0.01476   0.40668   0.44414   0.00000  Uiso   1.00
C388   C     0.48524   0.59332   0.55586   0.00000  Uiso   1.00
C389   C     0.24786   0.34382   0.47574   0.00000  Uiso   1.00
C390   C     0.25214   0.65618   0.52426   0.00000  Uiso   1.00
C391   C     0.16462   0.49979   0.50054   0.00000  Uiso   1.00
C392   C     0.33538   0.50021   0.49946   0.00000  Uiso   1.00
C393   C     0.41041   0.54635   0.52757   0.00000  Uiso   1.00
C394   C     0.08959   0.45365   0.47243   0.00000  Uiso   1.00
C395   C     0.38350   0.50058   0.49829   0.00000  Uiso   1.00
C396   C     0.11650   0.49943   0.50171   0.00000  Uiso   1.00
C397   C     0.40234   0.45492   0.46908   0.00000  Uiso   1.00
C398   C     0.09766   0.54508   0.53092   0.00000  Uiso   1.00
C399   C     0.44891   0.45421   0.47021   0.00000  Uiso   1.00
C400   C     0.05109   0.54579   0.52979   0.00000  Uiso   1.00
C401   C     0.47655   0.50037   0.49955   0.00000  Uiso   1.00
C402   C     0.02345   0.49963   0.50045   0.00000  Uiso   1.00
C403   C     0.45723   0.54721   0.52790   0.00000  Uiso   1.00
C404   C     0.04277   0.45279   0.47210   0.00000  Uiso   1.00
C405   C     0.46815   0.40787   0.44309   0.00000  Uiso   1.00
C406   C     0.03185   0.59213   0.55691   0.00000  Uiso   1.00
Cu407  Cu    0.25501   0.50579   0.56146   0.00000  Uiso   1.00
Cu408  Cu    0.24500   0.49421   0.43854   0.00000  Uiso   1.00
H409   H     0.39431   0.58093   0.54958   0.00000  Uiso   1.00
H410   H     0.10569   0.41907   0.45042   0.00000  Uiso   1.00
H411   H     0.38068   0.41974   0.44687   0.00000  Uiso   1.00
H412   H     0.11932   0.58026   0.55313   0.00000  Uiso   1.00
H413   H     0.44689   0.37230   0.42133   0.00000  Uiso   1.00
H414   H     0.05311   0.62770   0.57867   0.00000  Uiso   1.00
H415   H     0.24380   0.65303   0.42913   0.00000  Uiso   1.00
H416   H     0.25620   0.34697   0.57087   0.00000  Uiso   1.00
N417   N     0.23745   0.48547   0.34617   0.00000  Uiso   1.00
N418   N     0.26256   0.51453   0.65383   0.00000  Uiso   1.00
O419   O     0.25326   0.42871   0.53992   0.00000  Uiso   1.00
O420   O     0.24675   0.57129   0.46008   0.00000  Uiso   1.00
O421   O     0.24480   0.41892   0.43612   0.00000  Uiso   1.00
O422   O     0.25520   0.58108   0.56388   0.00000  Uiso   1.00
O423   O     0.18936   0.50488   0.55191   0.00000  Uiso   1.00
O424   O     0.31065   0.49512   0.44809   0.00000  Uiso   1.00
O425   O     0.18090   0.49510   0.44810   0.00000  Uiso   1.00
O426   O     0.31910   0.50490   0.55190   0.00000  Uiso   1.00
Br427  Br    0.03793   0.34048   0.40797   0.00000  Uiso   1.00
Br428  Br    0.46207   0.65952   0.59203   0.00000  Uiso   1.00
C429   C     0.20503   0.44927   0.64278   0.00000  Uiso   1.00
N430   N     0.17776   0.41882   0.61281   0.00000  Uiso   1.00
C431   C     0.29498   0.55073   0.35722   0.00000  Uiso   1.00
N432   N     0.32224   0.58118   0.38719   0.00000  Uiso   1.00
C433   C     0.74859   0.39994   0.48437   0.00000  Uiso   1.00
C434   C     0.75141   0.60006   0.51563   0.00000  Uiso   1.00
C435   C     0.51476   0.40668   0.44414   0.00000  Uiso   1.00
C436   C     0.98524   0.59332   0.55586   0.00000  Uiso   1.00
C437   C     0.74786   0.34382   0.47574   0.00000  Uiso   1.00
C438   C     0.75214   0.65618   0.52426   0.00000  Uiso   1.00
C439   C     0.66462   0.49979   0.50054   0.00000  Uiso   1.00
C440   C     0.83538   0.50021   0.49946   0.00000  Uiso   1.00
C441   C     0.91041   0.54635   0.52757   0.00000  Uiso   1.00
C442   C     0.58959   0.45365   0.47243   0.00000  Uiso   1.00
C443   C     0.88350   0.50058   0.49829   0.00000  Uiso   1.00
C444   C     0.61650   0.49943   0.50171   0.00000  Uiso   1.00
C445   C     0.90234   0.45492   0.46908   0.00000  Uiso   1.00
C446   C     0.59766   0.54508   0.53092   0.00000  Uiso   1.00
C447   C     0.94891   0.45421   0.47021   0.00000  Uiso   1.00
C448   C     0.55109   0.54579   0.52979   0.00000  Uiso   1.00
C449   C     0.97655   0.50037   0.49955   0.00000  Uiso   1.00
C450   C     0.52345   0.49963   0.50045   0.00000  Uiso   1.00
C451   C     0.95723   0.54721   0.52790   0.00000  Uiso   1.00
C452   C     0.54277   0.45279   0.47210   0.00000  Uiso   1.00
C453   C     0.96815   0.40787   0.44309   0.00000  Uiso   1.00
C454   C     0.53185   0.59213   0.55691   0.00000  Uiso   1.00
Cu455  Cu    0.75501   0.50579   0.56146   0.00000  Uiso   1.00
Cu456  Cu    0.74500   0.49421   0.43854   0.00000  Uiso   1.00
H457   H     0.89431   0.58093   0.54958   0.00000  Uiso   1.00
H458   H     0.60569   0.41907   0.45042   0.00000  Uiso   1.00
H459   H     0.88068   0.41974   0.44687   0.00000  Uiso   1.00
H460   H     0.61932   0.58026   0.55313   0.00000  Uiso   1.00
H461   H     0.94689   0.37230   0.42133   0.00000  Uiso   1.00
H462   H     0.55311   0.62770   0.57867   0.00000  Uiso   1.00
H463   H     0.74380   0.65303   0.42913   0.00000  Uiso   1.00
H464   H     0.75620   0.34697   0.57087   0.00000  Uiso   1.00
N465   N     0.73745   0.48547   0.34617   0.00000  Uiso   1.00
N466   N     0.76256   0.51453   0.65383   0.00000  Uiso   1.00
O467   O     0.75326   0.42871   0.53992   0.00000  Uiso   1.00
O468   O     0.74675   0.57129   0.46008   0.00000  Uiso   1.00
O469   O     0.74480   0.41892   0.43612   0.00000  Uiso   1.00
O470   O     0.75520   0.58108   0.56388   0.00000  Uiso   1.00
O471   O     0.68936   0.50488   0.55191   0.00000  Uiso   1.00
O472   O     0.81065   0.49512   0.44809   0.00000  Uiso   1.00
O473   O     0.68090   0.49510   0.44810   0.00000  Uiso   1.00
O474   O     0.81910   0.50490   0.55190   0.00000  Uiso   1.00
Br475  Br    0.53793   0.34048   0.40797   0.00000  Uiso   1.00
Br476  Br    0.96207   0.65952   0.59203   0.00000  Uiso   1.00
C477   C     0.70503   0.44927   0.64278   0.00000  Uiso   1.00
N478   N     0.67776   0.41882   0.61281   0.00000  Uiso   1.00
C479   C     0.79498   0.55073   0.35722   0.00000  Uiso   1.00
N480   N     0.82224   0.58118   0.38719   0.00000  Uiso   1.00
C481   C     0.24859   0.73328   0.48437   0.00000  Uiso   1.00
C482   C     0.25141   0.93339   0.51563   0.00000  Uiso   1.00
C483   C     0.01476   0.74001   0.44414   0.00000  Uiso   1.00
C484   C     0.48524   0.92665   0.55586   0.00000  Uiso   1.00
C485   C     0.24786   0.67716   0.47574   0.00000  Uiso   1.00
C486   C     0.25214   0.98951   0.52426   0.00000  Uiso   1.00
C487   C     0.16462   0.83312   0.50054   0.00000  Uiso   1.00
C488   C     0.33538   0.83354   0.49946   0.00000  Uiso   1.00
C489   C     0.41041   0.87969   0.52757   0.00000  Uiso   1.00
C490   C     0.08959   0.78698   0.47243   0.00000  Uiso   1.00
C491   C     0.38350   0.83391   0.49829   0.00000  Uiso   1.00
C492   C     0.11650   0.83276   0.50171   0.00000  Uiso   1.00
C493   C     0.40234   0.78825   0.46908   0.00000  Uiso   1.00
C494   C     0.09766   0.87841   0.53092   0.00000  Uiso   1.00
C495   C     0.44891   0.78754   0.47021   0.00000  Uiso   1.00
C496   C     0.05109   0.87913   0.52979   0.00000  Uiso   1.00
C497   C     0.47655   0.83371   0.49955   0.00000  Uiso   1.00
C498   C     0.02345   0.83296   0.50045   0.00000  Uiso   1.00
C499   C     0.45723   0.88054   0.52790   0.00000  Uiso   1.00
C500   C     0.04277   0.78613   0.47210   0.00000  Uiso   1.00
C501   C     0.46815   0.74120   0.44309   0.00000  Uiso   1.00
C502   C     0.03185   0.92547   0.55691   0.00000  Uiso   1.00
Cu503  Cu    0.25501   0.83913   0.56146   0.00000  Uiso   1.00
Cu504  Cu    0.24500   0.82754   0.43854   0.00000  Uiso   1.00
H505   H     0.39431   0.91426   0.54958   0.00000  Uiso   1.00
H506   H     0.10569   0.75240   0.45042   0.00000  Uiso   1.00
H507   H     0.38068   0.75307   0.44687   0.00000  Uiso   1.00
H508   H     0.11932   0.91360   0.55313   0.00000  Uiso   1.00
H509   H     0.44689   0.70563   0.42133   0.00000  Uiso   1.00
H510   H     0.05311   0.96104   0.57867   0.00000  Uiso   1.00
H511   H     0.24380   0.98636   0.42913   0.00000  Uiso   1.00
H512   H     0.25620   0.68031   0.57087   0.00000  Uiso   1.00
N513   N     0.23745   0.81881   0.34617   0.00000  Uiso   1.00
N514   N     0.26256   0.84786   0.65383   0.00000  Uiso   1.00
O515   O     0.25326   0.76204   0.53992   0.00000  Uiso   1.00
O516   O     0.24675   0.90462   0.46008   0.00000  Uiso   1.00
O517   O     0.24480   0.75226   0.43612   0.00000  Uiso   1.00
O518   O     0.25520   0.91441   0.56388   0.00000  Uiso   1.00
O519   O     0.18936   0.83821   0.55191   0.00000  Uiso   1.00
O520   O     0.31065   0.82845   0.44809   0.00000  Uiso   1.00
O521   O     0.18090   0.82843   0.44810   0.00000  Uiso   1.00
O522   O     0.31910   0.83824   0.55190   0.00000  Uiso   1.00
Br523  Br    0.03793   0.67381   0.40797   0.00000  Uiso   1.00
Br524  Br    0.46207   0.99286   0.59203   0.00000  Uiso   1.00
C525   C     0.20503   0.78261   0.64278   0.00000  Uiso   1.00
N526   N     0.17776   0.75215   0.61281   0.00000  Uiso   1.00
C527   C     0.29498   0.88406   0.35722   0.00000  Uiso   1.00
N528   N     0.32224   0.91452   0.38719   0.00000  Uiso   1.00
C529   C     0.74859   0.73328   0.48437   0.00000  Uiso   1.00
C530   C     0.75141   0.93339   0.51563   0.00000  Uiso   1.00
C531   C     0.51476   0.74001   0.44414   0.00000  Uiso   1.00
C532   C     0.98524   0.92665   0.55586   0.00000  Uiso   1.00
C533   C     0.74786   0.67716   0.47574   0.00000  Uiso   1.00
C534   C     0.75214   0.98951   0.52426   0.00000  Uiso   1.00
C535   C     0.66462   0.83312   0.50054   0.00000  Uiso   1.00
C536   C     0.83538   0.83354   0.49946   0.00000  Uiso   1.00
C537   C     0.91041   0.87969   0.52757   0.00000  Uiso   1.00
C538   C     0.58959   0.78698   0.47243   0.00000  Uiso   1.00
C539   C     0.88350   0.83391   0.49829   0.00000  Uiso   1.00
C540   C     0.61650   0.83276   0.50171   0.00000  Uiso   1.00
C541   C     0.90234   0.78825   0.46908   0.00000  Uiso   1.00
C542   C     0.59766   0.87841   0.53092   0.00000  Uiso   1.00
C543   C     0.94891   0.78754   0.47021   0.00000  Uiso   1.00
C544   C     0.55109   0.87913   0.52979   0.00000  Uiso   1.00
C545   C     0.97655   0.83371   0.49955   0.00000  Uiso   1.00
C546   C     0.52345   0.83296   0.50045   0.00000  Uiso   1.00
C547   C     0.95723   0.88054   0.52790   0.00000  Uiso   1.00
C548   C     0.54277   0.78613   0.47210   0.00000  Uiso   1.00
C549   C     0.96815   0.74120   0.44309   0.00000  Uiso   1.00
C550   C     0.53185   0.92547   0.55691   0.00000  Uiso   1.00
Cu551  Cu    0.75501   0.83913   0.56146   0.00000  Uiso   1.00
Cu552  Cu    0.74500   0.82754   0.43854   0.00000  Uiso   1.00
H553   H     0.89431   0.91426   0.54958   0.00000  Uiso   1.00
H554   H     0.60569   0.75240   0.45042   0.00000  Uiso   1.00
H555   H     0.88068   0.75307   0.44687   0.00000  Uiso   1.00
H556   H     0.61932   0.91360   0.55313   0.00000  Uiso   1.00
H557   H     0.94689   0.70563   0.42133   0.00000  Uiso   1.00
H558   H     0.55311   0.96104   0.57867   0.00000  Uiso   1.00
H559   H     0.74380   0.98636   0.42913   0.00000  Uiso   1.00
H560   H     0.75620   0.68031   0.57087   0.00000  Uiso   1.00
N561   N     0.73745   0.81881   0.34617   0.00000  Uiso   1.00
N562   N     0.76256   0.84786   0.65383   0.00000  Uiso   1.00
O563   O     0.75326   0.76204   0.53992   0.00000  Uiso   1.00
O564   O     0.74675   0.90462   0.46008   0.00000  Uiso   1.00
O565   O     0.74480   0.75226   0.43612   0.00000  Uiso   1.00
O566   O     0.75520   0.91441   0.56388   0.00000  Uiso   1.00
O567   O     0.68936   0.83821   0.55191   0.00000  Uiso   1.00
O568   O     0.81065   0.82845   0.44809   0.00000  Uiso   1.00
O569   O     0.68090   0.82843   0.44810   0.00000  Uiso   1.00
O570   O     0.81910   0.83824   0.55190   0.00000  Uiso   1.00
Br571  Br    0.53793   0.67381   0.40797   0.00000  Uiso   1.00
Br572  Br    0.96207   0.99286   0.59203   0.00000  Uiso   1.00
C573   C     0.70503   0.78261   0.64278   0.00000  Uiso   1.00
N574   N     0.67776   0.75215   0.61281   0.00000  Uiso   1.00
C575   C     0.79498   0.88406   0.35722   0.00000  Uiso   1.00
N576   N     0.82224   0.91452   0.38719   0.00000  Uiso   1.00
C577   C     0.24859   0.06661   0.81770   0.00000  Uiso   1.00
C578   C     0.25141   0.26672   0.84897   0.00000  Uiso   1.00
C579   C     0.01476   0.07335   0.77748   0.00000  Uiso   1.00
C580   C     0.48524   0.25999   0.88919   0.00000  Uiso   1.00
C581   C     0.24786   0.01049   0.80908   0.00000  Uiso   1.00
C582   C     0.25214   0.32284   0.85759   0.00000  Uiso   1.00
C583   C     0.16462   0.16646   0.83387   0.00000  Uiso   1.00
C584   C     0.33538   0.16688   0.83280   0.00000  Uiso   1.00
C585   C     0.41041   0.21302   0.86091   0.00000  Uiso   1.00
C586   C     0.08959   0.12031   0.80576   0.00000  Uiso   1.00
C587   C     0.38350   0.16724   0.83163   0.00000  Uiso   1.00
C588   C     0.11650   0.16609   0.83504   0.00000  Uiso   1.00
C589   C     0.40234   0.12159   0.80242   0.00000  Uiso   1.00
C590   C     0.09766   0.21175   0.86425   0.00000  Uiso   1.00
C591   C     0.44891   0.12087   0.80354   0.00000  Uiso   1.00
C592   C     0.05109   0.21246   0.86312   0.00000  Uiso   1.00
C593   C     0.47655   0.16704   0.83288   0.00000  Uiso   1.00
C594   C     0.02345   0.16629   0.83379   0.00000  Uiso   1.00
C595   C     0.45723   0.21387   0.86123   0.00000  Uiso   1.00
C596   C     0.04277   0.11946   0.80544   0.00000  Uiso   1.00
C597   C     0.46815   0.07454   0.77642   0.00000  Uiso   1.00
C598   C     0.03185   0.25880   0.89024   0.00000  Uiso   1.00
Cu599  Cu    0.25501   0.17246   0.89479   0.00000  Uiso   1.00
Cu600  Cu    0.24500   0.16087   0.77187   0.00000  Uiso   1.00
H601   H     0.39431   0.24760   0.88292   0.00000  Uiso   1.00
H602   H     0.10569   0.08574   0.78375   0.00000  Uiso   1.00
H603   H     0.38068   0.08640   0.78020   0.00000  Uiso   1.00
H604   H     0.11932   0.24693   0.88646   0.00000  Uiso   1.00
H605   H     0.44689   0.03896   0.75466   0.00000  Uiso   1.00
H606   H     0.05311   0.29437   0.91201   0.00000  Uiso   1.00
H607   H     0.24380   0.31969   0.76247   0.00000  Uiso   1.00
H608   H     0.25620   0.01364   0.90420   0.00000  Uiso   1.00
N609   N     0.23745   0.15214   0.67951   0.00000  Uiso   1.00
N610   N     0.26256   0.18119   0.98716   0.00000  Uiso   1.00
O611   O     0.25326   0.09538   0.87326   0.00000  Uiso   1.00
O612   O     0.24675   0.23796   0.79341   0.00000  Uiso   1.00
O613   O     0.24480   0.08559   0.76945   0.00000  Uiso   1.00
O614   O     0.25520   0.24774   0.89721   0.00000  Uiso   1.00
O615   O     0.18936   0.17155   0.88524   0.00000  Uiso   1.00
O616   O     0.31065   0.16179   0.78143   0.00000  Uiso   1.00
O617   O     0.18090   0.16176   0.78143   0.00000  Uiso   1.00
O618   O     0.31910   0.17157   0.88523   0.00000  Uiso   1.00
Br619  Br    0.03793   0.00714   0.74130   0.00000  Uiso   1.00
Br620  Br    0.46207   0.32619   0.92536   0.00000  Uiso   1.00
C621   C     0.20503   0.11594   0.97611   0.00000  Uiso   1.00
N622   N     0.17776   0.08548   0.94615   0.00000  Uiso   1.00
C623   C     0.29498   0.21739   0.69056   0.00000  Uiso   1.00
N624   N     0.32224   0.24785   0.72052   0.00000  Uiso   1.00
C625   C     0.74859   0.06661   0.81770   0.00000  Uiso   1.00
C626   C     0.75141   0.26672   0.84897   0.00000  Uiso   1.00
C627   C     0.51476   0.07335   0.77748   0.00000  Uiso   1.00
C628   C     0.98524   0.25999   0.88919   0.00000  Uiso   1.00
C629   C     0.74786   0.01049   0.80908   0.00000  Uiso   1.00
C630   C     0.75214   0.32284   0.85759   0.00000  Uiso   1.00
C631   C     0.66462   0.16646   0.83387   0.00000  Uiso   1.00
C632   C     0.83538   0.16688   0.83280   0.00000  Uiso   1.00
C633   C     0.91041   0.21302   0.86091   0.00000  Uiso   1.00
C634   C     0.58959   0.12031   0.80576   0.00000  Uiso   1.00
C635   C     0.88350   0.16724   0.83163   0.00000  Uiso   1.00
C636   C     0.61650   0.16609   0.83504   0.00000  Uiso   1.00
C637   C     0.90234   0.12159   0.80242   0.00000  Uiso   1.00
C638   C     0.59766   0.21175   0.86425   0.00000  Uiso   1.00
C639   C     0.94891   0.12087   0.80354   0.00000  Uiso   1.00
C640   C     0.55109   0.21246   0.86312   0.00000  Uiso   1.00
C641   C     0.97655   0.16704   0.83288   0.00000  Uiso   1.00
C642   C     0.52345   0.16629   0.83379   0.00000  Uiso   1.00
C643   C     0.95723   0.21387   0.86123   0.00000  Uiso   1.00
C644   C     0.54277   0.11946   0.80544   0.00000  Uiso   1.00
C645   C     0.96815   0.07454   0.77642   0.00000  Uiso   1.00
C646   C     0.53185   0.25880   0.89024   0.00000  Uiso   1.00
Cu647  Cu    0.75501   0.17246   0.89479   0.00000  Uiso   1.00
Cu648  Cu    0.74500   0.16087   0.77187   0.00000  Uiso   1.00
H649   H     0.89431   0.24760   0.88292   0.00000  Uiso   1.00
H650   H     0.60569   0.08574   0.78375   0.00000  Uiso   1.00
H651   H     0.88068   0.08640   0.78020   0.00000  Uiso   1.00
H652   H     0.61932   0.24693   0.88646   0.00000  Uiso   1.00
H653   H     0.94689   0.03896   0.75466   0.00000  Uiso   1.00
H654   H     0.55311   0.29437   0.91201   0.00000  Uiso   1.00
H655   H     0.74380   0.31969   0.76247   0.00000  Uiso   1.00
H656   H     0.75620   0.01364   0.90420   0.00000  Uiso   1.00
N657   N     0.73745   0.15214   0.67951   0.00000  Uiso   1.00
N658   N     0.76256   0.18119   0.98716   0.00000  Uiso   1.00
O659   O     0.75326   0.09538   0.87326   0.00000  Uiso   1.00
O660   O     0.74675   0.23796   0.79341   0.00000  Uiso   1.00
O661   O     0.74480   0.08559   0.76945   0.00000  Uiso   1.00
O662   O     0.75520   0.24774   0.89721   0.00000  Uiso   1.00
O663   O     0.68936   0.17155   0.88524   0.00000  Uiso   1.00
O664   O     0.81065   0.16179   0.78143   0.00000  Uiso   1.00
O665   O     0.68090   0.16176   0.78143   0.00000  Uiso   1.00
O666   O     0.81910   0.17157   0.88523   0.00000  Uiso   1.00
Br667  Br    0.53793   0.00714   0.74130   0.00000  Uiso   1.00
Br668  Br    0.96207   0.32619   0.92536   0.00000  Uiso   1.00
C669   C     0.70503   0.11594   0.97611   0.00000  Uiso   1.00
N670   N     0.67776   0.08548   0.94615   0.00000  Uiso   1.00
C671   C     0.79498   0.21739   0.69056   0.00000  Uiso   1.00
N672   N     0.82224   0.24785   0.72052   0.00000  Uiso   1.00
C673   C     0.24859   0.39994   0.81770   0.00000  Uiso   1.00
C674   C     0.25141   0.60006   0.84897   0.00000  Uiso   1.00
C675   C     0.01476   0.40668   0.77748   0.00000  Uiso   1.00
C676   C     0.48524   0.59332   0.88919   0.00000  Uiso   1.00
C677   C     0.24786   0.34382   0.80908   0.00000  Uiso   1.00
C678   C     0.25214   0.65618   0.85759   0.00000  Uiso   1.00
C679   C     0.16462   0.49979   0.83387   0.00000  Uiso   1.00
C680   C     0.33538   0.50021   0.83280   0.00000  Uiso   1.00
C681   C     0.41041   0.54635   0.86091   0.00000  Uiso   1.00
C682   C     0.08959   0.45365   0.80576   0.00000  Uiso   1.00
C683   C     0.38350   0.50058   0.83163   0.00000  Uiso   1.00
C684   C     0.11650   0.49943   0.83504   0.00000  Uiso   1.00
C685   C     0.40234   0.45492   0.80242   0.00000  Uiso   1.00
C686   C     0.09766   0.54508   0.86425   0.00000  Uiso   1.00
C687   C     0.44891   0.45421   0.80354   0.00000  Uiso   1.00
C688   C     0.05109   0.54579   0.86312   0.00000  Uiso   1.00
C689   C     0.47655   0.50037   0.83288   0.00000  Uiso   1.00
C690   C     0.02345   0.49963   0.83379   0.00000  Uiso   1.00
C691   C     0.45723   0.54721   0.86123   0.00000  Uiso   1.00
C692   C     0.04277   0.45279   0.80544   0.00000  Uiso   1.00
C693   C     0.46815   0.40787   0.77642   0.00000  Uiso   1.00
C694   C     0.03185   0.59213   0.89024   0.00000  Uiso   1.00
Cu695  Cu    0.25501   0.50579   0.89479   0.00000  Uiso   1.00
Cu696  Cu    0.24500   0.49421   0.77187   0.00000  Uiso   1.00
H697   H     0.39431   0.58093   0.88292   0.00000  Uiso   1.00
H698   H     0.10569   0.41907   0.78375   0.00000  Uiso   1.00
H699   H     0.38068   0.41974   0.78020   0.00000  Uiso   1.00
H700   H     0.11932   0.58026   0.88646   0.00000  Uiso   1.00
H701   H     0.44689   0.37230   0.75466   0.00000  Uiso   1.00
H702   H     0.05311   0.62770   0.91201   0.00000  Uiso   1.00
H703   H     0.24380   0.65303   0.76247   0.00000  Uiso   1.00
H704   H     0.25620   0.34697   0.90420   0.00000  Uiso   1.00
N705   N     0.23745   0.48547   0.67951   0.00000  Uiso   1.00
N706   N     0.26256   0.51453   0.98716   0.00000  Uiso   1.00
O707   O     0.25326   0.42871   0.87326   0.00000  Uiso   1.00
O708   O     0.24675   0.57129   0.79341   0.00000  Uiso   1.00
O709   O     0.24480   0.41892   0.76945   0.00000  Uiso   1.00
O710   O     0.25520   0.58108   0.89721   0.00000  Uiso   1.00
O711   O     0.18936   0.50488   0.88524   0.00000  Uiso   1.00
O712   O     0.31065   0.49512   0.78143   0.00000  Uiso   1.00
O713   O     0.18090   0.49510   0.78143   0.00000  Uiso   1.00
O714   O     0.31910   0.50490   0.88523   0.00000  Uiso   1.00
Br715  Br    0.03793   0.34048   0.74130   0.00000  Uiso   1.00
Br716  Br    0.46207   0.65952   0.92536   0.00000  Uiso   1.00
C717   C     0.20503   0.44927   0.97611   0.00000  Uiso   1.00
N718   N     0.17776   0.41882   0.94615   0.00000  Uiso   1.00
C719   C     0.29498   0.55073   0.69056   0.00000  Uiso   1.00
N720   N     0.32224   0.58118   0.72052   0.00000  Uiso   1.00
C721   C     0.74859   0.39994   0.81770   0.00000  Uiso   1.00
C722   C     0.75141   0.60006   0.84897   0.00000  Uiso   1.00
C723   C     0.51476   0.40668   0.77748   0.00000  Uiso   1.00
C724   C     0.98524   0.59332   0.88919   0.00000  Uiso   1.00
C725   C     0.74786   0.34382   0.80908   0.00000  Uiso   1.00
C726   C     0.75214   0.65618   0.85759   0.00000  Uiso   1.00
C727   C     0.66462   0.49979   0.83387   0.00000  Uiso   1.00
C728   C     0.83538   0.50021   0.83280   0.00000  Uiso   1.00
C729   C     0.91041   0.54635   0.86091   0.00000  Uiso   1.00
C730   C     0.58959   0.45365   0.80576   0.00000  Uiso   1.00
C731   C     0.88350   0.50058   0.83163   0.00000  Uiso   1.00
C732   C     0.61650   0.49943   0.83504   0.00000  Uiso   1.00
C733   C     0.90234   0.45492   0.80242   0.00000  Uiso   1.00
C734   C     0.59766   0.54508   0.86425   0.00000  Uiso   1.00
C735   C     0.94891   0.45421   0.80354   0.00000  Uiso   1.00
C736   C     0.55109   0.54579   0.86312   0.00000  Uiso   1.00
C737   C     0.97655   0.50037   0.83288   0.00000  Uiso   1.00
C738   C     0.52345   0.49963   0.83379   0.00000  Uiso   1.00
C739   C     0.95723   0.54721   0.86123   0.00000  Uiso   1.00
C740   C     0.54277   0.45279   0.80544   0.00000  Uiso   1.00
C741   C     0.96815   0.40787   0.77642   0.00000  Uiso   1.00
C742   C     0.53185   0.59213   0.89024   0.00000  Uiso   1.00
Cu743  Cu    0.75501   0.50579   0.89479   0.00000  Uiso   1.00
Cu744  Cu    0.74500   0.49421   0.77187   0.00000  Uiso   1.00
H745   H     0.89431   0.58093   0.88292   0.00000  Uiso   1.00
H746   H     0.60569   0.41907   0.78375   0.00000  Uiso   1.00
H747   H     0.88068   0.41974   0.78020   0.00000  Uiso   1.00
H748   H     0.61932   0.58026   0.88646   0.00000  Uiso   1.00
H749   H     0.94689   0.37230   0.75466   0.00000  Uiso   1.00
H750   H     0.55311   0.62770   0.91201   0.00000  Uiso   1.00
H751   H     0.74380   0.65303   0.76247   0.00000  Uiso   1.00
H752   H     0.75620   0.34697   0.90420   0.00000  Uiso   1.00
N753   N     0.73745   0.48547   0.67951   0.00000  Uiso   1.00
N754   N     0.76256   0.51453   0.98716   0.00000  Uiso   1.00
O755   O     0.75326   0.42871   0.87326   0.00000  Uiso   1.00
O756   O     0.74675   0.57129   0.79341   0.00000  Uiso   1.00
O757   O     0.74480   0.41892   0.76945   0.00000  Uiso   1.00
O758   O     0.75520   0.58108   0.89721   0.00000  Uiso   1.00
O759   O     0.68936   0.50488   0.88524   0.00000  Uiso   1.00
O760   O     0.81065   0.49512   0.78143   0.00000  Uiso   1.00
O761   O     0.68090   0.49510   0.78143   0.00000  Uiso   1.00
O762   O     0.81910   0.50490   0.88523   0.00000  Uiso   1.00
Br763  Br    0.53793   0.34048   0.74130   0.00000  Uiso   1.00
Br764  Br    0.96207   0.65952   0.92536   0.00000  Uiso   1.00
C765   C     0.70503   0.44927   0.97611   0.00000  Uiso   1.00
N766   N     0.67776   0.41882   0.94615   0.00000  Uiso   1.00
C767   C     0.79498   0.55073   0.69056   0.00000  Uiso   1.00
N768   N     0.82224   0.58118   0.72052   0.00000  Uiso   1.00
C769   C     0.24859   0.73328   0.81770   0.00000  Uiso   1.00
C770   C     0.25141   0.93339   0.84897   0.00000  Uiso   1.00
C771   C     0.01476   0.74001   0.77748   0.00000  Uiso   1.00
C772   C     0.48524   0.92665   0.88919   0.00000  Uiso   1.00
C773   C     0.24786   0.67716   0.80908   0.00000  Uiso   1.00
C774   C     0.25214   0.98951   0.85759   0.00000  Uiso   1.00
C775   C     0.16462   0.83312   0.83387   0.00000  Uiso   1.00
C776   C     0.33538   0.83354   0.83280   0.00000  Uiso   1.00
C777   C     0.41041   0.87969   0.86091   0.00000  Uiso   1.00
C778   C     0.08959   0.78698   0.80576   0.00000  Uiso   1.00
C779   C     0.38350   0.83391   0.83163   0.00000  Uiso   1.00
C780   C     0.11650   0.83276   0.83504   0.00000  Uiso   1.00
C781   C     0.40234   0.78825   0.80242   0.00000  Uiso   1.00
C782   C     0.09766   0.87841   0.86425   0.00000  Uiso   1.00
C783   C     0.44891   0.78754   0.80354   0.00000  Uiso   1.00
C784   C     0.05109   0.87913   0.86312   0.00000  Uiso   1.00
C785   C     0.47655   0.83371   0.83288   0.00000  Uiso   1.00
C786   C     0.02345   0.83296   0.83379   0.00000  Uiso   1.00
C787   C     0.45723   0.88054   0.86123   0.00000  Uiso   1.00
C788   C     0.04277   0.78613   0.80544   0.00000  Uiso   1.00
C789   C     0.46815   0.74120   0.77642   0.00000  Uiso   1.00
C790   C     0.03185   0.92547   0.89024   0.00000  Uiso   1.00
Cu791  Cu    0.25501   0.83913   0.89479   0.00000  Uiso   1.00
Cu792  Cu    0.24500   0.82754   0.77187   0.00000  Uiso   1.00
H793   H     0.39431   0.91426   0.88292   0.00000  Uiso   1.00
H794   H     0.10569   0.75240   0.78375   0.00000  Uiso   1.00
H795   H     0.38068   0.75307   0.78020   0.00000  Uiso   1.00
H796   H     0.11932   0.91360   0.88646   0.00000  Uiso   1.00
H797   H     0.44689   0.70563   0.75466   0.00000  Uiso   1.00
H798   H     0.05311   0.96104   0.91201   0.00000  Uiso   1.00
H799   H     0.24380   0.98636   0.76247   0.00000  Uiso   1.00
H800   H     0.25620   0.68031   0.90420   0.00000  Uiso   1.00
N801   N     0.23745   0.81881   0.67951   0.00000  Uiso   1.00
N802   N     0.26256   0.84786   0.98716   0.00000  Uiso   1.00
O803   O     0.25326   0.76204   0.87326   0.00000  Uiso   1.00
O804   O     0.24675   0.90462   0.79341   0.00000  Uiso   1.00
O805   O     0.24480   0.75226   0.76945   0.00000  Uiso   1.00
O806   O     0.25520   0.91441   0.89721   0.00000  Uiso   1.00
O807   O     0.18936   0.83821   0.88524   0.00000  Uiso   1.00
O808   O     0.31065   0.82845   0.78143   0.00000  Uiso   1.00
O809   O     0.18090   0.82843   0.78143   0.00000  Uiso   1.00
O810   O     0.31910   0.83824   0.88523   0.00000  Uiso   1.00
Br811  Br    0.03793   0.67381   0.74130   0.00000  Uiso   1.00
Br812  Br    0.46207   0.99286   0.92536   0.00000  Uiso   1.00
C813   C     0.20503   0.78261   0.97611   0.00000  Uiso   1.00
N814   N     0.17776   0.75215   0.94615   0.00000  Uiso   1.00
C815   C     0.29498   0.88406   0.69056   0.00000  Uiso   1.00
N816   N     0.32224   0.91452   0.72052   0.00000  Uiso   1.00
C817   C     0.74859   0.73328   0.81770   0.00000  Uiso   1.00
C818   C     0.75141   0.93339   0.84897   0.00000  Uiso   1.00
C819   C     0.51476   0.74001   0.77748   0.00000  Uiso   1.00
C820   C     0.98524   0.92665   0.88919   0.00000  Uiso   1.00
C821   C     0.74786   0.67716   0.80908   0.00000  Uiso   1.00
C822   C     0.75214   0.98951   0.85759   0.00000  Uiso   1.00
C823   C     0.66462   0.83312   0.83387   0.00000  Uiso   1.00
C824   C     0.83538   0.83354   0.83280   0.00000  Uiso   1.00
C825   C     0.91041   0.87969   0.86091   0.00000  Uiso   1.00
C826   C     0.58959   0.78698   0.80576   0.00000  Uiso   1.00
C827   C     0.88350   0.83391   0.83163   0.00000  Uiso   1.00
C828   C     0.61650   0.83276   0.83504   0.00000  Uiso   1.00
C829   C     0.90234   0.78825   0.80242   0.00000  Uiso   1.00
C830   C     0.59766   0.87841   0.86425   0.00000  Uiso   1.00
C831   C     0.94891   0.78754   0.80354   0.00000  Uiso   1.00
C832   C     0.55109   0.87913   0.86312   0.00000  Uiso   1.00
C833   C     0.97655   0.83371   0.83288   0.00000  Uiso   1.00
C834   C     0.52345   0.83296   0.83379   0.00000  Uiso   1.00
C835   C     0.95723   0.88054   0.86123   0.00000  Uiso   1.00
C836   C     0.54277   0.78613   0.80544   0.00000  Uiso   1.00
C837   C     0.96815   0.74120   0.77642   0.00000  Uiso   1.00
C838   C     0.53185   0.92547   0.89024   0.00000  Uiso   1.00
Cu839  Cu    0.75501   0.83913   0.89479   0.00000  Uiso   1.00
Cu840  Cu    0.74500   0.82754   0.77187   0.00000  Uiso   1.00
H841   H     0.89431   0.91426   0.88292   0.00000  Uiso   1.00
H842   H     0.60569   0.75240   0.78375   0.00000  Uiso   1.00
H843   H     0.88068   0.75307   0.78020   0.00000  Uiso   1.00
H844   H     0.61932   0.91360   0.88646   0.00000  Uiso   1.00
H845   H     0.94689   0.70563   0.75466   0.00000  Uiso   1.00
H846   H     0.55311   0.96104   0.91201   0.00000  Uiso   1.00
H847   H     0.74380   0.98636   0.76247   0.00000  Uiso   1.00
H848   H     0.75620   0.68031   0.90420   0.00000  Uiso   1.00
N849   N     0.73745   0.81881   0.67951   0.00000  Uiso   1.00
N850   N     0.76256   0.84786   0.98716   0.00000  Uiso   1.00
O851   O     0.75326   0.76204   0.87326   0.00000  Uiso   1.00
O852   O     0.74675   0.90462   0.79341   0.00000  Uiso   1.00
O853   O     0.74480   0.75226   0.76945   0.00000  Uiso   1.00
O854   O     0.75520   0.91441   0.89721   0.00000  Uiso   1.00
O855   O     0.68936   0.83821   0.88524   0.00000  Uiso   1.00
O856   O     0.81065   0.82845   0.78143   0.00000  Uiso   1.00
O857   O     0.68090   0.82843   0.78143   0.00000  Uiso   1.00
O858   O     0.81910   0.83824   0.88523   0.00000  Uiso   1.00
Br859  Br    0.53793   0.67381   0.74130   0.00000  Uiso   1.00
Br860  Br    0.96207   0.99286   0.92536   0.00000  Uiso   1.00
C861   C     0.70503   0.78261   0.97611   0.00000  Uiso   1.00
N862   N     0.67776   0.75215   0.94615   0.00000  Uiso   1.00
C863   C     0.79498   0.88406   0.69056   0.00000  Uiso   1.00
N864   N     0.82224   0.91452   0.72052   0.00000  Uiso   1.00
loop_
_geom_bond_atom_site_label_1
_geom_bond_atom_site_label_2
_geom_bond_distance
_geom_bond_site_symmetry_2
_ccdc_geom_bond_type
C1     O37     1.293   .     A
C1     C5      1.427   .     S
C1     O35     1.296   .     A
C2     O38     1.293   .     A
C2     C6      1.427   .     S
C2     O36     1.296   .     A
C3     C20     1.411   .     A
C3     Br43    1.923   .     S
C3     C69     1.394   1_455 S
C4     C19     1.411   .     A
C4     Br44    1.923   .     S
C4     C70     1.394   .     S
C5     C198    1.330   1_545 S
C5     H223    1.088   1_545 S
C6     C101    1.330   .     S
C6     H128    1.088   .     S
C7     O41     1.298   .     A
C7     C12     1.441   .     S
C7     O39     1.299   .     A
C8     O42     1.298   .     A
C8     C11     1.441   .     S
C8     O40     1.299   .     A
C9     H25     1.083   .     S
C9     C11     1.395   .     A
C9     C19     1.398   .     A
C10    H26     1.083   .     S
C10    C12     1.395   .     A
C10    C20     1.398   .     A
C11    C13     1.393   .     A
C12    C14     1.393   .     A
C13    C15     1.392   .     A
C13    H27     1.085   .     S
C14    H28     1.085   .     S
C14    C16     1.392   .     A
C15    C21     1.399   .     A
C15    C17     1.413   .     A
C16    C18     1.413   .     A
C16    C22     1.399   .     A
C17    C19     1.418   .     A
C17    C66     1.402   .     S
C18    C20     1.418   .     A
C18    C65     1.402   1_455 S
C21    H29     1.084   .     S
C21    C51     1.394   .     S
C22    H30     1.084   .     S
C22    C52     1.394   1_455 S
Cu23   Cu24    2.708   .     S
Cu23   O38     1.946   .     S
Cu23   O35     1.949   .     S
Cu23   N34     2.035   .     S
Cu23   O42     1.947   .     S
Cu23   O39     1.956   .     S
Cu24   O37     1.946   .     S
Cu24   O41     1.947   .     S
Cu24   O36     1.949   .     S
Cu24   O40     1.956   .     S
Cu24   N33     2.035   .     S
H31    C101    1.088   .     S
H32    C198    1.088   1_545 S
N33    N610    1.294   1_554 S
N33    C621    1.386   1_554 S
N34    N321    1.294   .     S
N34    C335    1.386   .     S
C45    N46     1.158   .     T
C45    N321    1.386   .     S
C47    N48     1.158   .     T
C47    N610    1.386   1_554 S
C49    O85     1.293   .     A
C49    C53     1.427   .     S
C49    O83     1.296   .     A
C50    O86     1.293   .     A
C50    C54     1.427   .     S
C50    O84     1.296   .     A
C51    C68     1.411   .     A
C51    Br91    1.923   .     S
C52    C67     1.411   .     A
C52    Br92    1.923   .     S
C52    C22     1.394   1_655 S
C53    C246    1.330   1_545 S
C53    H271    1.088   1_545 S
C54    C149    1.330   .     S
C54    H176    1.088   .     S
C55    O89     1.298   .     A
C55    C60     1.441   .     S
C55    O87     1.299   .     A
C56    O90     1.298   .     A
C56    C59     1.441   .     S
C56    O88     1.299   .     A
C57    H73     1.083   .     S
C57    C59     1.395   .     A
C57    C67     1.398   .     A
C58    H74     1.083   .     S
C58    C60     1.395   .     A
C58    C68     1.398   .     A
C59    C61     1.393   .     A
C60    C62     1.393   .     A
C61    C63     1.392   .     A
C61    H75     1.085   .     S
C62    H76     1.085   .     S
C62    C64     1.392   .     A
C63    C69     1.399   .     A
C63    C65     1.413   .     A
C64    C66     1.413   .     A
C64    C70     1.399   .     A
C65    C67     1.418   .     A
C65    C18     1.402   1_655 S
C66    C68     1.418   .     A
C69    H77     1.084   .     S
C69    C3      1.394   1_655 S
C70    H78     1.084   .     S
Cu71   Cu72    2.708   .     S
Cu71   O86     1.946   .     S
Cu71   O83     1.949   .     S
Cu71   N82     2.035   .     S
Cu71   O90     1.947   .     S
Cu71   O87     1.956   .     S
Cu72   O85     1.946   .     S
Cu72   O89     1.947   .     S
Cu72   O84     1.949   .     S
Cu72   O88     1.956   .     S
Cu72   N81     2.035   .     S
H79    C149    1.088   .     S
H80    C246    1.088   1_545 S
N81    N658    1.294   1_554 S
N81    C669    1.386   1_554 S
N82    N369    1.294   .     S
N82    C383    1.386   .     S
C93    N94     1.158   .     T
C93    N369    1.386   .     S
C95    N96     1.158   .     T
C95    N658    1.386   1_554 S
C97    O133    1.293   .     A
C97    C101    1.427   .     S
C97    O131    1.296   .     A
C98    O134    1.293   .     A
C98    C102    1.427   .     S
C98    O132    1.296   .     A
C99    C116    1.411   .     A
C99    Br139   1.923   .     S
C99    C165    1.394   1_455 S
C100   C115    1.411   .     A
C100   Br140   1.923   .     S
C100   C166    1.394   .     S
C102   C197    1.330   .     S
C102   H224    1.088   .     S
C103   O137    1.298   .     A
C103   C108    1.441   .     S
C103   O135    1.299   .     A
C104   O138    1.298   .     A
C104   C107    1.441   .     S
C104   O136    1.299   .     A
C105   H121    1.083   .     S
C105   C107    1.395   .     A
C105   C115    1.398   .     A
C106   H122    1.083   .     S
C106   C108    1.395   .     A
C106   C116    1.398   .     A
C107   C109    1.393   .     A
C108   C110    1.393   .     A
C109   C111    1.392   .     A
C109   H123    1.085   .     S
C110   H124    1.085   .     S
C110   C112    1.392   .     A
C111   C117    1.399   .     A
C111   C113    1.413   .     A
C112   C114    1.413   .     A
C112   C118    1.399   .     A
C113   C115    1.418   .     A
C113   C162    1.402   .     S
C114   C116    1.418   .     A
C114   C161    1.402   1_455 S
C117   H125    1.084   .     S
C117   C147    1.394   .     S
C118   H126    1.084   .     S
C118   C148    1.394   1_455 S
Cu119  Cu120   2.708   .     S
Cu119  O134    1.946   .     S
Cu119  O131    1.949   .     S
Cu119  N130    2.035   .     S
Cu119  O138    1.947   .     S
Cu119  O135    1.956   .     S
Cu120  O133    1.946   .     S
Cu120  O137    1.947   .     S
Cu120  O132    1.949   .     S
Cu120  O136    1.956   .     S
Cu120  N129    2.035   .     S
H127   C197    1.088   .     S
N129   N706    1.294   1_554 S
N129   C717    1.386   1_554 S
N130   N417    1.294   .     S
N130   C431    1.386   .     S
C141   N142    1.158   .     T
C141   N417    1.386   .     S
C143   N144    1.158   .     T
C143   N706    1.386   1_554 S
C145   O181    1.293   .     A
C145   C149    1.427   .     S
C145   O179    1.296   .     A
C146   O182    1.293   .     A
C146   C150    1.427   .     S
C146   O180    1.296   .     A
C147   C164    1.411   .     A
C147   Br187   1.923   .     S
C148   C163    1.411   .     A
C148   Br188   1.923   .     S
C148   C118    1.394   1_655 S
C150   C245    1.330   .     S
C150   H272    1.088   .     S
C151   O185    1.298   .     A
C151   C156    1.441   .     S
C151   O183    1.299   .     A
C152   O186    1.298   .     A
C152   C155    1.441   .     S
C152   O184    1.299   .     A
C153   H169    1.083   .     S
C153   C155    1.395   .     A
C153   C163    1.398   .     A
C154   H170    1.083   .     S
C154   C156    1.395   .     A
C154   C164    1.398   .     A
C155   C157    1.393   .     A
C156   C158    1.393   .     A
C157   C159    1.392   .     A
C157   H171    1.085   .     S
C158   H172    1.085   .     S
C158   C160    1.392   .     A
C159   C165    1.399   .     A
C159   C161    1.413   .     A
C160   C162    1.413   .     A
C160   C166    1.399   .     A
C161   C163    1.418   .     A
C161   C114    1.402   1_655 S
C162   C164    1.418   .     A
C165   H173    1.084   .     S
C165   C99     1.394   1_655 S
C166   H174    1.084   .     S
Cu167  Cu168   2.708   .     S
Cu167  O182    1.946   .     S
Cu167  O179    1.949   .     S
Cu167  N178    2.035   .     S
Cu167  O186    1.947   .     S
Cu167  O183    1.956   .     S
Cu168  O181    1.946   .     S
Cu168  O185    1.947   .     S
Cu168  O180    1.949   .     S
Cu168  O184    1.956   .     S
Cu168  N177    2.035   .     S
H175   C245    1.088   .     S
N177   N754    1.294   1_554 S
N177   C765    1.386   1_554 S
N178   N465    1.294   .     S
N178   C479    1.386   .     S
C189   N190    1.158   .     T
C189   N465    1.386   .     S
C191   N192    1.158   .     T
C191   N754    1.386   1_554 S
C193   O229    1.293   .     A
C193   C197    1.427   .     S
C193   O227    1.296   .     A
C194   O230    1.293   .     A
C194   C198    1.427   .     S
C194   O228    1.296   .     A
C195   C212    1.411   .     A
C195   Br235   1.923   .     S
C195   C261    1.394   1_455 S
C196   C211    1.411   .     A
C196   Br236   1.923   .     S
C196   C262    1.394   .     S
C198   C5      1.330   1_565 S
C198   H32     1.088   1_565 S
C199   O233    1.298   .     A
C199   C204    1.441   .     S
C199   O231    1.299   .     A
C200   O234    1.298   .     A
C200   C203    1.441   .     S
C200   O232    1.299   .     A
C201   H217    1.083   .     S
C201   C203    1.395   .     A
C201   C211    1.398   .     A
C202   H218    1.083   .     S
C202   C204    1.395   .     A
C202   C212    1.398   .     A
C203   C205    1.393   .     A
C204   C206    1.393   .     A
C205   C207    1.392   .     A
C205   H219    1.085   .     S
C206   H220    1.085   .     S
C206   C208    1.392   .     A
C207   C213    1.399   .     A
C207   C209    1.413   .     A
C208   C210    1.413   .     A
C208   C214    1.399   .     A
C209   C211    1.418   .     A
C209   C258    1.402   .     S
C210   C212    1.418   .     A
C210   C257    1.402   1_455 S
C213   H221    1.084   .     S
C213   C243    1.394   .     S
C214   H222    1.084   .     S
C214   C244    1.394   1_455 S
Cu215  Cu216   2.708   .     S
Cu215  O230    1.946   .     S
Cu215  O227    1.949   .     S
Cu215  N226    2.035   .     S
Cu215  O234    1.947   .     S
Cu215  O231    1.956   .     S
Cu216  O229    1.946   .     S
Cu216  O233    1.947   .     S
Cu216  O228    1.949   .     S
Cu216  O232    1.956   .     S
Cu216  N225    2.035   .     S
H223   C5      1.088   1_565 S
N225   N802    1.294   1_554 S
N225   C813    1.386   1_554 S
N226   N513    1.294   .     S
N226   C527    1.386   .     S
C237   N238    1.158   .     T
C237   N513    1.386   .     S
C239   N240    1.158   .     T
C239   N802    1.386   1_554 S
C241   O277    1.293   .     A
C241   C245    1.427   .     S
C241   O275    1.296   .     A
C242   O278    1.293   .     A
C242   C246    1.427   .     S
C242   O276    1.296   .     A
C243   C260    1.411   .     A
C243   Br283   1.923   .     S
C244   C259    1.411   .     A
C244   Br284   1.923   .     S
C244   C214    1.394   1_655 S
C246   C53     1.330   1_565 S
C246   H80     1.088   1_565 S
C247   O281    1.298   .     A
C247   C252    1.441   .     S
C247   O279    1.299   .     A
C248   O282    1.298   .     A
C248   C251    1.441   .     S
C248   O280    1.299   .     A
C249   H265    1.083   .     S
C249   C251    1.395   .     A
C249   C259    1.398   .     A
C250   H266    1.083   .     S
C250   C252    1.395   .     A
C250   C260    1.398   .     A
C251   C253    1.393   .     A
C252   C254    1.393   .     A
C253   C255    1.392   .     A
C253   H267    1.085   .     S
C254   H268    1.085   .     S
C254   C256    1.392   .     A
C255   C261    1.399   .     A
C255   C257    1.413   .     A
C256   C258    1.413   .     A
C256   C262    1.399   .     A
C257   C259    1.418   .     A
C257   C210    1.402   1_655 S
C258   C260    1.418   .     A
C261   H269    1.084   .     S
C261   C195    1.394   1_655 S
C262   H270    1.084   .     S
Cu263  Cu264   2.708   .     S
Cu263  O278    1.946   .     S
Cu263  O275    1.949   .     S
Cu263  N274    2.035   .     S
Cu263  O282    1.947   .     S
Cu263  O279    1.956   .     S
Cu264  O277    1.946   .     S
Cu264  O281    1.947   .     S
Cu264  O276    1.949   .     S
Cu264  O280    1.956   .     S
Cu264  N273    2.035   .     S
H271   C53     1.088   1_565 S
N273   N850    1.294   1_554 S
N273   C861    1.386   1_554 S
N274   N561    1.294   .     S
N274   C575    1.386   .     S
C285   N286    1.158   .     T
C285   N561    1.386   .     S
C287   N288    1.158   .     T
C287   N850    1.386   1_554 S
C289   O325    1.293   .     A
C289   C293    1.427   .     S
C289   O323    1.296   .     A
C290   O326    1.293   .     A
C290   C294    1.427   .     S
C290   O324    1.296   .     A
C291   C308    1.411   .     A
C291   Br331   1.923   .     S
C291   C357    1.394   1_455 S
C292   C307    1.411   .     A
C292   Br332   1.923   .     S
C292   C358    1.394   .     S
C293   C486    1.330   1_545 S
C293   H511    1.088   1_545 S
C294   C389    1.330   .     S
C294   H416    1.088   .     S
C295   O329    1.298   .     A
C295   C300    1.441   .     S
C295   O327    1.299   .     A
C296   O330    1.298   .     A
C296   C299    1.441   .     S
C296   O328    1.299   .     A
C297   H313    1.083   .     S
C297   C299    1.395   .     A
C297   C307    1.398   .     A
C298   H314    1.083   .     S
C298   C300    1.395   .     A
C298   C308    1.398   .     A
C299   C301    1.393   .     A
C300   C302    1.393   .     A
C301   C303    1.392   .     A
C301   H315    1.085   .     S
C302   H316    1.085   .     S
C302   C304    1.392   .     A
C303   C309    1.399   .     A
C303   C305    1.413   .     A
C304   C306    1.413   .     A
C304   C310    1.399   .     A
C305   C307    1.418   .     A
C305   C354    1.402   .     S
C306   C308    1.418   .     A
C306   C353    1.402   1_455 S
C309   H317    1.084   .     S
C309   C339    1.394   .     S
C310   H318    1.084   .     S
C310   C340    1.394   1_455 S
Cu311  Cu312   2.708   .     S
Cu311  O326    1.946   .     S
Cu311  O323    1.949   .     S
Cu311  N322    2.035   .     S
Cu311  O330    1.947   .     S
Cu311  O327    1.956   .     S
Cu312  O325    1.946   .     S
Cu312  O329    1.947   .     S
Cu312  O324    1.949   .     S
Cu312  O328    1.956   .     S
Cu312  N321    2.035   .     S
H319   C389    1.088   .     S
H320   C486    1.088   1_545 S
N322   N609    1.294   .     S
N322   C623    1.386   .     S
C333   N334    1.158   .     T
C333   N609    1.386   .     S
C335   N336    1.158   .     T
C337   O373    1.293   .     A
C337   C341    1.427   .     S
C337   O371    1.296   .     A
C338   O374    1.293   .     A
C338   C342    1.427   .     S
C338   O372    1.296   .     A
C339   C356    1.411   .     A
C339   Br379   1.923   .     S
C340   C355    1.411   .     A
C340   Br380   1.923   .     S
C340   C310    1.394   1_655 S
C341   C534    1.330   1_545 S
C341   H559    1.088   1_545 S
C342   C437    1.330   .     S
C342   H464    1.088   .     S
C343   O377    1.298   .     A
C343   C348    1.441   .     S
C343   O375    1.299   .     A
C344   O378    1.298   .     A
C344   C347    1.441   .     S
C344   O376    1.299   .     A
C345   H361    1.083   .     S
C345   C347    1.395   .     A
C345   C355    1.398   .     A
C346   H362    1.083   .     S
C346   C348    1.395   .     A
C346   C356    1.398   .     A
C347   C349    1.393   .     A
C348   C350    1.393   .     A
C349   C351    1.392   .     A
C349   H363    1.085   .     S
C350   H364    1.085   .     S
C350   C352    1.392   .     A
C351   C357    1.399   .     A
C351   C353    1.413   .     A
C352   C354    1.413   .     A
C352   C358    1.399   .     A
C353   C355    1.418   .     A
C353   C306    1.402   1_655 S
C354   C356    1.418   .     A
C357   H365    1.084   .     S
C357   C291    1.394   1_655 S
C358   H366    1.084   .     S
Cu359  Cu360   2.708   .     S
Cu359  O374    1.946   .     S
Cu359  O371    1.949   .     S
Cu359  N370    2.035   .     S
Cu359  O378    1.947   .     S
Cu359  O375    1.956   .     S
Cu360  O373    1.946   .     S
Cu360  O377    1.947   .     S
Cu360  O372    1.949   .     S
Cu360  O376    1.956   .     S
Cu360  N369    2.035   .     S
H367   C437    1.088   .     S
H368   C534    1.088   1_545 S
N370   N657    1.294   .     S
N370   C671    1.386   .     S
C381   N382    1.158   .     T
C381   N657    1.386   .     S
C383   N384    1.158   .     T
C385   O421    1.293   .     A
C385   C389    1.427   .     S
C385   O419    1.296   .     A
C386   O422    1.293   .     A
C386   C390    1.427   .     S
C386   O420    1.296   .     A
C387   C404    1.411   .     A
C387   Br427   1.923   .     S
C387   C453    1.394   1_455 S
C388   C403    1.411   .     A
C388   Br428   1.923   .     S
C388   C454    1.394   .     S
C390   C485    1.330   .     S
C390   H512    1.088   .     S
C391   O425    1.298   .     A
C391   C396    1.441   .     S
C391   O423    1.299   .     A
C392   O426    1.298   .     A
C392   C395    1.441   .     S
C392   O424    1.299   .     A
C393   H409    1.083   .     S
C393   C395    1.395   .     A
C393   C403    1.398   .     A
C394   H410    1.083   .     S
C394   C396    1.395   .     A
C394   C404    1.398   .     A
C395   C397    1.393   .     A
C396   C398    1.393   .     A
C397   C399    1.392   .     A
C397   H411    1.085   .     S
C398   H412    1.085   .     S
C398   C400    1.392   .     A
C399   C405    1.399   .     A
C399   C401    1.413   .     A
C400   C402    1.413   .     A
C400   C406    1.399   .     A
C401   C403    1.418   .     A
C401   C450    1.402   .     S
C402   C404    1.418   .     A
C402   C449    1.402   1_455 S
C405   H413    1.084   .     S
C405   C435    1.394   .     S
C406   H414    1.084   .     S
C406   C436    1.394   1_455 S
Cu407  Cu408   2.708   .     S
Cu407  O422    1.946   .     S
Cu407  O419    1.949   .     S
Cu407  N418    2.035   .     S
Cu407  O426    1.947   .     S
Cu407  O423    1.956   .     S
Cu408  O421    1.946   .     S
Cu408  O425    1.947   .     S
Cu408  O420    1.949   .     S
Cu408  O424    1.956   .     S
Cu408  N417    2.035   .     S
H415   C485    1.088   .     S
N418   N705    1.294   .     S
N418   C719    1.386   .     S
C429   N430    1.158   .     T
C429   N705    1.386   .     S
C431   N432    1.158   .     T
C433   O469    1.293   .     A
C433   C437    1.427   .     S
C433   O467    1.296   .     A
C434   O470    1.293   .     A
C434   C438    1.427   .     S
C434   O468    1.296   .     A
C435   C452    1.411   .     A
C435   Br475   1.923   .     S
C436   C451    1.411   .     A
C436   Br476   1.923   .     S
C436   C406    1.394   1_655 S
C438   C533    1.330   .     S
C438   H560    1.088   .     S
C439   O473    1.298   .     A
C439   C444    1.441   .     S
C439   O471    1.299   .     A
C440   O474    1.298   .     A
C440   C443    1.441   .     S
C440   O472    1.299   .     A
C441   H457    1.083   .     S
C441   C443    1.395   .     A
C441   C451    1.398   .     A
C442   H458    1.083   .     S
C442   C444    1.395   .     A
C442   C452    1.398   .     A
C443   C445    1.393   .     A
C444   C446    1.393   .     A
C445   C447    1.392   .     A
C445   H459    1.085   .     S
C446   H460    1.085   .     S
C446   C448    1.392   .     A
C447   C453    1.399   .     A
C447   C449    1.413   .     A
C448   C450    1.413   .     A
C448   C454    1.399   .     A
C449   C451    1.418   .     A
C449   C402    1.402   1_655 S
C450   C452    1.418   .     A
C453   H461    1.084   .     S
C453   C387    1.394   1_655 S
C454   H462    1.084   .     S
Cu455  Cu456   2.708   .     S
Cu455  O470    1.946   .     S
Cu455  O467    1.949   .     S
Cu455  N466    2.035   .     S
Cu455  O474    1.947   .     S
Cu455  O471    1.956   .     S
Cu456  O469    1.946   .     S
Cu456  O473    1.947   .     S
Cu456  O468    1.949   .     S
Cu456  O472    1.956   .     S
Cu456  N465    2.035   .     S
H463   C533    1.088   .     S
N466   N753    1.294   .     S
N466   C767    1.386   .     S
C477   N478    1.158   .     T
C477   N753    1.386   .     S
C479   N480    1.158   .     T
C481   O517    1.293   .     A
C481   C485    1.427   .     S
C481   O515    1.296   .     A
C482   O518    1.293   .     A
C482   C486    1.427   .     S
C482   O516    1.296   .     A
C483   C500    1.411   .     A
C483   Br523   1.923   .     S
C483   C549    1.394   1_455 S
C484   C499    1.411   .     A
C484   Br524   1.923   .     S
C484   C550    1.394   .     S
C486   C293    1.330   1_565 S
C486   H320    1.088   1_565 S
C487   O521    1.298   .     A
C487   C492    1.441   .     S
C487   O519    1.299   .     A
C488   O522    1.298   .     A
C488   C491    1.441   .     S
C488   O520    1.299   .     A
C489   H505    1.083   .     S
C489   C491    1.395   .     A
C489   C499    1.398   .     A
C490   H506    1.083   .     S
C490   C492    1.395   .     A
C490   C500    1.398   .     A
C491   C493    1.393   .     A
C492   C494    1.393   .     A
C493   C495    1.392   .     A
C493   H507    1.085   .     S
C494   H508    1.085   .     S
C494   C496    1.392   .     A
C495   C501    1.399   .     A
C495   C497    1.413   .     A
C496   C498    1.413   .     A
C496   C502    1.399   .     A
C497   C499    1.418   .     A
C497   C546    1.402   .     S
C498   C500    1.418   .     A
C498   C545    1.402   1_455 S
C501   H509    1.084   .     S
C501   C531    1.394   .     S
C502   H510    1.084   .     S
C502   C532    1.394   1_455 S
Cu503  Cu504   2.708   .     S
Cu503  O518    1.946   .     S
Cu503  O515    1.949   .     S
Cu503  N514    2.035   .     S
Cu503  O522    1.947   .     S
Cu503  O519    1.956   .     S
Cu504  O517    1.946   .     S
Cu504  O521    1.947   .     S
Cu504  O516    1.949   .     S
Cu504  O520    1.956   .     S
Cu504  N513    2.035   .     S
H511   C293    1.088   1_565 S
N514   N801    1.294   .     S
N514   C815    1.386   .     S
C525   N526    1.158   .     T
C525   N801    1.386   .     S
C527   N528    1.158   .     T
C529   O565    1.293   .     A
C529   C533    1.427   .     S
C529   O563    1.296   .     A
C530   O566    1.293   .     A
C530   C534    1.427   .     S
C530   O564    1.296   .     A
C531   C548    1.411   .     A
C531   Br571   1.923   .     S
C532   C547    1.411   .     A
C532   Br572   1.923   .     S
C532   C502    1.394   1_655 S
C534   C341    1.330   1_565 S
C534   H368    1.088   1_565 S
C535   O569    1.298   .     A
C535   C540    1.441   .     S
C535   O567    1.299   .     A
C536   O570    1.298   .     A
C536   C539    1.441   .     S
C536   O568    1.299   .     A
C537   H553    1.083   .     S
C537   C539    1.395   .     A
C537   C547    1.398   .     A
C538   H554    1.083   .     S
C538   C540    1.395   .     A
C538   C548    1.398   .     A
C539   C541    1.393   .     A
C540   C542    1.393   .     A
C541   C543    1.392   .     A
C541   H555    1.085   .     S
C542   H556    1.085   .     S
C542   C544    1.392   .     A
C543   C549    1.399   .     A
C543   C545    1.413   .     A
C544   C546    1.413   .     A
C544   C550    1.399   .     A
C545   C547    1.418   .     A
C545   C498    1.402   1_655 S
C546   C548    1.418   .     A
C549   H557    1.084   .     S
C549   C483    1.394   1_655 S
C550   H558    1.084   .     S
Cu551  Cu552   2.708   .     S
Cu551  O566    1.946   .     S
Cu551  O563    1.949   .     S
Cu551  N562    2.035   .     S
Cu551  O570    1.947   .     S
Cu551  O567    1.956   .     S
Cu552  O565    1.946   .     S
Cu552  O569    1.947   .     S
Cu552  O564    1.949   .     S
Cu552  O568    1.956   .     S
Cu552  N561    2.035   .     S
H559   C341    1.088   1_565 S
N562   N849    1.294   .     S
N562   C863    1.386   .     S
C573   N574    1.158   .     T
C573   N849    1.386   .     S
C575   N576    1.158   .     T
C577   O613    1.293   .     A
C577   C581    1.427   .     S
C577   O611    1.296   .     A
C578   O614    1.293   .     A
C578   C582    1.427   .     S
C578   O612    1.296   .     A
C579   C596    1.411   .     A
C579   Br619   1.923   .     S
C579   C645    1.394   1_455 S
C580   C595    1.411   .     A
C580   Br620   1.923   .     S
C580   C646    1.394   .     S
C581   C774    1.330   1_545 S
C581   H799    1.088   1_545 S
C582   C677    1.330   .     S
C582   H704    1.088   .     S
C583   O617    1.298   .     A
C583   C588    1.441   .     S
C583   O615    1.299   .     A
C584   O618    1.298   .     A
C584   C587    1.441   .     S
C584   O616    1.299   .     A
C585   H601    1.083   .     S
C585   C587    1.395   .     A
C585   C595    1.398   .     A
C586   H602    1.083   .     S
C586   C588    1.395   .     A
C586   C596    1.398   .     A
C587   C589    1.393   .     A
C588   C590    1.393   .     A
C589   C591    1.392   .     A
C589   H603    1.085   .     S
C590   H604    1.085   .     S
C590   C592    1.392   .     A
C591   C597    1.399   .     A
C591   C593    1.413   .     A
C592   C594    1.413   .     A
C592   C598    1.399   .     A
C593   C595    1.418   .     A
C593   C642    1.402   .     S
C594   C596    1.418   .     A
C594   C641    1.402   1_455 S
C597   H605    1.084   .     S
C597   C627    1.394   .     S
C598   H606    1.084   .     S
C598   C628    1.394   1_455 S
Cu599  Cu600   2.708   .     S
Cu599  O614    1.946   .     S
Cu599  O611    1.949   .     S
Cu599  N610    2.035   .     S
Cu599  O618    1.947   .     S
Cu599  O615    1.956   .     S
Cu600  O613    1.946   .     S
Cu600  O617    1.947   .     S
Cu600  O612    1.949   .     S
Cu600  O616    1.956   .     S
Cu600  N609    2.035   .     S
H607   C677    1.088   .     S
H608   C774    1.088   1_545 S
N610   N33     1.294   1_556 S
N610   C47     1.386   1_556 S
C621   N622    1.158   .     T
C621   N33     1.386   1_556 S
C623   N624    1.158   .     T
C625   O661    1.293   .     A
C625   C629    1.427   .     S
C625   O659    1.296   .     A
C626   O662    1.293   .     A
C626   C630    1.427   .     S
C626   O660    1.296   .     A
C627   C644    1.411   .     A
C627   Br667   1.923   .     S
C628   C643    1.411   .     A
C628   Br668   1.923   .     S
C628   C598    1.394   1_655 S
C629   C822    1.330   1_545 S
C629   H847    1.088   1_545 S
C630   C725    1.330   .     S
C630   H752    1.088   .     S
C631   O665    1.298   .     A
C631   C636    1.441   .     S
C631   O663    1.299   .     A
C632   O666    1.298   .     A
C632   C635    1.441   .     S
C632   O664    1.299   .     A
C633   H649    1.083   .     S
C633   C635    1.395   .     A
C633   C643    1.398   .     A
C634   H650    1.083   .     S
C634   C636    1.395   .     A
C634   C644    1.398   .     A
C635   C637    1.393   .     A
C636   C638    1.393   .     A
C637   C639    1.392   .     A
C637   H651    1.085   .     S
C638   H652    1.085   .     S
C638   C640    1.392   .     A
C639   C645    1.399   .     A
C639   C641    1.413   .     A
C640   C642    1.413   .     A
C640   C646    1.399   .     A
C641   C643    1.418   .     A
C641   C594    1.402   1_655 S
C642   C644    1.418   .     A
C645   H653    1.084   .     S
C645   C579    1.394   1_655 S
C646   H654    1.084   .     S
Cu647  Cu648   2.708   .     S
Cu647  O662    1.946   .     S
Cu647  O659    1.949   .     S
Cu647  N658    2.035   .     S
Cu647  O666    1.947   .     S
Cu647  O663    1.956   .     S
Cu648  O661    1.946   .     S
Cu648  O665    1.947   .     S
Cu648  O660    1.949   .     S
Cu648  O664    1.956   .     S
Cu648  N657    2.035   .     S
H655   C725    1.088   .     S
H656   C822    1.088   1_545 S
N658   N81     1.294   1_556 S
N658   C95     1.386   1_556 S
C669   N670    1.158   .     T
C669   N81     1.386   1_556 S
C671   N672    1.158   .     T
C673   O709    1.293   .     A
C673   C677    1.427   .     S
C673   O707    1.296   .     A
C674   O710    1.293   .     A
C674   C678    1.427   .     S
C674   O708    1.296   .     A
C675   C692    1.411   .     A
C675   Br715   1.923   .     S
C675   C741    1.394   1_455 S
C676   C691    1.411   .     A
C676   Br716   1.923   .     S
C676   C742    1.394   .     S
C678   C773    1.330   .     S
C678   H800    1.088   .     S
C679   O713    1.298   .     A
C679   C684    1.441   .     S
C679   O711    1.299   .     A
C680   O714    1.298   .     A
C680   C683    1.441   .     S
C680   O712    1.299   .     A
C681   H697    1.083   .     S
C681   C683    1.395   .     A
C681   C691    1.398   .     A
C682   H698    1.083   .     S
C682   C684    1.395   .     A
C682   C692    1.398   .     A
C683   C685    1.393   .     A
C684   C686    1.393   .     A
C685   C687    1.392   .     A
C685   H699    1.085   .     S
C686   H700    1.085   .     S
C686   C688    1.392   .     A
C687   C693    1.399   .     A
C687   C689    1.413   .     A
C688   C690    1.413   .     A
C688   C694    1.399   .     A
C689   C691    1.418   .     A
C689   C738    1.402   .     S
C690   C692    1.418   .     A
C690   C737    1.402   1_455 S
C693   H701    1.084   .     S
C693   C723    1.394   .     S
C694   H702    1.084   .     S
C694   C724    1.394   1_455 S
Cu695  Cu696   2.708   .     S
Cu695  O710    1.946   .     S
Cu695  O707    1.949   .     S
Cu695  N706    2.035   .     S
Cu695  O714    1.947   .     S
Cu695  O711    1.956   .     S
Cu696  O709    1.946   .     S
Cu696  O713    1.947   .     S
Cu696  O708    1.949   .     S
Cu696  O712    1.956   .     S
Cu696  N705    2.035   .     S
H703   C773    1.088   .     S
N706   N129    1.294   1_556 S
N706   C143    1.386   1_556 S
C717   N718    1.158   .     T
C717   N129    1.386   1_556 S
C719   N720    1.158   .     T
C721   O757    1.293   .     A
C721   C725    1.427   .     S
C721   O755    1.296   .     A
C722   O758    1.293   .     A
C722   C726    1.427   .     S
C722   O756    1.296   .     A
C723   C740    1.411   .     A
C723   Br763   1.923   .     S
C724   C739    1.411   .     A
C724   Br764   1.923   .     S
C724   C694    1.394   1_655 S
C726   C821    1.330   .     S
C726   H848    1.088   .     S
C727   O761    1.298   .     A
C727   C732    1.441   .     S
C727   O759    1.299   .     A
C728   O762    1.298   .     A
C728   C731    1.441   .     S
C728   O760    1.299   .     A
C729   H745    1.083   .     S
C729   C731    1.395   .     A
C729   C739    1.398   .     A
C730   H746    1.083   .     S
C730   C732    1.395   .     A
C730   C740    1.398   .     A
C731   C733    1.393   .     A
C732   C734    1.393   .     A
C733   C735    1.392   .     A
C733   H747    1.085   .     S
C734   H748    1.085   .     S
C734   C736    1.392   .     A
C735   C741    1.399   .     A
C735   C737    1.413   .     A
C736   C738    1.413   .     A
C736   C742    1.399   .     A
C737   C739    1.418   .     A
C737   C690    1.402   1_655 S
C738   C740    1.418   .     A
C741   H749    1.084   .     S
C741   C675    1.394   1_655 S
C742   H750    1.084   .     S
Cu743  Cu744   2.708   .     S
Cu743  O758    1.946   .     S
Cu743  O755    1.949   .     S
Cu743  N754    2.035   .     S
Cu743  O762    1.947   .     S
Cu743  O759    1.956   .     S
Cu744  O757    1.946   .     S
Cu744  O761    1.947   .     S
Cu744  O756    1.949   .     S
Cu744  O760    1.956   .     S
Cu744  N753    2.035   .     S
H751   C821    1.088   .     S
N754   N177    1.294   1_556 S
N754   C191    1.386   1_556 S
C765   N766    1.158   .     T
C765   N177    1.386   1_556 S
C767   N768    1.158   .     T
C769   O805    1.293   .     A
C769   C773    1.427   .     S
C769   O803    1.296   .     A
C770   O806    1.293   .     A
C770   C774    1.427   .     S
C770   O804    1.296   .     A
C771   C788    1.411   .     A
C771   Br811   1.923   .     S
C771   C837    1.394   1_455 S
C772   C787    1.411   .     A
C772   Br812   1.923   .     S
C772   C838    1.394   .     S
C774   C581    1.330   1_565 S
C774   H608    1.088   1_565 S
C775   O809    1.298   .     A
C775   C780    1.441   .     S
C775   O807    1.299   .     A
C776   O810    1.298   .     A
C776   C779    1.441   .     S
C776   O808    1.299   .     A
C777   H793    1.083   .     S
C777   C779    1.395   .     A
C777   C787    1.398   .     A
C778   H794    1.083   .     S
C778   C780    1.395   .     A
C778   C788    1.398   .     A
C779   C781    1.393   .     A
C780   C782    1.393   .     A
C781   C783    1.392   .     A
C781   H795    1.085   .     S
C782   H796    1.085   .     S
C782   C784    1.392   .     A
C783   C789    1.399   .     A
C783   C785    1.413   .     A
C784   C786    1.413   .     A
C784   C790    1.399   .     A
C785   C787    1.418   .     A
C785   C834    1.402   .     S
C786   C788    1.418   .     A
C786   C833    1.402   1_455 S
C789   H797    1.084   .     S
C789   C819    1.394   .     S
C790   H798    1.084   .     S
C790   C820    1.394   1_455 S
Cu791  Cu792   2.708   .     S
Cu791  O806    1.946   .     S
Cu791  O803    1.949   .     S
Cu791  N802    2.035   .     S
Cu791  O810    1.947   .     S
Cu791  O807    1.956   .     S
Cu792  O805    1.946   .     S
Cu792  O809    1.947   .     S
Cu792  O804    1.949   .     S
Cu792  O808    1.956   .     S
Cu792  N801    2.035   .     S
H799   C581    1.088   1_565 S
N802   N225    1.294   1_556 S
N802   C239    1.386   1_556 S
C813   N814    1.158   .     T
C813   N225    1.386   1_556 S
C815   N816    1.158   .     T
C817   O853    1.293   .     A
C817   C821    1.427   .     S
C817   O851    1.296   .     A
C818   O854    1.293   .     A
C818   C822    1.427   .     S
C818   O852    1.296   .     A
C819   C836    1.411   .     A
C819   Br859   1.923   .     S
C820   C835    1.411   .     A
C820   Br860   1.923   .     S
C820   C790    1.394   1_655 S
C822   C629    1.330   1_565 S
C822   H656    1.088   1_565 S
C823   O857    1.298   .     A
C823   C828    1.441   .     S
C823   O855    1.299   .     A
C824   O858    1.298   .     A
C824   C827    1.441   .     S
C824   O856    1.299   .     A
C825   H841    1.083   .     S
C825   C827    1.395   .     A
C825   C835    1.398   .     A
C826   H842    1.083   .     S
C826   C828    1.395   .     A
C826   C836    1.398   .     A
C827   C829    1.393   .     A
C828   C830    1.393   .     A
C829   C831    1.392   .     A
C829   H843    1.085   .     S
C830   H844    1.085   .     S
C830   C832    1.392   .     A
C831   C837    1.399   .     A
C831   C833    1.413   .     A
C832   C834    1.413   .     A
C832   C838    1.399   .     A
C833   C835    1.418   .     A
C833   C786    1.402   1_655 S
C834   C836    1.418   .     A
C837   H845    1.084   .     S
C837   C771    1.394   1_655 S
C838   H846    1.084   .     S
Cu839  Cu840   2.708   .     S
Cu839  O854    1.946   .     S
Cu839  O851    1.949   .     S
Cu839  N850    2.035   .     S
Cu839  O858    1.947   .     S
Cu839  O855    1.956   .     S
Cu840  O853    1.946   .     S
Cu840  O857    1.947   .     S
Cu840  O852    1.949   .     S
Cu840  O856    1.956   .     S
Cu840  N849    2.035   .     S
H847   C629    1.088   1_565 S
N850   N273    1.294   1_556 S
N850   C287    1.386   1_556 S
C861   N862    1.158   .     T
C861   N273    1.386   1_556 S
C863   N864    1.158   .     T
