data_str_m2_o10_o16_pcu_sym.185
_audit_creation_date              2020-01-03
_audit_creation_method            'Materials Studio'
_symmetry_space_group_name_H-M    'P1'
_symmetry_Int_Tables_number       1
_symmetry_cell_setting            triclinic
loop_
_symmetry_equiv_pos_as_xyz
  x,y,z
_cell_length_a                    22.2105
_cell_length_b                    26.1897
_cell_length_c                    27.0104
_cell_angle_alpha                 95.0687
_cell_angle_beta                  77.3146
_cell_angle_gamma                 103.1773
loop_
_atom_site_label
_atom_site_type_symbol
_atom_site_fract_x
_atom_site_fract_y
_atom_site_fract_z
_atom_site_U_iso_or_equiv
_atom_site_adp_type
_atom_site_occupancy
C1     C     0.17986   0.26653   0.25645   0.00000  Uiso   1.00
C2     C     0.14082   0.16546   0.48733   0.00000  Uiso   1.00
C3     C     0.15722   0.18042   0.43591   0.00000  Uiso   1.00
C4     C     0.18798   0.17868   0.01772   0.00000  Uiso   1.00
C5     C     0.24892   0.20799   0.49687   0.00000  Uiso   1.00
C6     C     0.26230   0.22547   0.44795   0.00000  Uiso   1.00
C7     C     0.21710   0.21286   0.41859   0.00000  Uiso   1.00
C8     C     0.17668   0.16411   0.06821   0.00000  Uiso   1.00
C9     C     0.28442   0.20701   0.07574   0.00000  Uiso   1.00
C10    C     0.11329   0.16284   0.40327   0.00000  Uiso   1.00
C11    C     0.18341   0.32202   0.26843   0.00000  Uiso   1.00
C12    C     0.13321   0.16543   0.34732   0.00000  Uiso   1.00
C13    C     0.14407   0.01075   0.25003   0.00000  Uiso   1.00
C14    C     0.15113   0.06662   0.25019   0.00000  Uiso   1.00
C15    C     0.20104   0.17118   0.15302   0.00000  Uiso   1.00
C16    C     0.29625   0.22081   0.02522   0.00000  Uiso   1.00
C17    C     0.22268   0.17968   0.09811   0.00000  Uiso   1.00
C18    C     0.05162   0.13661   0.42381   0.00000  Uiso   1.00
C19    C     0.03420   0.12492   0.47480   0.00000  Uiso   1.00
C20    C     0.07808   0.13816   0.00609   0.00000  Uiso   1.00
Cu21   Cu    0.10710   0.16105   0.24435   0.00000  Uiso   1.00
Cu22   Cu    0.22623   0.17228   0.25564   0.00000  Uiso   1.00
H23    H     0.10852   0.32071   0.23048   0.00000  Uiso   1.00
H24    H     0.00369   0.20601   0.28975   0.00000  Uiso   1.00
H25    H     0.32961   0.12732   0.21027   0.00000  Uiso   1.00
H26    H     0.30809   0.24949   0.43219   0.00000  Uiso   1.00
H27    H     0.00935   0.24284   0.00800   0.00000  Uiso   1.00
H28    H     0.13157   0.14118   0.08577   0.00000  Uiso   1.00
H29    H     0.01721   0.12337   0.39999   0.00000  Uiso   1.00
H30    H     0.06080   0.12702   0.04491   0.00000  Uiso   1.00
H31    H     0.31976   0.10435   0.49009   0.00000  Uiso   1.00
H32    H     0.23060   0.23002   0.38234   0.00000  Uiso   1.00
N33    N     0.31574   0.18074   0.26416   0.00000  Uiso   1.00
N34    N     0.01759   0.15259   0.23584   0.00000  Uiso   1.00
O35    O     0.12797   0.23807   0.24633   0.00000  Uiso   1.00
O36    O     0.22858   0.24755   0.25586   0.00000  Uiso   1.00
O37    O     0.09181   0.15960   0.31839   0.00000  Uiso   1.00
O38    O     0.19242   0.16908   0.32793   0.00000  Uiso   1.00
O39    O     0.10476   0.08578   0.24413   0.00000  Uiso   1.00
O40    O     0.20536   0.09526   0.25367   0.00000  Uiso   1.00
O41    O     0.14092   0.16425   0.17207   0.00000  Uiso   1.00
O42    O     0.24152   0.17373   0.18160   0.00000  Uiso   1.00
C43    C     0.00506   0.22423   0.10373   0.00000  Uiso   1.00
C44    C     0.00047   0.27523   0.13501   0.00000  Uiso   1.00
H45    H     0.28717   0.27191   0.16115   0.00000  Uiso   1.00
H46    H     0.03794   0.28478   0.15771   0.00000  Uiso   1.00
H47    H     0.00717   0.30788   0.10937   0.00000  Uiso   1.00
H48    H     0.00800   0.19274   0.12737   0.00000  Uiso   1.00
H49    H     0.05116   0.23135   0.07625   0.00000  Uiso   1.00
C50    C     0.22894   0.01922   0.30157   0.00000  Uiso   1.00
C51    C     0.23925   0.32104   0.34253   0.00000  Uiso   1.00
H52    H     0.19313   0.29808   0.36242   0.00000  Uiso   1.00
H53    H     0.27239   0.29523   0.32585   0.00000  Uiso   1.00
H54    H     0.26114   0.01479   0.37085   0.00000  Uiso   1.00
H55    H     0.27530   0.03586   0.27705   0.00000  Uiso   1.00
H56    H     0.20907   0.05169   0.32341   0.00000  Uiso   1.00
C57    C     0.51320   0.26653   0.25645   0.00000  Uiso   1.00
C58    C     0.47415   0.16546   0.48733   0.00000  Uiso   1.00
C59    C     0.49055   0.18042   0.43591   0.00000  Uiso   1.00
C60    C     0.52131   0.17868   0.01772   0.00000  Uiso   1.00
C61    C     0.58226   0.20799   0.49687   0.00000  Uiso   1.00
C62    C     0.59563   0.22547   0.44795   0.00000  Uiso   1.00
C63    C     0.55044   0.21286   0.41859   0.00000  Uiso   1.00
C64    C     0.51001   0.16411   0.06821   0.00000  Uiso   1.00
C65    C     0.61776   0.20701   0.07574   0.00000  Uiso   1.00
C66    C     0.44663   0.16284   0.40327   0.00000  Uiso   1.00
C67    C     0.51675   0.32202   0.26843   0.00000  Uiso   1.00
C68    C     0.46654   0.16543   0.34732   0.00000  Uiso   1.00
C69    C     0.47740   0.01075   0.25003   0.00000  Uiso   1.00
C70    C     0.48446   0.06662   0.25019   0.00000  Uiso   1.00
C71    C     0.53438   0.17118   0.15302   0.00000  Uiso   1.00
C72    C     0.62958   0.22081   0.02522   0.00000  Uiso   1.00
C73    C     0.55601   0.17968   0.09811   0.00000  Uiso   1.00
C74    C     0.38495   0.13661   0.42381   0.00000  Uiso   1.00
C75    C     0.36754   0.12492   0.47480   0.00000  Uiso   1.00
C76    C     0.41141   0.13816   0.00609   0.00000  Uiso   1.00
Cu77   Cu    0.44043   0.16105   0.24435   0.00000  Uiso   1.00
Cu78   Cu    0.55957   0.17228   0.25564   0.00000  Uiso   1.00
H79    H     0.44185   0.32071   0.23048   0.00000  Uiso   1.00
H80    H     0.33702   0.20601   0.28975   0.00000  Uiso   1.00
H81    H     0.66294   0.12732   0.21027   0.00000  Uiso   1.00
H82    H     0.64143   0.24949   0.43219   0.00000  Uiso   1.00
H83    H     0.34268   0.24284   0.00800   0.00000  Uiso   1.00
H84    H     0.46491   0.14118   0.08577   0.00000  Uiso   1.00
H85    H     0.35054   0.12337   0.39999   0.00000  Uiso   1.00
H86    H     0.39413   0.12702   0.04491   0.00000  Uiso   1.00
H87    H     0.65310   0.10435   0.49009   0.00000  Uiso   1.00
H88    H     0.56393   0.23002   0.38234   0.00000  Uiso   1.00
N89    N     0.64908   0.18074   0.26416   0.00000  Uiso   1.00
N90    N     0.35092   0.15259   0.23584   0.00000  Uiso   1.00
O91    O     0.46131   0.23807   0.24633   0.00000  Uiso   1.00
O92    O     0.56191   0.24755   0.25586   0.00000  Uiso   1.00
O93    O     0.42515   0.15960   0.31839   0.00000  Uiso   1.00
O94    O     0.52575   0.16908   0.32793   0.00000  Uiso   1.00
O95    O     0.43809   0.08578   0.24413   0.00000  Uiso   1.00
O96    O     0.53869   0.09526   0.25367   0.00000  Uiso   1.00
O97    O     0.47425   0.16425   0.17207   0.00000  Uiso   1.00
O98    O     0.57485   0.17373   0.18160   0.00000  Uiso   1.00
C99    C     0.33840   0.22423   0.10373   0.00000  Uiso   1.00
C100   C     0.33380   0.27523   0.13501   0.00000  Uiso   1.00
H101   H     0.62051   0.27191   0.16115   0.00000  Uiso   1.00
H102   H     0.37127   0.28478   0.15771   0.00000  Uiso   1.00
H103   H     0.34050   0.30788   0.10937   0.00000  Uiso   1.00
H104   H     0.34134   0.19274   0.12737   0.00000  Uiso   1.00
H105   H     0.38449   0.23135   0.07625   0.00000  Uiso   1.00
C106   C     0.56228   0.01922   0.30157   0.00000  Uiso   1.00
C107   C     0.57258   0.32104   0.34253   0.00000  Uiso   1.00
H108   H     0.52647   0.29808   0.36242   0.00000  Uiso   1.00
H109   H     0.60573   0.29523   0.32585   0.00000  Uiso   1.00
H110   H     0.59448   0.01479   0.37085   0.00000  Uiso   1.00
H111   H     0.60863   0.03586   0.27705   0.00000  Uiso   1.00
H112   H     0.54240   0.05169   0.32341   0.00000  Uiso   1.00
C113   C     0.84653   0.26653   0.25645   0.00000  Uiso   1.00
C114   C     0.80749   0.16546   0.48733   0.00000  Uiso   1.00
C115   C     0.82388   0.18042   0.43591   0.00000  Uiso   1.00
C116   C     0.85465   0.17868   0.01772   0.00000  Uiso   1.00
C117   C     0.91559   0.20799   0.49687   0.00000  Uiso   1.00
C118   C     0.92896   0.22547   0.44795   0.00000  Uiso   1.00
C119   C     0.88377   0.21286   0.41859   0.00000  Uiso   1.00
C120   C     0.84335   0.16411   0.06821   0.00000  Uiso   1.00
C121   C     0.95109   0.20701   0.07574   0.00000  Uiso   1.00
C122   C     0.77996   0.16284   0.40327   0.00000  Uiso   1.00
C123   C     0.85008   0.32202   0.26843   0.00000  Uiso   1.00
C124   C     0.79988   0.16543   0.34732   0.00000  Uiso   1.00
C125   C     0.81074   0.01075   0.25003   0.00000  Uiso   1.00
C126   C     0.81779   0.06662   0.25019   0.00000  Uiso   1.00
C127   C     0.86771   0.17118   0.15302   0.00000  Uiso   1.00
C128   C     0.96291   0.22081   0.02522   0.00000  Uiso   1.00
C129   C     0.88934   0.17968   0.09811   0.00000  Uiso   1.00
C130   C     0.71828   0.13661   0.42381   0.00000  Uiso   1.00
C131   C     0.70087   0.12492   0.47480   0.00000  Uiso   1.00
C132   C     0.74475   0.13816   0.00609   0.00000  Uiso   1.00
Cu133  Cu    0.77377   0.16105   0.24435   0.00000  Uiso   1.00
Cu134  Cu    0.89290   0.17228   0.25564   0.00000  Uiso   1.00
H135   H     0.77518   0.32071   0.23048   0.00000  Uiso   1.00
H136   H     0.67036   0.20601   0.28975   0.00000  Uiso   1.00
H137   H     0.99628   0.12732   0.21027   0.00000  Uiso   1.00
H138   H     0.97476   0.24949   0.43219   0.00000  Uiso   1.00
H139   H     0.67601   0.24284   0.00800   0.00000  Uiso   1.00
H140   H     0.79824   0.14118   0.08577   0.00000  Uiso   1.00
H141   H     0.68388   0.12337   0.39999   0.00000  Uiso   1.00
H142   H     0.72746   0.12702   0.04491   0.00000  Uiso   1.00
H143   H     0.98643   0.10435   0.49009   0.00000  Uiso   1.00
H144   H     0.89727   0.23002   0.38234   0.00000  Uiso   1.00
N145   N     0.98241   0.18074   0.26416   0.00000  Uiso   1.00
N146   N     0.68426   0.15259   0.23584   0.00000  Uiso   1.00
O147   O     0.79464   0.23807   0.24633   0.00000  Uiso   1.00
O148   O     0.89524   0.24755   0.25586   0.00000  Uiso   1.00
O149   O     0.75848   0.15960   0.31839   0.00000  Uiso   1.00
O150   O     0.85908   0.16908   0.32793   0.00000  Uiso   1.00
O151   O     0.77142   0.08578   0.24413   0.00000  Uiso   1.00
O152   O     0.87203   0.09526   0.25367   0.00000  Uiso   1.00
O153   O     0.80758   0.16425   0.17207   0.00000  Uiso   1.00
O154   O     0.90819   0.17373   0.18160   0.00000  Uiso   1.00
C155   C     0.67173   0.22423   0.10373   0.00000  Uiso   1.00
C156   C     0.66714   0.27523   0.13501   0.00000  Uiso   1.00
H157   H     0.95384   0.27191   0.16115   0.00000  Uiso   1.00
H158   H     0.70460   0.28478   0.15771   0.00000  Uiso   1.00
H159   H     0.67383   0.30788   0.10937   0.00000  Uiso   1.00
H160   H     0.67467   0.19274   0.12737   0.00000  Uiso   1.00
H161   H     0.71783   0.23135   0.07625   0.00000  Uiso   1.00
C162   C     0.89561   0.01922   0.30157   0.00000  Uiso   1.00
C163   C     0.90592   0.32104   0.34253   0.00000  Uiso   1.00
H164   H     0.85980   0.29808   0.36242   0.00000  Uiso   1.00
H165   H     0.93906   0.29523   0.32585   0.00000  Uiso   1.00
H166   H     0.92781   0.01479   0.37085   0.00000  Uiso   1.00
H167   H     0.94197   0.03586   0.27705   0.00000  Uiso   1.00
H168   H     0.87573   0.05169   0.32341   0.00000  Uiso   1.00
C169   C     0.17986   0.59986   0.25645   0.00000  Uiso   1.00
C170   C     0.14082   0.49879   0.48733   0.00000  Uiso   1.00
C171   C     0.15722   0.51375   0.43591   0.00000  Uiso   1.00
C172   C     0.18798   0.51201   0.01772   0.00000  Uiso   1.00
C173   C     0.24892   0.54132   0.49687   0.00000  Uiso   1.00
C174   C     0.26230   0.55881   0.44795   0.00000  Uiso   1.00
C175   C     0.21710   0.54619   0.41859   0.00000  Uiso   1.00
C176   C     0.17668   0.49744   0.06821   0.00000  Uiso   1.00
C177   C     0.28442   0.54034   0.07574   0.00000  Uiso   1.00
C178   C     0.11329   0.49617   0.40327   0.00000  Uiso   1.00
C179   C     0.18341   0.65535   0.26843   0.00000  Uiso   1.00
C180   C     0.13321   0.49877   0.34732   0.00000  Uiso   1.00
C181   C     0.14407   0.34408   0.25003   0.00000  Uiso   1.00
C182   C     0.15113   0.39996   0.25019   0.00000  Uiso   1.00
C183   C     0.20104   0.50451   0.15302   0.00000  Uiso   1.00
C184   C     0.29625   0.55415   0.02522   0.00000  Uiso   1.00
C185   C     0.22268   0.51301   0.09811   0.00000  Uiso   1.00
C186   C     0.05162   0.46994   0.42381   0.00000  Uiso   1.00
C187   C     0.03420   0.45826   0.47480   0.00000  Uiso   1.00
C188   C     0.07808   0.47150   0.00609   0.00000  Uiso   1.00
Cu189  Cu    0.10710   0.49439   0.24435   0.00000  Uiso   1.00
Cu190  Cu    0.22623   0.50561   0.25564   0.00000  Uiso   1.00
H191   H     0.10852   0.65405   0.23048   0.00000  Uiso   1.00
H192   H     0.00369   0.53935   0.28975   0.00000  Uiso   1.00
H193   H     0.32961   0.46065   0.21027   0.00000  Uiso   1.00
H194   H     0.30809   0.58282   0.43219   0.00000  Uiso   1.00
H195   H     0.00935   0.57617   0.00800   0.00000  Uiso   1.00
H196   H     0.13157   0.47451   0.08577   0.00000  Uiso   1.00
H197   H     0.01721   0.45670   0.39999   0.00000  Uiso   1.00
H198   H     0.06080   0.46035   0.04491   0.00000  Uiso   1.00
H199   H     0.31976   0.43768   0.49009   0.00000  Uiso   1.00
H200   H     0.23060   0.56335   0.38234   0.00000  Uiso   1.00
N201   N     0.31574   0.51407   0.26416   0.00000  Uiso   1.00
N202   N     0.01759   0.48593   0.23584   0.00000  Uiso   1.00
O203   O     0.12797   0.57141   0.24633   0.00000  Uiso   1.00
O204   O     0.22858   0.58089   0.25586   0.00000  Uiso   1.00
O205   O     0.09181   0.49293   0.31839   0.00000  Uiso   1.00
O206   O     0.19242   0.50241   0.32793   0.00000  Uiso   1.00
O207   O     0.10476   0.41911   0.24413   0.00000  Uiso   1.00
O208   O     0.20536   0.42859   0.25367   0.00000  Uiso   1.00
O209   O     0.14092   0.49759   0.17207   0.00000  Uiso   1.00
O210   O     0.24152   0.50707   0.18160   0.00000  Uiso   1.00
C211   C     0.00506   0.55756   0.10373   0.00000  Uiso   1.00
C212   C     0.00047   0.60856   0.13501   0.00000  Uiso   1.00
H213   H     0.28717   0.60525   0.16115   0.00000  Uiso   1.00
H214   H     0.03794   0.61811   0.15771   0.00000  Uiso   1.00
H215   H     0.00717   0.64121   0.10937   0.00000  Uiso   1.00
H216   H     0.00800   0.52607   0.12737   0.00000  Uiso   1.00
H217   H     0.05116   0.56469   0.07625   0.00000  Uiso   1.00
C218   C     0.22894   0.35256   0.30157   0.00000  Uiso   1.00
C219   C     0.23925   0.65437   0.34253   0.00000  Uiso   1.00
H220   H     0.19313   0.63142   0.36242   0.00000  Uiso   1.00
H221   H     0.27239   0.62856   0.32585   0.00000  Uiso   1.00
H222   H     0.26114   0.34812   0.37085   0.00000  Uiso   1.00
H223   H     0.27530   0.36920   0.27705   0.00000  Uiso   1.00
H224   H     0.20907   0.38502   0.32341   0.00000  Uiso   1.00
C225   C     0.51320   0.59986   0.25645   0.00000  Uiso   1.00
C226   C     0.47415   0.49879   0.48733   0.00000  Uiso   1.00
C227   C     0.49055   0.51375   0.43591   0.00000  Uiso   1.00
C228   C     0.52131   0.51201   0.01772   0.00000  Uiso   1.00
C229   C     0.58226   0.54132   0.49687   0.00000  Uiso   1.00
C230   C     0.59563   0.55881   0.44795   0.00000  Uiso   1.00
C231   C     0.55044   0.54619   0.41859   0.00000  Uiso   1.00
C232   C     0.51001   0.49744   0.06821   0.00000  Uiso   1.00
C233   C     0.61776   0.54034   0.07574   0.00000  Uiso   1.00
C234   C     0.44663   0.49617   0.40327   0.00000  Uiso   1.00
C235   C     0.51675   0.65535   0.26843   0.00000  Uiso   1.00
C236   C     0.46654   0.49877   0.34732   0.00000  Uiso   1.00
C237   C     0.47740   0.34408   0.25003   0.00000  Uiso   1.00
C238   C     0.48446   0.39996   0.25019   0.00000  Uiso   1.00
C239   C     0.53438   0.50451   0.15302   0.00000  Uiso   1.00
C240   C     0.62958   0.55415   0.02522   0.00000  Uiso   1.00
C241   C     0.55601   0.51301   0.09811   0.00000  Uiso   1.00
C242   C     0.38495   0.46994   0.42381   0.00000  Uiso   1.00
C243   C     0.36754   0.45826   0.47480   0.00000  Uiso   1.00
C244   C     0.41141   0.47150   0.00609   0.00000  Uiso   1.00
Cu245  Cu    0.44043   0.49439   0.24435   0.00000  Uiso   1.00
Cu246  Cu    0.55957   0.50561   0.25564   0.00000  Uiso   1.00
H247   H     0.44185   0.65405   0.23048   0.00000  Uiso   1.00
H248   H     0.33702   0.53935   0.28975   0.00000  Uiso   1.00
H249   H     0.66294   0.46065   0.21027   0.00000  Uiso   1.00
H250   H     0.64143   0.58282   0.43219   0.00000  Uiso   1.00
H251   H     0.34268   0.57617   0.00800   0.00000  Uiso   1.00
H252   H     0.46491   0.47451   0.08577   0.00000  Uiso   1.00
H253   H     0.35054   0.45670   0.39999   0.00000  Uiso   1.00
H254   H     0.39413   0.46035   0.04491   0.00000  Uiso   1.00
H255   H     0.65310   0.43768   0.49009   0.00000  Uiso   1.00
H256   H     0.56393   0.56335   0.38234   0.00000  Uiso   1.00
N257   N     0.64908   0.51407   0.26416   0.00000  Uiso   1.00
N258   N     0.35092   0.48593   0.23584   0.00000  Uiso   1.00
O259   O     0.46131   0.57141   0.24633   0.00000  Uiso   1.00
O260   O     0.56191   0.58089   0.25586   0.00000  Uiso   1.00
O261   O     0.42515   0.49293   0.31839   0.00000  Uiso   1.00
O262   O     0.52575   0.50241   0.32793   0.00000  Uiso   1.00
O263   O     0.43809   0.41911   0.24413   0.00000  Uiso   1.00
O264   O     0.53869   0.42859   0.25367   0.00000  Uiso   1.00
O265   O     0.47425   0.49759   0.17207   0.00000  Uiso   1.00
O266   O     0.57485   0.50707   0.18160   0.00000  Uiso   1.00
C267   C     0.33840   0.55756   0.10373   0.00000  Uiso   1.00
C268   C     0.33380   0.60856   0.13501   0.00000  Uiso   1.00
H269   H     0.62051   0.60525   0.16115   0.00000  Uiso   1.00
H270   H     0.37127   0.61811   0.15771   0.00000  Uiso   1.00
H271   H     0.34050   0.64121   0.10937   0.00000  Uiso   1.00
H272   H     0.34134   0.52607   0.12737   0.00000  Uiso   1.00
H273   H     0.38449   0.56469   0.07625   0.00000  Uiso   1.00
C274   C     0.56228   0.35256   0.30157   0.00000  Uiso   1.00
C275   C     0.57258   0.65437   0.34253   0.00000  Uiso   1.00
H276   H     0.52647   0.63142   0.36242   0.00000  Uiso   1.00
H277   H     0.60573   0.62856   0.32585   0.00000  Uiso   1.00
H278   H     0.59448   0.34812   0.37085   0.00000  Uiso   1.00
H279   H     0.60863   0.36920   0.27705   0.00000  Uiso   1.00
H280   H     0.54240   0.38502   0.32341   0.00000  Uiso   1.00
C281   C     0.84653   0.59986   0.25645   0.00000  Uiso   1.00
C282   C     0.80749   0.49879   0.48733   0.00000  Uiso   1.00
C283   C     0.82388   0.51375   0.43591   0.00000  Uiso   1.00
C284   C     0.85465   0.51201   0.01772   0.00000  Uiso   1.00
C285   C     0.91559   0.54132   0.49687   0.00000  Uiso   1.00
C286   C     0.92896   0.55881   0.44795   0.00000  Uiso   1.00
C287   C     0.88377   0.54619   0.41859   0.00000  Uiso   1.00
C288   C     0.84335   0.49744   0.06821   0.00000  Uiso   1.00
C289   C     0.95109   0.54034   0.07574   0.00000  Uiso   1.00
C290   C     0.77996   0.49617   0.40327   0.00000  Uiso   1.00
C291   C     0.85008   0.65535   0.26843   0.00000  Uiso   1.00
C292   C     0.79988   0.49877   0.34732   0.00000  Uiso   1.00
C293   C     0.81074   0.34408   0.25003   0.00000  Uiso   1.00
C294   C     0.81779   0.39996   0.25019   0.00000  Uiso   1.00
C295   C     0.86771   0.50451   0.15302   0.00000  Uiso   1.00
C296   C     0.96291   0.55415   0.02522   0.00000  Uiso   1.00
C297   C     0.88934   0.51301   0.09811   0.00000  Uiso   1.00
C298   C     0.71828   0.46994   0.42381   0.00000  Uiso   1.00
C299   C     0.70087   0.45826   0.47480   0.00000  Uiso   1.00
C300   C     0.74475   0.47150   0.00609   0.00000  Uiso   1.00
Cu301  Cu    0.77377   0.49439   0.24435   0.00000  Uiso   1.00
Cu302  Cu    0.89290   0.50561   0.25564   0.00000  Uiso   1.00
H303   H     0.77518   0.65405   0.23048   0.00000  Uiso   1.00
H304   H     0.67036   0.53935   0.28975   0.00000  Uiso   1.00
H305   H     0.99628   0.46065   0.21027   0.00000  Uiso   1.00
H306   H     0.97476   0.58282   0.43219   0.00000  Uiso   1.00
H307   H     0.67601   0.57617   0.00800   0.00000  Uiso   1.00
H308   H     0.79824   0.47451   0.08577   0.00000  Uiso   1.00
H309   H     0.68388   0.45670   0.39999   0.00000  Uiso   1.00
H310   H     0.72746   0.46035   0.04491   0.00000  Uiso   1.00
H311   H     0.98643   0.43768   0.49009   0.00000  Uiso   1.00
H312   H     0.89727   0.56335   0.38234   0.00000  Uiso   1.00
N313   N     0.98241   0.51407   0.26416   0.00000  Uiso   1.00
N314   N     0.68426   0.48593   0.23584   0.00000  Uiso   1.00
O315   O     0.79464   0.57141   0.24633   0.00000  Uiso   1.00
O316   O     0.89524   0.58089   0.25586   0.00000  Uiso   1.00
O317   O     0.75848   0.49293   0.31839   0.00000  Uiso   1.00
O318   O     0.85908   0.50241   0.32793   0.00000  Uiso   1.00
O319   O     0.77142   0.41911   0.24413   0.00000  Uiso   1.00
O320   O     0.87203   0.42859   0.25367   0.00000  Uiso   1.00
O321   O     0.80758   0.49759   0.17207   0.00000  Uiso   1.00
O322   O     0.90819   0.50707   0.18160   0.00000  Uiso   1.00
C323   C     0.67173   0.55756   0.10373   0.00000  Uiso   1.00
C324   C     0.66714   0.60856   0.13501   0.00000  Uiso   1.00
H325   H     0.95384   0.60525   0.16115   0.00000  Uiso   1.00
H326   H     0.70460   0.61811   0.15771   0.00000  Uiso   1.00
H327   H     0.67383   0.64121   0.10937   0.00000  Uiso   1.00
H328   H     0.67467   0.52607   0.12737   0.00000  Uiso   1.00
H329   H     0.71783   0.56469   0.07625   0.00000  Uiso   1.00
C330   C     0.89561   0.35256   0.30157   0.00000  Uiso   1.00
C331   C     0.90592   0.65437   0.34253   0.00000  Uiso   1.00
H332   H     0.85980   0.63142   0.36242   0.00000  Uiso   1.00
H333   H     0.93906   0.62856   0.32585   0.00000  Uiso   1.00
H334   H     0.92781   0.34812   0.37085   0.00000  Uiso   1.00
H335   H     0.94197   0.36920   0.27705   0.00000  Uiso   1.00
H336   H     0.87573   0.38502   0.32341   0.00000  Uiso   1.00
C337   C     0.17986   0.93319   0.25645   0.00000  Uiso   1.00
C338   C     0.14082   0.83213   0.48733   0.00000  Uiso   1.00
C339   C     0.15722   0.84708   0.43591   0.00000  Uiso   1.00
C340   C     0.18798   0.84535   0.01772   0.00000  Uiso   1.00
C341   C     0.24892   0.87466   0.49687   0.00000  Uiso   1.00
C342   C     0.26230   0.89214   0.44795   0.00000  Uiso   1.00
C343   C     0.21710   0.87953   0.41859   0.00000  Uiso   1.00
C344   C     0.17668   0.83077   0.06821   0.00000  Uiso   1.00
C345   C     0.28442   0.87367   0.07574   0.00000  Uiso   1.00
C346   C     0.11329   0.82951   0.40327   0.00000  Uiso   1.00
C347   C     0.18341   0.98869   0.26843   0.00000  Uiso   1.00
C348   C     0.13321   0.83210   0.34732   0.00000  Uiso   1.00
C349   C     0.14407   0.67741   0.25003   0.00000  Uiso   1.00
C350   C     0.15113   0.73329   0.25019   0.00000  Uiso   1.00
C351   C     0.20104   0.83784   0.15302   0.00000  Uiso   1.00
C352   C     0.29625   0.88748   0.02522   0.00000  Uiso   1.00
C353   C     0.22268   0.84635   0.09811   0.00000  Uiso   1.00
C354   C     0.05162   0.80327   0.42381   0.00000  Uiso   1.00
C355   C     0.03420   0.79159   0.47480   0.00000  Uiso   1.00
C356   C     0.07808   0.80483   0.00609   0.00000  Uiso   1.00
Cu357  Cu    0.10710   0.82772   0.24435   0.00000  Uiso   1.00
Cu358  Cu    0.22623   0.83895   0.25564   0.00000  Uiso   1.00
H359   H     0.10852   0.98738   0.23048   0.00000  Uiso   1.00
H360   H     0.00369   0.87268   0.28975   0.00000  Uiso   1.00
H361   H     0.32961   0.79399   0.21027   0.00000  Uiso   1.00
H362   H     0.30809   0.91615   0.43219   0.00000  Uiso   1.00
H363   H     0.00935   0.90951   0.00800   0.00000  Uiso   1.00
H364   H     0.13157   0.80785   0.08577   0.00000  Uiso   1.00
H365   H     0.01721   0.79003   0.39999   0.00000  Uiso   1.00
H366   H     0.06080   0.79368   0.04491   0.00000  Uiso   1.00
H367   H     0.31976   0.77102   0.49009   0.00000  Uiso   1.00
H368   H     0.23060   0.89668   0.38234   0.00000  Uiso   1.00
N369   N     0.31574   0.84741   0.26416   0.00000  Uiso   1.00
N370   N     0.01759   0.81926   0.23584   0.00000  Uiso   1.00
O371   O     0.12797   0.90474   0.24633   0.00000  Uiso   1.00
O372   O     0.22858   0.91422   0.25586   0.00000  Uiso   1.00
O373   O     0.09181   0.82627   0.31839   0.00000  Uiso   1.00
O374   O     0.19242   0.83575   0.32793   0.00000  Uiso   1.00
O375   O     0.10476   0.75245   0.24413   0.00000  Uiso   1.00
O376   O     0.20536   0.76193   0.25367   0.00000  Uiso   1.00
O377   O     0.14092   0.83092   0.17207   0.00000  Uiso   1.00
O378   O     0.24152   0.84040   0.18160   0.00000  Uiso   1.00
C379   C     0.00506   0.89089   0.10373   0.00000  Uiso   1.00
C380   C     0.00047   0.94190   0.13501   0.00000  Uiso   1.00
H381   H     0.28717   0.93858   0.16115   0.00000  Uiso   1.00
H382   H     0.03794   0.95145   0.15771   0.00000  Uiso   1.00
H383   H     0.00717   0.97454   0.10937   0.00000  Uiso   1.00
H384   H     0.00800   0.85941   0.12737   0.00000  Uiso   1.00
H385   H     0.05116   0.89802   0.07625   0.00000  Uiso   1.00
C386   C     0.22894   0.68589   0.30157   0.00000  Uiso   1.00
C387   C     0.23925   0.98770   0.34253   0.00000  Uiso   1.00
H388   H     0.19313   0.96475   0.36242   0.00000  Uiso   1.00
H389   H     0.27239   0.96190   0.32585   0.00000  Uiso   1.00
H390   H     0.26114   0.68145   0.37085   0.00000  Uiso   1.00
H391   H     0.27530   0.70253   0.27705   0.00000  Uiso   1.00
H392   H     0.20907   0.71835   0.32341   0.00000  Uiso   1.00
C393   C     0.51320   0.93319   0.25645   0.00000  Uiso   1.00
C394   C     0.47415   0.83213   0.48733   0.00000  Uiso   1.00
C395   C     0.49055   0.84708   0.43591   0.00000  Uiso   1.00
C396   C     0.52131   0.84535   0.01772   0.00000  Uiso   1.00
C397   C     0.58226   0.87466   0.49687   0.00000  Uiso   1.00
C398   C     0.59563   0.89214   0.44795   0.00000  Uiso   1.00
C399   C     0.55044   0.87953   0.41859   0.00000  Uiso   1.00
C400   C     0.51001   0.83077   0.06821   0.00000  Uiso   1.00
C401   C     0.61776   0.87367   0.07574   0.00000  Uiso   1.00
C402   C     0.44663   0.82951   0.40327   0.00000  Uiso   1.00
C403   C     0.51675   0.98869   0.26843   0.00000  Uiso   1.00
C404   C     0.46654   0.83210   0.34732   0.00000  Uiso   1.00
C405   C     0.47740   0.67741   0.25003   0.00000  Uiso   1.00
C406   C     0.48446   0.73329   0.25019   0.00000  Uiso   1.00
C407   C     0.53438   0.83784   0.15302   0.00000  Uiso   1.00
C408   C     0.62958   0.88748   0.02522   0.00000  Uiso   1.00
C409   C     0.55601   0.84635   0.09811   0.00000  Uiso   1.00
C410   C     0.38495   0.80327   0.42381   0.00000  Uiso   1.00
C411   C     0.36754   0.79159   0.47480   0.00000  Uiso   1.00
C412   C     0.41141   0.80483   0.00609   0.00000  Uiso   1.00
Cu413  Cu    0.44043   0.82772   0.24435   0.00000  Uiso   1.00
Cu414  Cu    0.55957   0.83895   0.25564   0.00000  Uiso   1.00
H415   H     0.44185   0.98738   0.23048   0.00000  Uiso   1.00
H416   H     0.33702   0.87268   0.28975   0.00000  Uiso   1.00
H417   H     0.66294   0.79399   0.21027   0.00000  Uiso   1.00
H418   H     0.64143   0.91615   0.43219   0.00000  Uiso   1.00
H419   H     0.34268   0.90951   0.00800   0.00000  Uiso   1.00
H420   H     0.46491   0.80785   0.08577   0.00000  Uiso   1.00
H421   H     0.35054   0.79003   0.39999   0.00000  Uiso   1.00
H422   H     0.39413   0.79368   0.04491   0.00000  Uiso   1.00
H423   H     0.65310   0.77102   0.49009   0.00000  Uiso   1.00
H424   H     0.56393   0.89668   0.38234   0.00000  Uiso   1.00
N425   N     0.64908   0.84741   0.26416   0.00000  Uiso   1.00
N426   N     0.35092   0.81926   0.23584   0.00000  Uiso   1.00
O427   O     0.46131   0.90474   0.24633   0.00000  Uiso   1.00
O428   O     0.56191   0.91422   0.25586   0.00000  Uiso   1.00
O429   O     0.42515   0.82627   0.31839   0.00000  Uiso   1.00
O430   O     0.52575   0.83575   0.32793   0.00000  Uiso   1.00
O431   O     0.43809   0.75245   0.24413   0.00000  Uiso   1.00
O432   O     0.53869   0.76193   0.25367   0.00000  Uiso   1.00
O433   O     0.47425   0.83092   0.17207   0.00000  Uiso   1.00
O434   O     0.57485   0.84040   0.18160   0.00000  Uiso   1.00
C435   C     0.33840   0.89089   0.10373   0.00000  Uiso   1.00
C436   C     0.33380   0.94190   0.13501   0.00000  Uiso   1.00
H437   H     0.62051   0.93858   0.16115   0.00000  Uiso   1.00
H438   H     0.37127   0.95145   0.15771   0.00000  Uiso   1.00
H439   H     0.34050   0.97454   0.10937   0.00000  Uiso   1.00
H440   H     0.34134   0.85941   0.12737   0.00000  Uiso   1.00
H441   H     0.38449   0.89802   0.07625   0.00000  Uiso   1.00
C442   C     0.56228   0.68589   0.30157   0.00000  Uiso   1.00
C443   C     0.57258   0.98770   0.34253   0.00000  Uiso   1.00
H444   H     0.52647   0.96475   0.36242   0.00000  Uiso   1.00
H445   H     0.60573   0.96190   0.32585   0.00000  Uiso   1.00
H446   H     0.59448   0.68145   0.37085   0.00000  Uiso   1.00
H447   H     0.60863   0.70253   0.27705   0.00000  Uiso   1.00
H448   H     0.54240   0.71835   0.32341   0.00000  Uiso   1.00
C449   C     0.84653   0.93319   0.25645   0.00000  Uiso   1.00
C450   C     0.80749   0.83213   0.48733   0.00000  Uiso   1.00
C451   C     0.82388   0.84708   0.43591   0.00000  Uiso   1.00
C452   C     0.85465   0.84535   0.01772   0.00000  Uiso   1.00
C453   C     0.91559   0.87466   0.49687   0.00000  Uiso   1.00
C454   C     0.92896   0.89214   0.44795   0.00000  Uiso   1.00
C455   C     0.88377   0.87953   0.41859   0.00000  Uiso   1.00
C456   C     0.84335   0.83077   0.06821   0.00000  Uiso   1.00
C457   C     0.95109   0.87367   0.07574   0.00000  Uiso   1.00
C458   C     0.77996   0.82951   0.40327   0.00000  Uiso   1.00
C459   C     0.85008   0.98869   0.26843   0.00000  Uiso   1.00
C460   C     0.79988   0.83210   0.34732   0.00000  Uiso   1.00
C461   C     0.81074   0.67741   0.25003   0.00000  Uiso   1.00
C462   C     0.81779   0.73329   0.25019   0.00000  Uiso   1.00
C463   C     0.86771   0.83784   0.15302   0.00000  Uiso   1.00
C464   C     0.96291   0.88748   0.02522   0.00000  Uiso   1.00
C465   C     0.88934   0.84635   0.09811   0.00000  Uiso   1.00
C466   C     0.71828   0.80327   0.42381   0.00000  Uiso   1.00
C467   C     0.70087   0.79159   0.47480   0.00000  Uiso   1.00
C468   C     0.74475   0.80483   0.00609   0.00000  Uiso   1.00
Cu469  Cu    0.77377   0.82772   0.24435   0.00000  Uiso   1.00
Cu470  Cu    0.89290   0.83895   0.25564   0.00000  Uiso   1.00
H471   H     0.77518   0.98738   0.23048   0.00000  Uiso   1.00
H472   H     0.67036   0.87268   0.28975   0.00000  Uiso   1.00
H473   H     0.99628   0.79399   0.21027   0.00000  Uiso   1.00
H474   H     0.97476   0.91615   0.43219   0.00000  Uiso   1.00
H475   H     0.67601   0.90951   0.00800   0.00000  Uiso   1.00
H476   H     0.79824   0.80785   0.08577   0.00000  Uiso   1.00
H477   H     0.68388   0.79003   0.39999   0.00000  Uiso   1.00
H478   H     0.72746   0.79368   0.04491   0.00000  Uiso   1.00
H479   H     0.98643   0.77102   0.49009   0.00000  Uiso   1.00
H480   H     0.89727   0.89668   0.38234   0.00000  Uiso   1.00
N481   N     0.98241   0.84741   0.26416   0.00000  Uiso   1.00
N482   N     0.68426   0.81926   0.23584   0.00000  Uiso   1.00
O483   O     0.79464   0.90474   0.24633   0.00000  Uiso   1.00
O484   O     0.89524   0.91422   0.25586   0.00000  Uiso   1.00
O485   O     0.75848   0.82627   0.31839   0.00000  Uiso   1.00
O486   O     0.85908   0.83575   0.32793   0.00000  Uiso   1.00
O487   O     0.77142   0.75245   0.24413   0.00000  Uiso   1.00
O488   O     0.87203   0.76193   0.25367   0.00000  Uiso   1.00
O489   O     0.80758   0.83092   0.17207   0.00000  Uiso   1.00
O490   O     0.90819   0.84040   0.18160   0.00000  Uiso   1.00
C491   C     0.67173   0.89089   0.10373   0.00000  Uiso   1.00
C492   C     0.66714   0.94190   0.13501   0.00000  Uiso   1.00
H493   H     0.95384   0.93858   0.16115   0.00000  Uiso   1.00
H494   H     0.70460   0.95145   0.15771   0.00000  Uiso   1.00
H495   H     0.67383   0.97454   0.10937   0.00000  Uiso   1.00
H496   H     0.67467   0.85941   0.12737   0.00000  Uiso   1.00
H497   H     0.71783   0.89802   0.07625   0.00000  Uiso   1.00
C498   C     0.89561   0.68589   0.30157   0.00000  Uiso   1.00
C499   C     0.90592   0.98770   0.34253   0.00000  Uiso   1.00
H500   H     0.85980   0.96475   0.36242   0.00000  Uiso   1.00
H501   H     0.93906   0.96190   0.32585   0.00000  Uiso   1.00
H502   H     0.92781   0.68145   0.37085   0.00000  Uiso   1.00
H503   H     0.94197   0.70253   0.27705   0.00000  Uiso   1.00
H504   H     0.87573   0.71835   0.32341   0.00000  Uiso   1.00
C505   C     0.17986   0.26653   0.75645   0.00000  Uiso   1.00
C506   C     0.14082   0.16546   0.98733   0.00000  Uiso   1.00
C507   C     0.15722   0.18042   0.93591   0.00000  Uiso   1.00
C508   C     0.18798   0.17868   0.51772   0.00000  Uiso   1.00
C509   C     0.24892   0.20799   0.99687   0.00000  Uiso   1.00
C510   C     0.26230   0.22547   0.94795   0.00000  Uiso   1.00
C511   C     0.21710   0.21286   0.91859   0.00000  Uiso   1.00
C512   C     0.17668   0.16411   0.56821   0.00000  Uiso   1.00
C513   C     0.28442   0.20701   0.57574   0.00000  Uiso   1.00
C514   C     0.11329   0.16284   0.90327   0.00000  Uiso   1.00
C515   C     0.18341   0.32202   0.76843   0.00000  Uiso   1.00
C516   C     0.13321   0.16543   0.84732   0.00000  Uiso   1.00
C517   C     0.14407   0.01075   0.75003   0.00000  Uiso   1.00
C518   C     0.15113   0.06662   0.75019   0.00000  Uiso   1.00
C519   C     0.20104   0.17118   0.65302   0.00000  Uiso   1.00
C520   C     0.29625   0.22081   0.52522   0.00000  Uiso   1.00
C521   C     0.22268   0.17968   0.59811   0.00000  Uiso   1.00
C522   C     0.05162   0.13661   0.92381   0.00000  Uiso   1.00
C523   C     0.03420   0.12492   0.97480   0.00000  Uiso   1.00
C524   C     0.07808   0.13816   0.50609   0.00000  Uiso   1.00
Cu525  Cu    0.10710   0.16105   0.74435   0.00000  Uiso   1.00
Cu526  Cu    0.22623   0.17228   0.75564   0.00000  Uiso   1.00
H527   H     0.10852   0.32071   0.73048   0.00000  Uiso   1.00
H528   H     0.00369   0.20601   0.78975   0.00000  Uiso   1.00
H529   H     0.32961   0.12732   0.71027   0.00000  Uiso   1.00
H530   H     0.30809   0.24949   0.93219   0.00000  Uiso   1.00
H531   H     0.00935   0.24284   0.50800   0.00000  Uiso   1.00
H532   H     0.13157   0.14118   0.58577   0.00000  Uiso   1.00
H533   H     0.01721   0.12337   0.89999   0.00000  Uiso   1.00
H534   H     0.06080   0.12702   0.54491   0.00000  Uiso   1.00
H535   H     0.31976   0.10435   0.99009   0.00000  Uiso   1.00
H536   H     0.23060   0.23002   0.88234   0.00000  Uiso   1.00
N537   N     0.31574   0.18074   0.76416   0.00000  Uiso   1.00
N538   N     0.01759   0.15259   0.73584   0.00000  Uiso   1.00
O539   O     0.12797   0.23807   0.74633   0.00000  Uiso   1.00
O540   O     0.22858   0.24755   0.75586   0.00000  Uiso   1.00
O541   O     0.09181   0.15960   0.81839   0.00000  Uiso   1.00
O542   O     0.19242   0.16908   0.82793   0.00000  Uiso   1.00
O543   O     0.10476   0.08578   0.74413   0.00000  Uiso   1.00
O544   O     0.20536   0.09526   0.75367   0.00000  Uiso   1.00
O545   O     0.14092   0.16425   0.67207   0.00000  Uiso   1.00
O546   O     0.24152   0.17373   0.68160   0.00000  Uiso   1.00
C547   C     0.00506   0.22423   0.60373   0.00000  Uiso   1.00
C548   C     0.00047   0.27523   0.63501   0.00000  Uiso   1.00
H549   H     0.28717   0.27191   0.66115   0.00000  Uiso   1.00
H550   H     0.03794   0.28478   0.65771   0.00000  Uiso   1.00
H551   H     0.00717   0.30788   0.60937   0.00000  Uiso   1.00
H552   H     0.00800   0.19274   0.62737   0.00000  Uiso   1.00
H553   H     0.05116   0.23135   0.57625   0.00000  Uiso   1.00
C554   C     0.22894   0.01922   0.80157   0.00000  Uiso   1.00
C555   C     0.23925   0.32104   0.84253   0.00000  Uiso   1.00
H556   H     0.19313   0.29808   0.86242   0.00000  Uiso   1.00
H557   H     0.27239   0.29523   0.82585   0.00000  Uiso   1.00
H558   H     0.26114   0.01479   0.87085   0.00000  Uiso   1.00
H559   H     0.27530   0.03586   0.77705   0.00000  Uiso   1.00
H560   H     0.20907   0.05169   0.82341   0.00000  Uiso   1.00
C561   C     0.51320   0.26653   0.75645   0.00000  Uiso   1.00
C562   C     0.47415   0.16546   0.98733   0.00000  Uiso   1.00
C563   C     0.49055   0.18042   0.93591   0.00000  Uiso   1.00
C564   C     0.52131   0.17868   0.51772   0.00000  Uiso   1.00
C565   C     0.58226   0.20799   0.99687   0.00000  Uiso   1.00
C566   C     0.59563   0.22547   0.94795   0.00000  Uiso   1.00
C567   C     0.55044   0.21286   0.91859   0.00000  Uiso   1.00
C568   C     0.51001   0.16411   0.56821   0.00000  Uiso   1.00
C569   C     0.61776   0.20701   0.57574   0.00000  Uiso   1.00
C570   C     0.44663   0.16284   0.90327   0.00000  Uiso   1.00
C571   C     0.51675   0.32202   0.76843   0.00000  Uiso   1.00
C572   C     0.46654   0.16543   0.84732   0.00000  Uiso   1.00
C573   C     0.47740   0.01075   0.75003   0.00000  Uiso   1.00
C574   C     0.48446   0.06662   0.75019   0.00000  Uiso   1.00
C575   C     0.53438   0.17118   0.65302   0.00000  Uiso   1.00
C576   C     0.62958   0.22081   0.52522   0.00000  Uiso   1.00
C577   C     0.55601   0.17968   0.59811   0.00000  Uiso   1.00
C578   C     0.38495   0.13661   0.92381   0.00000  Uiso   1.00
C579   C     0.36754   0.12492   0.97480   0.00000  Uiso   1.00
C580   C     0.41141   0.13816   0.50609   0.00000  Uiso   1.00
Cu581  Cu    0.44043   0.16105   0.74435   0.00000  Uiso   1.00
Cu582  Cu    0.55957   0.17228   0.75564   0.00000  Uiso   1.00
H583   H     0.44185   0.32071   0.73048   0.00000  Uiso   1.00
H584   H     0.33702   0.20601   0.78975   0.00000  Uiso   1.00
H585   H     0.66294   0.12732   0.71027   0.00000  Uiso   1.00
H586   H     0.64143   0.24949   0.93219   0.00000  Uiso   1.00
H587   H     0.34268   0.24284   0.50800   0.00000  Uiso   1.00
H588   H     0.46491   0.14118   0.58577   0.00000  Uiso   1.00
H589   H     0.35054   0.12337   0.89999   0.00000  Uiso   1.00
H590   H     0.39413   0.12702   0.54491   0.00000  Uiso   1.00
H591   H     0.65310   0.10435   0.99009   0.00000  Uiso   1.00
H592   H     0.56393   0.23002   0.88234   0.00000  Uiso   1.00
N593   N     0.64908   0.18074   0.76416   0.00000  Uiso   1.00
N594   N     0.35092   0.15259   0.73584   0.00000  Uiso   1.00
O595   O     0.46131   0.23807   0.74633   0.00000  Uiso   1.00
O596   O     0.56191   0.24755   0.75586   0.00000  Uiso   1.00
O597   O     0.42515   0.15960   0.81839   0.00000  Uiso   1.00
O598   O     0.52575   0.16908   0.82793   0.00000  Uiso   1.00
O599   O     0.43809   0.08578   0.74413   0.00000  Uiso   1.00
O600   O     0.53869   0.09526   0.75367   0.00000  Uiso   1.00
O601   O     0.47425   0.16425   0.67207   0.00000  Uiso   1.00
O602   O     0.57485   0.17373   0.68160   0.00000  Uiso   1.00
C603   C     0.33840   0.22423   0.60373   0.00000  Uiso   1.00
C604   C     0.33380   0.27523   0.63501   0.00000  Uiso   1.00
H605   H     0.62051   0.27191   0.66115   0.00000  Uiso   1.00
H606   H     0.37127   0.28478   0.65771   0.00000  Uiso   1.00
H607   H     0.34050   0.30788   0.60937   0.00000  Uiso   1.00
H608   H     0.34134   0.19274   0.62737   0.00000  Uiso   1.00
H609   H     0.38449   0.23135   0.57625   0.00000  Uiso   1.00
C610   C     0.56228   0.01922   0.80157   0.00000  Uiso   1.00
C611   C     0.57258   0.32104   0.84253   0.00000  Uiso   1.00
H612   H     0.52647   0.29808   0.86242   0.00000  Uiso   1.00
H613   H     0.60573   0.29523   0.82585   0.00000  Uiso   1.00
H614   H     0.59448   0.01479   0.87085   0.00000  Uiso   1.00
H615   H     0.60863   0.03586   0.77705   0.00000  Uiso   1.00
H616   H     0.54240   0.05169   0.82341   0.00000  Uiso   1.00
C617   C     0.84653   0.26653   0.75645   0.00000  Uiso   1.00
C618   C     0.80749   0.16546   0.98733   0.00000  Uiso   1.00
C619   C     0.82388   0.18042   0.93591   0.00000  Uiso   1.00
C620   C     0.85465   0.17868   0.51772   0.00000  Uiso   1.00
C621   C     0.91559   0.20799   0.99687   0.00000  Uiso   1.00
C622   C     0.92896   0.22547   0.94795   0.00000  Uiso   1.00
C623   C     0.88377   0.21286   0.91859   0.00000  Uiso   1.00
C624   C     0.84335   0.16411   0.56821   0.00000  Uiso   1.00
C625   C     0.95109   0.20701   0.57574   0.00000  Uiso   1.00
C626   C     0.77996   0.16284   0.90327   0.00000  Uiso   1.00
C627   C     0.85008   0.32202   0.76843   0.00000  Uiso   1.00
C628   C     0.79988   0.16543   0.84732   0.00000  Uiso   1.00
C629   C     0.81074   0.01075   0.75003   0.00000  Uiso   1.00
C630   C     0.81779   0.06662   0.75019   0.00000  Uiso   1.00
C631   C     0.86771   0.17118   0.65302   0.00000  Uiso   1.00
C632   C     0.96291   0.22081   0.52522   0.00000  Uiso   1.00
C633   C     0.88934   0.17968   0.59811   0.00000  Uiso   1.00
C634   C     0.71828   0.13661   0.92381   0.00000  Uiso   1.00
C635   C     0.70087   0.12492   0.97480   0.00000  Uiso   1.00
C636   C     0.74475   0.13816   0.50609   0.00000  Uiso   1.00
Cu637  Cu    0.77377   0.16105   0.74435   0.00000  Uiso   1.00
Cu638  Cu    0.89290   0.17228   0.75564   0.00000  Uiso   1.00
H639   H     0.77518   0.32071   0.73048   0.00000  Uiso   1.00
H640   H     0.67036   0.20601   0.78975   0.00000  Uiso   1.00
H641   H     0.99628   0.12732   0.71027   0.00000  Uiso   1.00
H642   H     0.97476   0.24949   0.93219   0.00000  Uiso   1.00
H643   H     0.67601   0.24284   0.50800   0.00000  Uiso   1.00
H644   H     0.79824   0.14118   0.58577   0.00000  Uiso   1.00
H645   H     0.68388   0.12337   0.89999   0.00000  Uiso   1.00
H646   H     0.72746   0.12702   0.54491   0.00000  Uiso   1.00
H647   H     0.98643   0.10435   0.99009   0.00000  Uiso   1.00
H648   H     0.89727   0.23002   0.88234   0.00000  Uiso   1.00
N649   N     0.98241   0.18074   0.76416   0.00000  Uiso   1.00
N650   N     0.68426   0.15259   0.73584   0.00000  Uiso   1.00
O651   O     0.79464   0.23807   0.74633   0.00000  Uiso   1.00
O652   O     0.89524   0.24755   0.75586   0.00000  Uiso   1.00
O653   O     0.75848   0.15960   0.81839   0.00000  Uiso   1.00
O654   O     0.85908   0.16908   0.82793   0.00000  Uiso   1.00
O655   O     0.77142   0.08578   0.74413   0.00000  Uiso   1.00
O656   O     0.87203   0.09526   0.75367   0.00000  Uiso   1.00
O657   O     0.80758   0.16425   0.67207   0.00000  Uiso   1.00
O658   O     0.90819   0.17373   0.68160   0.00000  Uiso   1.00
C659   C     0.67173   0.22423   0.60373   0.00000  Uiso   1.00
C660   C     0.66714   0.27523   0.63501   0.00000  Uiso   1.00
H661   H     0.95384   0.27191   0.66115   0.00000  Uiso   1.00
H662   H     0.70460   0.28478   0.65771   0.00000  Uiso   1.00
H663   H     0.67383   0.30788   0.60937   0.00000  Uiso   1.00
H664   H     0.67467   0.19274   0.62737   0.00000  Uiso   1.00
H665   H     0.71783   0.23135   0.57625   0.00000  Uiso   1.00
C666   C     0.89561   0.01922   0.80157   0.00000  Uiso   1.00
C667   C     0.90592   0.32104   0.84253   0.00000  Uiso   1.00
H668   H     0.85980   0.29808   0.86242   0.00000  Uiso   1.00
H669   H     0.93906   0.29523   0.82585   0.00000  Uiso   1.00
H670   H     0.92781   0.01479   0.87085   0.00000  Uiso   1.00
H671   H     0.94197   0.03586   0.77705   0.00000  Uiso   1.00
H672   H     0.87573   0.05169   0.82341   0.00000  Uiso   1.00
C673   C     0.17986   0.59986   0.75645   0.00000  Uiso   1.00
C674   C     0.14082   0.49879   0.98733   0.00000  Uiso   1.00
C675   C     0.15722   0.51375   0.93591   0.00000  Uiso   1.00
C676   C     0.18798   0.51201   0.51772   0.00000  Uiso   1.00
C677   C     0.24892   0.54132   0.99687   0.00000  Uiso   1.00
C678   C     0.26230   0.55881   0.94795   0.00000  Uiso   1.00
C679   C     0.21710   0.54619   0.91859   0.00000  Uiso   1.00
C680   C     0.17668   0.49744   0.56821   0.00000  Uiso   1.00
C681   C     0.28442   0.54034   0.57574   0.00000  Uiso   1.00
C682   C     0.11329   0.49617   0.90327   0.00000  Uiso   1.00
C683   C     0.18341   0.65535   0.76843   0.00000  Uiso   1.00
C684   C     0.13321   0.49877   0.84732   0.00000  Uiso   1.00
C685   C     0.14407   0.34408   0.75003   0.00000  Uiso   1.00
C686   C     0.15113   0.39996   0.75019   0.00000  Uiso   1.00
C687   C     0.20104   0.50451   0.65302   0.00000  Uiso   1.00
C688   C     0.29625   0.55415   0.52522   0.00000  Uiso   1.00
C689   C     0.22268   0.51301   0.59811   0.00000  Uiso   1.00
C690   C     0.05162   0.46994   0.92381   0.00000  Uiso   1.00
C691   C     0.03420   0.45826   0.97480   0.00000  Uiso   1.00
C692   C     0.07808   0.47150   0.50609   0.00000  Uiso   1.00
Cu693  Cu    0.10710   0.49439   0.74435   0.00000  Uiso   1.00
Cu694  Cu    0.22623   0.50561   0.75564   0.00000  Uiso   1.00
H695   H     0.10852   0.65405   0.73048   0.00000  Uiso   1.00
H696   H     0.00369   0.53935   0.78975   0.00000  Uiso   1.00
H697   H     0.32961   0.46065   0.71027   0.00000  Uiso   1.00
H698   H     0.30809   0.58282   0.93219   0.00000  Uiso   1.00
H699   H     0.00935   0.57617   0.50800   0.00000  Uiso   1.00
H700   H     0.13157   0.47451   0.58577   0.00000  Uiso   1.00
H701   H     0.01721   0.45670   0.89999   0.00000  Uiso   1.00
H702   H     0.06080   0.46035   0.54491   0.00000  Uiso   1.00
H703   H     0.31976   0.43768   0.99009   0.00000  Uiso   1.00
H704   H     0.23060   0.56335   0.88234   0.00000  Uiso   1.00
N705   N     0.31574   0.51407   0.76416   0.00000  Uiso   1.00
N706   N     0.01759   0.48593   0.73584   0.00000  Uiso   1.00
O707   O     0.12797   0.57141   0.74633   0.00000  Uiso   1.00
O708   O     0.22858   0.58089   0.75586   0.00000  Uiso   1.00
O709   O     0.09181   0.49293   0.81839   0.00000  Uiso   1.00
O710   O     0.19242   0.50241   0.82793   0.00000  Uiso   1.00
O711   O     0.10476   0.41911   0.74413   0.00000  Uiso   1.00
O712   O     0.20536   0.42859   0.75367   0.00000  Uiso   1.00
O713   O     0.14092   0.49759   0.67207   0.00000  Uiso   1.00
O714   O     0.24152   0.50707   0.68160   0.00000  Uiso   1.00
C715   C     0.00506   0.55756   0.60373   0.00000  Uiso   1.00
C716   C     0.00047   0.60856   0.63501   0.00000  Uiso   1.00
H717   H     0.28717   0.60525   0.66115   0.00000  Uiso   1.00
H718   H     0.03794   0.61811   0.65771   0.00000  Uiso   1.00
H719   H     0.00717   0.64121   0.60937   0.00000  Uiso   1.00
H720   H     0.00800   0.52607   0.62737   0.00000  Uiso   1.00
H721   H     0.05116   0.56469   0.57625   0.00000  Uiso   1.00
C722   C     0.22894   0.35256   0.80157   0.00000  Uiso   1.00
C723   C     0.23925   0.65437   0.84253   0.00000  Uiso   1.00
H724   H     0.19313   0.63142   0.86242   0.00000  Uiso   1.00
H725   H     0.27239   0.62856   0.82585   0.00000  Uiso   1.00
H726   H     0.26114   0.34812   0.87085   0.00000  Uiso   1.00
H727   H     0.27530   0.36920   0.77705   0.00000  Uiso   1.00
H728   H     0.20907   0.38502   0.82341   0.00000  Uiso   1.00
C729   C     0.51320   0.59986   0.75645   0.00000  Uiso   1.00
C730   C     0.47415   0.49879   0.98733   0.00000  Uiso   1.00
C731   C     0.49055   0.51375   0.93591   0.00000  Uiso   1.00
C732   C     0.52131   0.51201   0.51772   0.00000  Uiso   1.00
C733   C     0.58226   0.54132   0.99687   0.00000  Uiso   1.00
C734   C     0.59563   0.55881   0.94795   0.00000  Uiso   1.00
C735   C     0.55044   0.54619   0.91859   0.00000  Uiso   1.00
C736   C     0.51001   0.49744   0.56821   0.00000  Uiso   1.00
C737   C     0.61776   0.54034   0.57574   0.00000  Uiso   1.00
C738   C     0.44663   0.49617   0.90327   0.00000  Uiso   1.00
C739   C     0.51675   0.65535   0.76843   0.00000  Uiso   1.00
C740   C     0.46654   0.49877   0.84732   0.00000  Uiso   1.00
C741   C     0.47740   0.34408   0.75003   0.00000  Uiso   1.00
C742   C     0.48446   0.39996   0.75019   0.00000  Uiso   1.00
C743   C     0.53438   0.50451   0.65302   0.00000  Uiso   1.00
C744   C     0.62958   0.55415   0.52522   0.00000  Uiso   1.00
C745   C     0.55601   0.51301   0.59811   0.00000  Uiso   1.00
C746   C     0.38495   0.46994   0.92381   0.00000  Uiso   1.00
C747   C     0.36754   0.45826   0.97480   0.00000  Uiso   1.00
C748   C     0.41141   0.47150   0.50609   0.00000  Uiso   1.00
Cu749  Cu    0.44043   0.49439   0.74435   0.00000  Uiso   1.00
Cu750  Cu    0.55957   0.50561   0.75564   0.00000  Uiso   1.00
H751   H     0.44185   0.65405   0.73048   0.00000  Uiso   1.00
H752   H     0.33702   0.53935   0.78975   0.00000  Uiso   1.00
H753   H     0.66294   0.46065   0.71027   0.00000  Uiso   1.00
H754   H     0.64143   0.58282   0.93219   0.00000  Uiso   1.00
H755   H     0.34268   0.57617   0.50800   0.00000  Uiso   1.00
H756   H     0.46491   0.47451   0.58577   0.00000  Uiso   1.00
H757   H     0.35054   0.45670   0.89999   0.00000  Uiso   1.00
H758   H     0.39413   0.46035   0.54491   0.00000  Uiso   1.00
H759   H     0.65310   0.43768   0.99009   0.00000  Uiso   1.00
H760   H     0.56393   0.56335   0.88234   0.00000  Uiso   1.00
N761   N     0.64908   0.51407   0.76416   0.00000  Uiso   1.00
N762   N     0.35092   0.48593   0.73584   0.00000  Uiso   1.00
O763   O     0.46131   0.57141   0.74633   0.00000  Uiso   1.00
O764   O     0.56191   0.58089   0.75586   0.00000  Uiso   1.00
O765   O     0.42515   0.49293   0.81839   0.00000  Uiso   1.00
O766   O     0.52575   0.50241   0.82793   0.00000  Uiso   1.00
O767   O     0.43809   0.41911   0.74413   0.00000  Uiso   1.00
O768   O     0.53869   0.42859   0.75367   0.00000  Uiso   1.00
O769   O     0.47425   0.49759   0.67207   0.00000  Uiso   1.00
O770   O     0.57485   0.50707   0.68160   0.00000  Uiso   1.00
C771   C     0.33840   0.55756   0.60373   0.00000  Uiso   1.00
C772   C     0.33380   0.60856   0.63501   0.00000  Uiso   1.00
H773   H     0.62051   0.60525   0.66115   0.00000  Uiso   1.00
H774   H     0.37127   0.61811   0.65771   0.00000  Uiso   1.00
H775   H     0.34050   0.64121   0.60937   0.00000  Uiso   1.00
H776   H     0.34134   0.52607   0.62737   0.00000  Uiso   1.00
H777   H     0.38449   0.56469   0.57625   0.00000  Uiso   1.00
C778   C     0.56228   0.35256   0.80157   0.00000  Uiso   1.00
C779   C     0.57258   0.65437   0.84253   0.00000  Uiso   1.00
H780   H     0.52647   0.63142   0.86242   0.00000  Uiso   1.00
H781   H     0.60573   0.62856   0.82585   0.00000  Uiso   1.00
H782   H     0.59448   0.34812   0.87085   0.00000  Uiso   1.00
H783   H     0.60863   0.36920   0.77705   0.00000  Uiso   1.00
H784   H     0.54240   0.38502   0.82341   0.00000  Uiso   1.00
C785   C     0.84653   0.59986   0.75645   0.00000  Uiso   1.00
C786   C     0.80749   0.49879   0.98733   0.00000  Uiso   1.00
C787   C     0.82388   0.51375   0.93591   0.00000  Uiso   1.00
C788   C     0.85465   0.51201   0.51772   0.00000  Uiso   1.00
C789   C     0.91559   0.54132   0.99687   0.00000  Uiso   1.00
C790   C     0.92896   0.55881   0.94795   0.00000  Uiso   1.00
C791   C     0.88377   0.54619   0.91859   0.00000  Uiso   1.00
C792   C     0.84335   0.49744   0.56821   0.00000  Uiso   1.00
C793   C     0.95109   0.54034   0.57574   0.00000  Uiso   1.00
C794   C     0.77996   0.49617   0.90327   0.00000  Uiso   1.00
C795   C     0.85008   0.65535   0.76843   0.00000  Uiso   1.00
C796   C     0.79988   0.49877   0.84732   0.00000  Uiso   1.00
C797   C     0.81074   0.34408   0.75003   0.00000  Uiso   1.00
C798   C     0.81779   0.39996   0.75019   0.00000  Uiso   1.00
C799   C     0.86771   0.50451   0.65302   0.00000  Uiso   1.00
C800   C     0.96291   0.55415   0.52522   0.00000  Uiso   1.00
C801   C     0.88934   0.51301   0.59811   0.00000  Uiso   1.00
C802   C     0.71828   0.46994   0.92381   0.00000  Uiso   1.00
C803   C     0.70087   0.45826   0.97480   0.00000  Uiso   1.00
C804   C     0.74475   0.47150   0.50609   0.00000  Uiso   1.00
Cu805  Cu    0.77377   0.49439   0.74435   0.00000  Uiso   1.00
Cu806  Cu    0.89290   0.50561   0.75564   0.00000  Uiso   1.00
H807   H     0.77518   0.65405   0.73048   0.00000  Uiso   1.00
H808   H     0.67036   0.53935   0.78975   0.00000  Uiso   1.00
H809   H     0.99628   0.46065   0.71027   0.00000  Uiso   1.00
H810   H     0.97476   0.58282   0.93219   0.00000  Uiso   1.00
H811   H     0.67601   0.57617   0.50800   0.00000  Uiso   1.00
H812   H     0.79824   0.47451   0.58577   0.00000  Uiso   1.00
H813   H     0.68388   0.45670   0.89999   0.00000  Uiso   1.00
H814   H     0.72746   0.46035   0.54491   0.00000  Uiso   1.00
H815   H     0.98643   0.43768   0.99009   0.00000  Uiso   1.00
H816   H     0.89727   0.56335   0.88234   0.00000  Uiso   1.00
N817   N     0.98241   0.51407   0.76416   0.00000  Uiso   1.00
N818   N     0.68426   0.48593   0.73584   0.00000  Uiso   1.00
O819   O     0.79464   0.57141   0.74633   0.00000  Uiso   1.00
O820   O     0.89524   0.58089   0.75586   0.00000  Uiso   1.00
O821   O     0.75848   0.49293   0.81839   0.00000  Uiso   1.00
O822   O     0.85908   0.50241   0.82793   0.00000  Uiso   1.00
O823   O     0.77142   0.41911   0.74413   0.00000  Uiso   1.00
O824   O     0.87203   0.42859   0.75367   0.00000  Uiso   1.00
O825   O     0.80758   0.49759   0.67207   0.00000  Uiso   1.00
O826   O     0.90819   0.50707   0.68160   0.00000  Uiso   1.00
C827   C     0.67173   0.55756   0.60373   0.00000  Uiso   1.00
C828   C     0.66714   0.60856   0.63501   0.00000  Uiso   1.00
H829   H     0.95384   0.60525   0.66115   0.00000  Uiso   1.00
H830   H     0.70460   0.61811   0.65771   0.00000  Uiso   1.00
H831   H     0.67383   0.64121   0.60937   0.00000  Uiso   1.00
H832   H     0.67467   0.52607   0.62737   0.00000  Uiso   1.00
H833   H     0.71783   0.56469   0.57625   0.00000  Uiso   1.00
C834   C     0.89561   0.35256   0.80157   0.00000  Uiso   1.00
C835   C     0.90592   0.65437   0.84253   0.00000  Uiso   1.00
H836   H     0.85980   0.63142   0.86242   0.00000  Uiso   1.00
H837   H     0.93906   0.62856   0.82585   0.00000  Uiso   1.00
H838   H     0.92781   0.34812   0.87085   0.00000  Uiso   1.00
H839   H     0.94197   0.36920   0.77705   0.00000  Uiso   1.00
H840   H     0.87573   0.38502   0.82341   0.00000  Uiso   1.00
C841   C     0.17986   0.93319   0.75645   0.00000  Uiso   1.00
C842   C     0.14082   0.83213   0.98733   0.00000  Uiso   1.00
C843   C     0.15722   0.84708   0.93591   0.00000  Uiso   1.00
C844   C     0.18798   0.84535   0.51772   0.00000  Uiso   1.00
C845   C     0.24892   0.87466   0.99687   0.00000  Uiso   1.00
C846   C     0.26230   0.89214   0.94795   0.00000  Uiso   1.00
C847   C     0.21710   0.87953   0.91859   0.00000  Uiso   1.00
C848   C     0.17668   0.83077   0.56821   0.00000  Uiso   1.00
C849   C     0.28442   0.87367   0.57574   0.00000  Uiso   1.00
C850   C     0.11329   0.82951   0.90327   0.00000  Uiso   1.00
C851   C     0.18341   0.98869   0.76843   0.00000  Uiso   1.00
C852   C     0.13321   0.83210   0.84732   0.00000  Uiso   1.00
C853   C     0.14407   0.67741   0.75003   0.00000  Uiso   1.00
C854   C     0.15113   0.73329   0.75019   0.00000  Uiso   1.00
C855   C     0.20104   0.83784   0.65302   0.00000  Uiso   1.00
C856   C     0.29625   0.88748   0.52522   0.00000  Uiso   1.00
C857   C     0.22268   0.84635   0.59811   0.00000  Uiso   1.00
C858   C     0.05162   0.80327   0.92381   0.00000  Uiso   1.00
C859   C     0.03420   0.79159   0.97480   0.00000  Uiso   1.00
C860   C     0.07808   0.80483   0.50609   0.00000  Uiso   1.00
Cu861  Cu    0.10710   0.82772   0.74435   0.00000  Uiso   1.00
Cu862  Cu    0.22623   0.83895   0.75564   0.00000  Uiso   1.00
H863   H     0.10852   0.98738   0.73048   0.00000  Uiso   1.00
H864   H     0.00369   0.87268   0.78975   0.00000  Uiso   1.00
H865   H     0.32961   0.79399   0.71027   0.00000  Uiso   1.00
H866   H     0.30809   0.91615   0.93219   0.00000  Uiso   1.00
H867   H     0.00935   0.90951   0.50800   0.00000  Uiso   1.00
H868   H     0.13157   0.80785   0.58577   0.00000  Uiso   1.00
H869   H     0.01721   0.79003   0.89999   0.00000  Uiso   1.00
H870   H     0.06080   0.79368   0.54491   0.00000  Uiso   1.00
H871   H     0.31976   0.77102   0.99009   0.00000  Uiso   1.00
H872   H     0.23060   0.89668   0.88234   0.00000  Uiso   1.00
N873   N     0.31574   0.84741   0.76416   0.00000  Uiso   1.00
N874   N     0.01759   0.81926   0.73584   0.00000  Uiso   1.00
O875   O     0.12797   0.90474   0.74633   0.00000  Uiso   1.00
O876   O     0.22858   0.91422   0.75586   0.00000  Uiso   1.00
O877   O     0.09181   0.82627   0.81839   0.00000  Uiso   1.00
O878   O     0.19242   0.83575   0.82793   0.00000  Uiso   1.00
O879   O     0.10476   0.75245   0.74413   0.00000  Uiso   1.00
O880   O     0.20536   0.76193   0.75367   0.00000  Uiso   1.00
O881   O     0.14092   0.83092   0.67207   0.00000  Uiso   1.00
O882   O     0.24152   0.84040   0.68160   0.00000  Uiso   1.00
C883   C     0.00506   0.89089   0.60373   0.00000  Uiso   1.00
C884   C     0.00047   0.94190   0.63501   0.00000  Uiso   1.00
H885   H     0.28717   0.93858   0.66115   0.00000  Uiso   1.00
H886   H     0.03794   0.95145   0.65771   0.00000  Uiso   1.00
H887   H     0.00717   0.97454   0.60937   0.00000  Uiso   1.00
H888   H     0.00800   0.85941   0.62737   0.00000  Uiso   1.00
H889   H     0.05116   0.89802   0.57625   0.00000  Uiso   1.00
C890   C     0.22894   0.68589   0.80157   0.00000  Uiso   1.00
C891   C     0.23925   0.98770   0.84253   0.00000  Uiso   1.00
H892   H     0.19313   0.96475   0.86242   0.00000  Uiso   1.00
H893   H     0.27239   0.96190   0.82585   0.00000  Uiso   1.00
H894   H     0.26114   0.68145   0.87085   0.00000  Uiso   1.00
H895   H     0.27530   0.70253   0.77705   0.00000  Uiso   1.00
H896   H     0.20907   0.71835   0.82341   0.00000  Uiso   1.00
C897   C     0.51320   0.93319   0.75645   0.00000  Uiso   1.00
C898   C     0.47415   0.83213   0.98733   0.00000  Uiso   1.00
C899   C     0.49055   0.84708   0.93591   0.00000  Uiso   1.00
C900   C     0.52131   0.84535   0.51772   0.00000  Uiso   1.00
C901   C     0.58226   0.87466   0.99687   0.00000  Uiso   1.00
C902   C     0.59563   0.89214   0.94795   0.00000  Uiso   1.00
C903   C     0.55044   0.87953   0.91859   0.00000  Uiso   1.00
C904   C     0.51001   0.83077   0.56821   0.00000  Uiso   1.00
C905   C     0.61776   0.87367   0.57574   0.00000  Uiso   1.00
C906   C     0.44663   0.82951   0.90327   0.00000  Uiso   1.00
C907   C     0.51675   0.98869   0.76843   0.00000  Uiso   1.00
C908   C     0.46654   0.83210   0.84732   0.00000  Uiso   1.00
C909   C     0.47740   0.67741   0.75003   0.00000  Uiso   1.00
C910   C     0.48446   0.73329   0.75019   0.00000  Uiso   1.00
C911   C     0.53438   0.83784   0.65302   0.00000  Uiso   1.00
C912   C     0.62958   0.88748   0.52522   0.00000  Uiso   1.00
C913   C     0.55601   0.84635   0.59811   0.00000  Uiso   1.00
C914   C     0.38495   0.80327   0.92381   0.00000  Uiso   1.00
C915   C     0.36754   0.79159   0.97480   0.00000  Uiso   1.00
C916   C     0.41141   0.80483   0.50609   0.00000  Uiso   1.00
Cu917  Cu    0.44043   0.82772   0.74435   0.00000  Uiso   1.00
Cu918  Cu    0.55957   0.83895   0.75564   0.00000  Uiso   1.00
H919   H     0.44185   0.98738   0.73048   0.00000  Uiso   1.00
H920   H     0.33702   0.87268   0.78975   0.00000  Uiso   1.00
H921   H     0.66294   0.79399   0.71027   0.00000  Uiso   1.00
H922   H     0.64143   0.91615   0.93219   0.00000  Uiso   1.00
H923   H     0.34268   0.90951   0.50800   0.00000  Uiso   1.00
H924   H     0.46491   0.80785   0.58577   0.00000  Uiso   1.00
H925   H     0.35054   0.79003   0.89999   0.00000  Uiso   1.00
H926   H     0.39413   0.79368   0.54491   0.00000  Uiso   1.00
H927   H     0.65310   0.77102   0.99009   0.00000  Uiso   1.00
H928   H     0.56393   0.89668   0.88234   0.00000  Uiso   1.00
N929   N     0.64908   0.84741   0.76416   0.00000  Uiso   1.00
N930   N     0.35092   0.81926   0.73584   0.00000  Uiso   1.00
O931   O     0.46131   0.90474   0.74633   0.00000  Uiso   1.00
O932   O     0.56191   0.91422   0.75586   0.00000  Uiso   1.00
O933   O     0.42515   0.82627   0.81839   0.00000  Uiso   1.00
O934   O     0.52575   0.83575   0.82793   0.00000  Uiso   1.00
O935   O     0.43809   0.75245   0.74413   0.00000  Uiso   1.00
O936   O     0.53869   0.76193   0.75367   0.00000  Uiso   1.00
O937   O     0.47425   0.83092   0.67207   0.00000  Uiso   1.00
O938   O     0.57485   0.84040   0.68160   0.00000  Uiso   1.00
C939   C     0.33840   0.89089   0.60373   0.00000  Uiso   1.00
C940   C     0.33380   0.94190   0.63501   0.00000  Uiso   1.00
H941   H     0.62051   0.93858   0.66115   0.00000  Uiso   1.00
H942   H     0.37127   0.95145   0.65771   0.00000  Uiso   1.00
H943   H     0.34050   0.97454   0.60937   0.00000  Uiso   1.00
H944   H     0.34134   0.85941   0.62737   0.00000  Uiso   1.00
H945   H     0.38449   0.89802   0.57625   0.00000  Uiso   1.00
C946   C     0.56228   0.68589   0.80157   0.00000  Uiso   1.00
C947   C     0.57258   0.98770   0.84253   0.00000  Uiso   1.00
H948   H     0.52647   0.96475   0.86242   0.00000  Uiso   1.00
H949   H     0.60573   0.96190   0.82585   0.00000  Uiso   1.00
H950   H     0.59448   0.68145   0.87085   0.00000  Uiso   1.00
H951   H     0.60863   0.70253   0.77705   0.00000  Uiso   1.00
H952   H     0.54240   0.71835   0.82341   0.00000  Uiso   1.00
C953   C     0.84653   0.93319   0.75645   0.00000  Uiso   1.00
C954   C     0.80749   0.83213   0.98733   0.00000  Uiso   1.00
C955   C     0.82388   0.84708   0.93591   0.00000  Uiso   1.00
C956   C     0.85465   0.84535   0.51772   0.00000  Uiso   1.00
C957   C     0.91559   0.87466   0.99687   0.00000  Uiso   1.00
C958   C     0.92896   0.89214   0.94795   0.00000  Uiso   1.00
C959   C     0.88377   0.87953   0.91859   0.00000  Uiso   1.00
C960   C     0.84335   0.83077   0.56821   0.00000  Uiso   1.00
C961   C     0.95109   0.87367   0.57574   0.00000  Uiso   1.00
C962   C     0.77996   0.82951   0.90327   0.00000  Uiso   1.00
C963   C     0.85008   0.98869   0.76843   0.00000  Uiso   1.00
C964   C     0.79988   0.83210   0.84732   0.00000  Uiso   1.00
C965   C     0.81074   0.67741   0.75003   0.00000  Uiso   1.00
C966   C     0.81779   0.73329   0.75019   0.00000  Uiso   1.00
C967   C     0.86771   0.83784   0.65302   0.00000  Uiso   1.00
C968   C     0.96291   0.88748   0.52522   0.00000  Uiso   1.00
C969   C     0.88934   0.84635   0.59811   0.00000  Uiso   1.00
C970   C     0.71828   0.80327   0.92381   0.00000  Uiso   1.00
C971   C     0.70087   0.79159   0.97480   0.00000  Uiso   1.00
C972   C     0.74475   0.80483   0.50609   0.00000  Uiso   1.00
Cu973  Cu    0.77377   0.82772   0.74435   0.00000  Uiso   1.00
Cu974  Cu    0.89290   0.83895   0.75564   0.00000  Uiso   1.00
H975   H     0.77518   0.98738   0.73048   0.00000  Uiso   1.00
H976   H     0.67036   0.87268   0.78975   0.00000  Uiso   1.00
H977   H     0.99628   0.79399   0.71027   0.00000  Uiso   1.00
H978   H     0.97476   0.91615   0.93219   0.00000  Uiso   1.00
H979   H     0.67601   0.90951   0.50800   0.00000  Uiso   1.00
H980   H     0.79824   0.80785   0.58577   0.00000  Uiso   1.00
H981   H     0.68388   0.79003   0.89999   0.00000  Uiso   1.00
H982   H     0.72746   0.79368   0.54491   0.00000  Uiso   1.00
H983   H     0.98643   0.77102   0.99009   0.00000  Uiso   1.00
H984   H     0.89727   0.89668   0.88234   0.00000  Uiso   1.00
N985   N     0.98241   0.84741   0.76416   0.00000  Uiso   1.00
N986   N     0.68426   0.81926   0.73584   0.00000  Uiso   1.00
O987   O     0.79464   0.90474   0.74633   0.00000  Uiso   1.00
O988   O     0.89524   0.91422   0.75586   0.00000  Uiso   1.00
O989   O     0.75848   0.82627   0.81839   0.00000  Uiso   1.00
O990   O     0.85908   0.83575   0.82793   0.00000  Uiso   1.00
O991   O     0.77142   0.75245   0.74413   0.00000  Uiso   1.00
O992   O     0.87203   0.76193   0.75367   0.00000  Uiso   1.00
O993   O     0.80758   0.83092   0.67207   0.00000  Uiso   1.00
O994   O     0.90819   0.84040   0.68160   0.00000  Uiso   1.00
C995   C     0.67173   0.89089   0.60373   0.00000  Uiso   1.00
C996   C     0.66714   0.94190   0.63501   0.00000  Uiso   1.00
H997   H     0.95384   0.93858   0.66115   0.00000  Uiso   1.00
H998   H     0.70460   0.95145   0.65771   0.00000  Uiso   1.00
H999   H     0.67383   0.97454   0.60937   0.00000  Uiso   1.00
H1000  H     0.67467   0.85941   0.62737   0.00000  Uiso   1.00
H1001  H     0.71783   0.89802   0.57625   0.00000  Uiso   1.00
C1002  C     0.89561   0.68589   0.80157   0.00000  Uiso   1.00
C1003  C     0.90592   0.98770   0.84253   0.00000  Uiso   1.00
H1004  H     0.85980   0.96475   0.86242   0.00000  Uiso   1.00
H1005  H     0.93906   0.96190   0.82585   0.00000  Uiso   1.00
H1006  H     0.92781   0.68145   0.87085   0.00000  Uiso   1.00
H1007  H     0.94197   0.70253   0.77705   0.00000  Uiso   1.00
H1008  H     0.87573   0.71835   0.82341   0.00000  Uiso   1.00
loop_
_geom_bond_atom_site_label_1
_geom_bond_atom_site_label_2
_geom_bond_distance
_geom_bond_site_symmetry_2
_ccdc_geom_bond_type
C1     O35     1.292   .     A
C1     O36     1.286   .     A
C1     C11     1.449   .     S
C2     C3      1.423   .     A
C2     C508    1.433   .     S
C2     C524    1.417   .     S
C3     C10     1.429   .     A
C3     C7      1.411   .     A
C4     C8      1.402   .     A
C4     C506    1.433   1_554 S
C4     C509    1.416   1_554 S
C5     C6      1.384   .     A
C5     C508    1.416   .     S
C5     C520    1.397   .     S
C6     C7      1.378   .     A
C6     H26     1.085   .     S
C7     H32     1.067   .     S
C8     C17     1.406   .     A
C8     H28     1.075   .     S
C9     C17     1.422   .     A
C9     C16     1.396   .     A
C9     C99     1.518   .     S
C10    C12     1.482   .     S
C10    C18     1.400   .     A
C11    C181    1.347   .     S
C11    C218    1.538   .     S
C12    O38     1.289   .     A
C12    O37     1.307   .     A
C13    C14     1.436   .     S
C13    C347    1.347   1_545 S
C13    H359    1.088   1_545 S
C14    O40     1.284   .     A
C14    O39     1.290   .     A
C15    O42     1.295   .     A
C15    O41     1.298   .     A
C15    C17     1.475   .     S
C16    C509    1.397   1_554 S
C16    H83     1.085   .     S
C18    C19     1.388   .     A
C18    H29     1.083   .     S
C19    C524    1.393   .     S
C19    H143    1.083   1_455 S
C20    H30     1.076   .     S
C20    C523    1.393   1_554 S
C20    C506    1.417   1_554 S
Cu21   O35     1.963   .     S
Cu21   O39     1.960   .     S
Cu21   O41     1.934   .     S
Cu21   O37     1.956   .     S
Cu21   Cu22    2.677   .     S
Cu21   N34     2.011   .     S
Cu22   O42     1.956   .     S
Cu22   O36     1.960   .     S
Cu22   O40     1.963   .     S
Cu22   O38     1.934   .     S
Cu22   N33     2.011   .     S
H23    C181    1.088   .     S
H24    N145    1.029   1_455 S
H25    N90     1.029   .     S
H27    C128    1.085   1_455 S
H31    C75     1.083   .     S
N33    H80     1.029   .     S
N33    N90     1.280   .     S
N34    N145    1.280   1_455 S
N34    H137    1.029   1_455 S
C43    C44     1.527   .     S
C43    H48     1.108   .     S
C43    H49     1.112   .     S
C43    C121    1.518   1_455 S
C44    H47     1.111   .     S
C44    H46     1.110   .     S
C44    H157    1.108   1_455 S
H45    C100    1.108   .     S
C50    H55     1.112   .     S
C50    H56     1.111   .     S
C50    C347    1.538   1_545 S
C50    C387    1.522   1_545 S
C51    H52     1.111   .     S
C51    H53     1.109   .     S
C51    C218    1.522   .     S
C51    H222    1.111   .     S
H54    C387    1.111   1_545 S
C57    O91     1.292   .     A
C57    O92     1.286   .     A
C57    C67     1.449   .     S
C58    C59     1.423   .     A
C58    C564    1.433   .     S
C58    C580    1.417   .     S
C59    C66     1.429   .     A
C59    C63     1.411   .     A
C60    C64     1.402   .     A
C60    C562    1.433   1_554 S
C60    C565    1.416   1_554 S
C61    C62     1.384   .     A
C61    C564    1.416   .     S
C61    C576    1.397   .     S
C62    C63     1.378   .     A
C62    H82     1.085   .     S
C63    H88     1.067   .     S
C64    C73     1.406   .     A
C64    H84     1.075   .     S
C65    C73     1.422   .     A
C65    C72     1.396   .     A
C65    C155    1.518   .     S
C66    C68     1.482   .     S
C66    C74     1.400   .     A
C67    C237    1.347   .     S
C67    C274    1.538   .     S
C68    O94     1.289   .     A
C68    O93     1.307   .     A
C69    C70     1.436   .     S
C69    C403    1.347   1_545 S
C69    H415    1.088   1_545 S
C70    O96     1.284   .     A
C70    O95     1.290   .     A
C71    O98     1.295   .     A
C71    O97     1.298   .     A
C71    C73     1.475   .     S
C72    C565    1.397   1_554 S
C72    H139    1.085   .     S
C74    C75     1.388   .     A
C74    H85     1.083   .     S
C75    C580    1.393   .     S
C76    H86     1.076   .     S
C76    C579    1.393   1_554 S
C76    C562    1.417   1_554 S
Cu77   O91     1.963   .     S
Cu77   O95     1.960   .     S
Cu77   O97     1.934   .     S
Cu77   O93     1.956   .     S
Cu77   Cu78    2.677   .     S
Cu77   N90     2.011   .     S
Cu78   O98     1.956   .     S
Cu78   O92     1.960   .     S
Cu78   O96     1.963   .     S
Cu78   O94     1.934   .     S
Cu78   N89     2.011   .     S
H79    C237    1.088   .     S
H81    N146    1.029   .     S
H87    C131    1.083   .     S
N89    H136    1.029   .     S
N89    N146    1.280   .     S
C99    C100    1.527   .     S
C99    H104    1.108   .     S
C99    H105    1.112   .     S
C100   H103    1.111   .     S
C100   H102    1.110   .     S
H101   C156    1.108   .     S
C106   H111    1.112   .     S
C106   H112    1.111   .     S
C106   C403    1.538   1_545 S
C106   C443    1.522   1_545 S
C107   H108    1.111   .     S
C107   H109    1.109   .     S
C107   C274    1.522   .     S
C107   H278    1.111   .     S
H110   C443    1.111   1_545 S
C113   O147    1.292   .     A
C113   O148    1.286   .     A
C113   C123    1.449   .     S
C114   C115    1.423   .     A
C114   C620    1.433   .     S
C114   C636    1.417   .     S
C115   C122    1.429   .     A
C115   C119    1.411   .     A
C116   C120    1.402   .     A
C116   C618    1.433   1_554 S
C116   C621    1.416   1_554 S
C117   C118    1.384   .     A
C117   C620    1.416   .     S
C117   C632    1.397   .     S
C118   C119    1.378   .     A
C118   H138    1.085   .     S
C119   H144    1.067   .     S
C120   C129    1.406   .     A
C120   H140    1.075   .     S
C121   C129    1.422   .     A
C121   C128    1.396   .     A
C121   C43     1.518   1_655 S
C122   C124    1.482   .     S
C122   C130    1.400   .     A
C123   C293    1.347   .     S
C123   C330    1.538   .     S
C124   O150    1.289   .     A
C124   O149    1.307   .     A
C125   C126    1.436   .     S
C125   C459    1.347   1_545 S
C125   H471    1.088   1_545 S
C126   O152    1.284   .     A
C126   O151    1.290   .     A
C127   O154    1.295   .     A
C127   O153    1.298   .     A
C127   C129    1.475   .     S
C128   C621    1.397   1_554 S
C128   H27     1.085   1_655 S
C130   C131    1.388   .     A
C130   H141    1.083   .     S
C131   C636    1.393   .     S
C132   H142    1.076   .     S
C132   C635    1.393   1_554 S
C132   C618    1.417   1_554 S
Cu133  O147    1.963   .     S
Cu133  O151    1.960   .     S
Cu133  O153    1.934   .     S
Cu133  O149    1.956   .     S
Cu133  Cu134   2.677   .     S
Cu133  N146    2.011   .     S
Cu134  O154    1.956   .     S
Cu134  O148    1.960   .     S
Cu134  O152    1.963   .     S
Cu134  O150    1.934   .     S
Cu134  N145    2.011   .     S
H135   C293    1.088   .     S
H137   N34     1.029   1_655 S
H143   C19     1.083   1_655 S
N145   H24     1.029   1_655 S
N145   N34     1.280   1_655 S
C155   C156    1.527   .     S
C155   H160    1.108   .     S
C155   H161    1.112   .     S
C156   H159    1.111   .     S
C156   H158    1.110   .     S
H157   C44     1.108   1_655 S
C162   H167    1.112   .     S
C162   H168    1.111   .     S
C162   C459    1.538   1_545 S
C162   C499    1.522   1_545 S
C163   H164    1.111   .     S
C163   H165    1.109   .     S
C163   C330    1.522   .     S
C163   H334    1.111   .     S
H166   C499    1.111   1_545 S
C169   O203    1.292   .     A
C169   O204    1.286   .     A
C169   C179    1.449   .     S
C170   C171    1.423   .     A
C170   C676    1.433   .     S
C170   C692    1.417   .     S
C171   C178    1.429   .     A
C171   C175    1.411   .     A
C172   C176    1.402   .     A
C172   C674    1.433   1_554 S
C172   C677    1.416   1_554 S
C173   C174    1.384   .     A
C173   C676    1.416   .     S
C173   C688    1.397   .     S
C174   C175    1.378   .     A
C174   H194    1.085   .     S
C175   H200    1.067   .     S
C176   C185    1.406   .     A
C176   H196    1.075   .     S
C177   C185    1.422   .     A
C177   C184    1.396   .     A
C177   C267    1.518   .     S
C178   C180    1.482   .     S
C178   C186    1.400   .     A
C179   C349    1.347   .     S
C179   C386    1.538   .     S
C180   O206    1.289   .     A
C180   O205    1.307   .     A
C181   C182    1.436   .     S
C182   O208    1.284   .     A
C182   O207    1.290   .     A
C183   O210    1.295   .     A
C183   O209    1.298   .     A
C183   C185    1.475   .     S
C184   C677    1.397   1_554 S
C184   H251    1.085   .     S
C186   C187    1.388   .     A
C186   H197    1.083   .     S
C187   C692    1.393   .     S
C187   H311    1.083   1_455 S
C188   H198    1.076   .     S
C188   C691    1.393   1_554 S
C188   C674    1.417   1_554 S
Cu189  O203    1.963   .     S
Cu189  O207    1.960   .     S
Cu189  O209    1.934   .     S
Cu189  O205    1.956   .     S
Cu189  Cu190   2.677   .     S
Cu189  N202    2.011   .     S
Cu190  O210    1.956   .     S
Cu190  O204    1.960   .     S
Cu190  O208    1.963   .     S
Cu190  O206    1.934   .     S
Cu190  N201    2.011   .     S
H191   C349    1.088   .     S
H192   N313    1.029   1_455 S
H193   N258    1.029   .     S
H195   C296    1.085   1_455 S
H199   C243    1.083   .     S
N201   H248    1.029   .     S
N201   N258    1.280   .     S
N202   N313    1.280   1_455 S
N202   H305    1.029   1_455 S
C211   C212    1.527   .     S
C211   H216    1.108   .     S
C211   H217    1.112   .     S
C211   C289    1.518   1_455 S
C212   H215    1.111   .     S
C212   H214    1.110   .     S
C212   H325    1.108   1_455 S
H213   C268    1.108   .     S
C218   H223    1.112   .     S
C218   H224    1.111   .     S
C219   H220    1.111   .     S
C219   H221    1.109   .     S
C219   C386    1.522   .     S
C219   H390    1.111   .     S
C225   O259    1.292   .     A
C225   O260    1.286   .     A
C225   C235    1.449   .     S
C226   C227    1.423   .     A
C226   C732    1.433   .     S
C226   C748    1.417   .     S
C227   C234    1.429   .     A
C227   C231    1.411   .     A
C228   C232    1.402   .     A
C228   C730    1.433   1_554 S
C228   C733    1.416   1_554 S
C229   C230    1.384   .     A
C229   C732    1.416   .     S
C229   C744    1.397   .     S
C230   C231    1.378   .     A
C230   H250    1.085   .     S
C231   H256    1.067   .     S
C232   C241    1.406   .     A
C232   H252    1.075   .     S
C233   C241    1.422   .     A
C233   C240    1.396   .     A
C233   C323    1.518   .     S
C234   C236    1.482   .     S
C234   C242    1.400   .     A
C235   C405    1.347   .     S
C235   C442    1.538   .     S
C236   O262    1.289   .     A
C236   O261    1.307   .     A
C237   C238    1.436   .     S
C238   O264    1.284   .     A
C238   O263    1.290   .     A
C239   O266    1.295   .     A
C239   O265    1.298   .     A
C239   C241    1.475   .     S
C240   C733    1.397   1_554 S
C240   H307    1.085   .     S
C242   C243    1.388   .     A
C242   H253    1.083   .     S
C243   C748    1.393   .     S
C244   H254    1.076   .     S
C244   C747    1.393   1_554 S
C244   C730    1.417   1_554 S
Cu245  O259    1.963   .     S
Cu245  O263    1.960   .     S
Cu245  O265    1.934   .     S
Cu245  O261    1.956   .     S
Cu245  Cu246   2.677   .     S
Cu245  N258    2.011   .     S
Cu246  O266    1.956   .     S
Cu246  O260    1.960   .     S
Cu246  O264    1.963   .     S
Cu246  O262    1.934   .     S
Cu246  N257    2.011   .     S
H247   C405    1.088   .     S
H249   N314    1.029   .     S
H255   C299    1.083   .     S
N257   H304    1.029   .     S
N257   N314    1.280   .     S
C267   C268    1.527   .     S
C267   H272    1.108   .     S
C267   H273    1.112   .     S
C268   H271    1.111   .     S
C268   H270    1.110   .     S
H269   C324    1.108   .     S
C274   H279    1.112   .     S
C274   H280    1.111   .     S
C275   H276    1.111   .     S
C275   H277    1.109   .     S
C275   C442    1.522   .     S
C275   H446    1.111   .     S
C281   O315    1.292   .     A
C281   O316    1.286   .     A
C281   C291    1.449   .     S
C282   C283    1.423   .     A
C282   C788    1.433   .     S
C282   C804    1.417   .     S
C283   C290    1.429   .     A
C283   C287    1.411   .     A
C284   C288    1.402   .     A
C284   C786    1.433   1_554 S
C284   C789    1.416   1_554 S
C285   C286    1.384   .     A
C285   C788    1.416   .     S
C285   C800    1.397   .     S
C286   C287    1.378   .     A
C286   H306    1.085   .     S
C287   H312    1.067   .     S
C288   C297    1.406   .     A
C288   H308    1.075   .     S
C289   C297    1.422   .     A
C289   C296    1.396   .     A
C289   C211    1.518   1_655 S
C290   C292    1.482   .     S
C290   C298    1.400   .     A
C291   C461    1.347   .     S
C291   C498    1.538   .     S
C292   O318    1.289   .     A
C292   O317    1.307   .     A
C293   C294    1.436   .     S
C294   O320    1.284   .     A
C294   O319    1.290   .     A
C295   O322    1.295   .     A
C295   O321    1.298   .     A
C295   C297    1.475   .     S
C296   C789    1.397   1_554 S
C296   H195    1.085   1_655 S
C298   C299    1.388   .     A
C298   H309    1.083   .     S
C299   C804    1.393   .     S
C300   H310    1.076   .     S
C300   C803    1.393   1_554 S
C300   C786    1.417   1_554 S
Cu301  O315    1.963   .     S
Cu301  O319    1.960   .     S
Cu301  O321    1.934   .     S
Cu301  O317    1.956   .     S
Cu301  Cu302   2.677   .     S
Cu301  N314    2.011   .     S
Cu302  O322    1.956   .     S
Cu302  O316    1.960   .     S
Cu302  O320    1.963   .     S
Cu302  O318    1.934   .     S
Cu302  N313    2.011   .     S
H303   C461    1.088   .     S
H305   N202    1.029   1_655 S
H311   C187    1.083   1_655 S
N313   H192    1.029   1_655 S
N313   N202    1.280   1_655 S
C323   C324    1.527   .     S
C323   H328    1.108   .     S
C323   H329    1.112   .     S
C324   H327    1.111   .     S
C324   H326    1.110   .     S
H325   C212    1.108   1_655 S
C330   H335    1.112   .     S
C330   H336    1.111   .     S
C331   H332    1.111   .     S
C331   H333    1.109   .     S
C331   C498    1.522   .     S
C331   H502    1.111   .     S
C337   O371    1.292   .     A
C337   O372    1.286   .     A
C337   C347    1.449   .     S
C338   C339    1.423   .     A
C338   C844    1.433   .     S
C338   C860    1.417   .     S
C339   C346    1.429   .     A
C339   C343    1.411   .     A
C340   C344    1.402   .     A
C340   C842    1.433   1_554 S
C340   C845    1.416   1_554 S
C341   C342    1.384   .     A
C341   C844    1.416   .     S
C341   C856    1.397   .     S
C342   C343    1.378   .     A
C342   H362    1.085   .     S
C343   H368    1.067   .     S
C344   C353    1.406   .     A
C344   H364    1.075   .     S
C345   C353    1.422   .     A
C345   C352    1.396   .     A
C345   C435    1.518   .     S
C346   C348    1.482   .     S
C346   C354    1.400   .     A
C347   C13     1.347   1_565 S
C347   C50     1.538   1_565 S
C348   O374    1.289   .     A
C348   O373    1.307   .     A
C349   C350    1.436   .     S
C350   O376    1.284   .     A
C350   O375    1.290   .     A
C351   O378    1.295   .     A
C351   O377    1.298   .     A
C351   C353    1.475   .     S
C352   C845    1.397   1_554 S
C352   H419    1.085   .     S
C354   C355    1.388   .     A
C354   H365    1.083   .     S
C355   C860    1.393   .     S
C355   H479    1.083   1_455 S
C356   H366    1.076   .     S
C356   C859    1.393   1_554 S
C356   C842    1.417   1_554 S
Cu357  O371    1.963   .     S
Cu357  O375    1.960   .     S
Cu357  O377    1.934   .     S
Cu357  O373    1.956   .     S
Cu357  Cu358   2.677   .     S
Cu357  N370    2.011   .     S
Cu358  O378    1.956   .     S
Cu358  O372    1.960   .     S
Cu358  O376    1.963   .     S
Cu358  O374    1.934   .     S
Cu358  N369    2.011   .     S
H359   C13     1.088   1_565 S
H360   N481    1.029   1_455 S
H361   N426    1.029   .     S
H363   C464    1.085   1_455 S
H367   C411    1.083   .     S
N369   H416    1.029   .     S
N369   N426    1.280   .     S
N370   N481    1.280   1_455 S
N370   H473    1.029   1_455 S
C379   C380    1.527   .     S
C379   H384    1.108   .     S
C379   H385    1.112   .     S
C379   C457    1.518   1_455 S
C380   H383    1.111   .     S
C380   H382    1.110   .     S
C380   H493    1.108   1_455 S
H381   C436    1.108   .     S
C386   H391    1.112   .     S
C386   H392    1.111   .     S
C387   H388    1.111   .     S
C387   H389    1.109   .     S
C387   C50     1.522   1_565 S
C387   H54     1.111   1_565 S
C393   O427    1.292   .     A
C393   O428    1.286   .     A
C393   C403    1.449   .     S
C394   C395    1.423   .     A
C394   C900    1.433   .     S
C394   C916    1.417   .     S
C395   C402    1.429   .     A
C395   C399    1.411   .     A
C396   C400    1.402   .     A
C396   C898    1.433   1_554 S
C396   C901    1.416   1_554 S
C397   C398    1.384   .     A
C397   C900    1.416   .     S
C397   C912    1.397   .     S
C398   C399    1.378   .     A
C398   H418    1.085   .     S
C399   H424    1.067   .     S
C400   C409    1.406   .     A
C400   H420    1.075   .     S
C401   C409    1.422   .     A
C401   C408    1.396   .     A
C401   C491    1.518   .     S
C402   C404    1.482   .     S
C402   C410    1.400   .     A
C403   C69     1.347   1_565 S
C403   C106    1.538   1_565 S
C404   O430    1.289   .     A
C404   O429    1.307   .     A
C405   C406    1.436   .     S
C406   O432    1.284   .     A
C406   O431    1.290   .     A
C407   O434    1.295   .     A
C407   O433    1.298   .     A
C407   C409    1.475   .     S
C408   C901    1.397   1_554 S
C408   H475    1.085   .     S
C410   C411    1.388   .     A
C410   H421    1.083   .     S
C411   C916    1.393   .     S
C412   H422    1.076   .     S
C412   C915    1.393   1_554 S
C412   C898    1.417   1_554 S
Cu413  O427    1.963   .     S
Cu413  O431    1.960   .     S
Cu413  O433    1.934   .     S
Cu413  O429    1.956   .     S
Cu413  Cu414   2.677   .     S
Cu413  N426    2.011   .     S
Cu414  O434    1.956   .     S
Cu414  O428    1.960   .     S
Cu414  O432    1.963   .     S
Cu414  O430    1.934   .     S
Cu414  N425    2.011   .     S
H415   C69     1.088   1_565 S
H417   N482    1.029   .     S
H423   C467    1.083   .     S
N425   H472    1.029   .     S
N425   N482    1.280   .     S
C435   C436    1.527   .     S
C435   H440    1.108   .     S
C435   H441    1.112   .     S
C436   H439    1.111   .     S
C436   H438    1.110   .     S
H437   C492    1.108   .     S
C442   H447    1.112   .     S
C442   H448    1.111   .     S
C443   H444    1.111   .     S
C443   H445    1.109   .     S
C443   C106    1.522   1_565 S
C443   H110    1.111   1_565 S
C449   O483    1.292   .     A
C449   O484    1.286   .     A
C449   C459    1.449   .     S
C450   C451    1.423   .     A
C450   C956    1.433   .     S
C450   C972    1.417   .     S
C451   C458    1.429   .     A
C451   C455    1.411   .     A
C452   C456    1.402   .     A
C452   C954    1.433   1_554 S
C452   C957    1.416   1_554 S
C453   C454    1.384   .     A
C453   C956    1.416   .     S
C453   C968    1.397   .     S
C454   C455    1.378   .     A
C454   H474    1.085   .     S
C455   H480    1.067   .     S
C456   C465    1.406   .     A
C456   H476    1.075   .     S
C457   C465    1.422   .     A
C457   C464    1.396   .     A
C457   C379    1.518   1_655 S
C458   C460    1.482   .     S
C458   C466    1.400   .     A
C459   C125    1.347   1_565 S
C459   C162    1.538   1_565 S
C460   O486    1.289   .     A
C460   O485    1.307   .     A
C461   C462    1.436   .     S
C462   O488    1.284   .     A
C462   O487    1.290   .     A
C463   O490    1.295   .     A
C463   O489    1.298   .     A
C463   C465    1.475   .     S
C464   C957    1.397   1_554 S
C464   H363    1.085   1_655 S
C466   C467    1.388   .     A
C466   H477    1.083   .     S
C467   C972    1.393   .     S
C468   H478    1.076   .     S
C468   C971    1.393   1_554 S
C468   C954    1.417   1_554 S
Cu469  O483    1.963   .     S
Cu469  O487    1.960   .     S
Cu469  O489    1.934   .     S
Cu469  O485    1.956   .     S
Cu469  Cu470   2.677   .     S
Cu469  N482    2.011   .     S
Cu470  O490    1.956   .     S
Cu470  O484    1.960   .     S
Cu470  O488    1.963   .     S
Cu470  O486    1.934   .     S
Cu470  N481    2.011   .     S
H471   C125    1.088   1_565 S
H473   N370    1.029   1_655 S
H479   C355    1.083   1_655 S
N481   H360    1.029   1_655 S
N481   N370    1.280   1_655 S
C491   C492    1.527   .     S
C491   H496    1.108   .     S
C491   H497    1.112   .     S
C492   H495    1.111   .     S
C492   H494    1.110   .     S
H493   C380    1.108   1_655 S
C498   H503    1.112   .     S
C498   H504    1.111   .     S
C499   H500    1.111   .     S
C499   H501    1.109   .     S
C499   C162    1.522   1_565 S
C499   H166    1.111   1_565 S
C505   O539    1.292   .     A
C505   O540    1.286   .     A
C505   C515    1.449   .     S
C506   C507    1.423   .     A
C506   C4      1.433   1_556 S
C506   C20     1.417   1_556 S
C507   C514    1.429   .     A
C507   C511    1.411   .     A
C508   C512    1.402   .     A
C509   C510    1.384   .     A
C509   C4      1.416   1_556 S
C509   C16     1.397   1_556 S
C510   C511    1.378   .     A
C510   H530    1.085   .     S
C511   H536    1.067   .     S
C512   C521    1.406   .     A
C512   H532    1.075   .     S
C513   C521    1.422   .     A
C513   C520    1.396   .     A
C513   C603    1.518   .     S
C514   C516    1.482   .     S
C514   C522    1.400   .     A
C515   C685    1.347   .     S
C515   C722    1.538   .     S
C516   O542    1.289   .     A
C516   O541    1.307   .     A
C517   C518    1.436   .     S
C517   C851    1.347   1_545 S
C517   H863    1.088   1_545 S
C518   O544    1.284   .     A
C518   O543    1.290   .     A
C519   O546    1.295   .     A
C519   O545    1.298   .     A
C519   C521    1.475   .     S
C520   H587    1.085   .     S
C522   C523    1.388   .     A
C522   H533    1.083   .     S
C523   C20     1.393   1_556 S
C523   H647    1.083   1_455 S
C524   H534    1.076   .     S
Cu525  O539    1.963   .     S
Cu525  O543    1.960   .     S
Cu525  O545    1.934   .     S
Cu525  O541    1.956   .     S
Cu525  Cu526   2.677   .     S
Cu525  N538    2.011   .     S
Cu526  O546    1.956   .     S
Cu526  O540    1.960   .     S
Cu526  O544    1.963   .     S
Cu526  O542    1.934   .     S
Cu526  N537    2.011   .     S
H527   C685    1.088   .     S
H528   N649    1.029   1_455 S
H529   N594    1.029   .     S
H531   C632    1.085   1_455 S
H535   C579    1.083   .     S
N537   H584    1.029   .     S
N537   N594    1.280   .     S
N538   N649    1.280   1_455 S
N538   H641    1.029   1_455 S
C547   C548    1.527   .     S
C547   H552    1.108   .     S
C547   H553    1.112   .     S
C547   C625    1.518   1_455 S
C548   H551    1.111   .     S
C548   H550    1.110   .     S
C548   H661    1.108   1_455 S
H549   C604    1.108   .     S
C554   H559    1.112   .     S
C554   H560    1.111   .     S
C554   C851    1.538   1_545 S
C554   C891    1.522   1_545 S
C555   H556    1.111   .     S
C555   H557    1.109   .     S
C555   C722    1.522   .     S
C555   H726    1.111   .     S
H558   C891    1.111   1_545 S
C561   O595    1.292   .     A
C561   O596    1.286   .     A
C561   C571    1.449   .     S
C562   C563    1.423   .     A
C562   C60     1.433   1_556 S
C562   C76     1.417   1_556 S
C563   C570    1.429   .     A
C563   C567    1.411   .     A
C564   C568    1.402   .     A
C565   C566    1.384   .     A
C565   C60     1.416   1_556 S
C565   C72     1.397   1_556 S
C566   C567    1.378   .     A
C566   H586    1.085   .     S
C567   H592    1.067   .     S
C568   C577    1.406   .     A
C568   H588    1.075   .     S
C569   C577    1.422   .     A
C569   C576    1.396   .     A
C569   C659    1.518   .     S
C570   C572    1.482   .     S
C570   C578    1.400   .     A
C571   C741    1.347   .     S
C571   C778    1.538   .     S
C572   O598    1.289   .     A
C572   O597    1.307   .     A
C573   C574    1.436   .     S
C573   C907    1.347   1_545 S
C573   H919    1.088   1_545 S
C574   O600    1.284   .     A
C574   O599    1.290   .     A
C575   O602    1.295   .     A
C575   O601    1.298   .     A
C575   C577    1.475   .     S
C576   H643    1.085   .     S
C578   C579    1.388   .     A
C578   H589    1.083   .     S
C579   C76     1.393   1_556 S
C580   H590    1.076   .     S
Cu581  O595    1.963   .     S
Cu581  O599    1.960   .     S
Cu581  O601    1.934   .     S
Cu581  O597    1.956   .     S
Cu581  Cu582   2.677   .     S
Cu581  N594    2.011   .     S
Cu582  O602    1.956   .     S
Cu582  O596    1.960   .     S
Cu582  O600    1.963   .     S
Cu582  O598    1.934   .     S
Cu582  N593    2.011   .     S
H583   C741    1.088   .     S
H585   N650    1.029   .     S
H591   C635    1.083   .     S
N593   H640    1.029   .     S
N593   N650    1.280   .     S
C603   C604    1.527   .     S
C603   H608    1.108   .     S
C603   H609    1.112   .     S
C604   H607    1.111   .     S
C604   H606    1.110   .     S
H605   C660    1.108   .     S
C610   H615    1.112   .     S
C610   H616    1.111   .     S
C610   C907    1.538   1_545 S
C610   C947    1.522   1_545 S
C611   H612    1.111   .     S
C611   H613    1.109   .     S
C611   C778    1.522   .     S
C611   H782    1.111   .     S
H614   C947    1.111   1_545 S
C617   O651    1.292   .     A
C617   O652    1.286   .     A
C617   C627    1.449   .     S
C618   C619    1.423   .     A
C618   C116    1.433   1_556 S
C618   C132    1.417   1_556 S
C619   C626    1.429   .     A
C619   C623    1.411   .     A
C620   C624    1.402   .     A
C621   C622    1.384   .     A
C621   C116    1.416   1_556 S
C621   C128    1.397   1_556 S
C622   C623    1.378   .     A
C622   H642    1.085   .     S
C623   H648    1.067   .     S
C624   C633    1.406   .     A
C624   H644    1.075   .     S
C625   C633    1.422   .     A
C625   C632    1.396   .     A
C625   C547    1.518   1_655 S
C626   C628    1.482   .     S
C626   C634    1.400   .     A
C627   C797    1.347   .     S
C627   C834    1.538   .     S
C628   O654    1.289   .     A
C628   O653    1.307   .     A
C629   C630    1.436   .     S
C629   C963    1.347   1_545 S
C629   H975    1.088   1_545 S
C630   O656    1.284   .     A
C630   O655    1.290   .     A
C631   O658    1.295   .     A
C631   O657    1.298   .     A
C631   C633    1.475   .     S
C632   H531    1.085   1_655 S
C634   C635    1.388   .     A
C634   H645    1.083   .     S
C635   C132    1.393   1_556 S
C636   H646    1.076   .     S
Cu637  O651    1.963   .     S
Cu637  O655    1.960   .     S
Cu637  O657    1.934   .     S
Cu637  O653    1.956   .     S
Cu637  Cu638   2.677   .     S
Cu637  N650    2.011   .     S
Cu638  O658    1.956   .     S
Cu638  O652    1.960   .     S
Cu638  O656    1.963   .     S
Cu638  O654    1.934   .     S
Cu638  N649    2.011   .     S
H639   C797    1.088   .     S
H641   N538    1.029   1_655 S
H647   C523    1.083   1_655 S
N649   H528    1.029   1_655 S
N649   N538    1.280   1_655 S
C659   C660    1.527   .     S
C659   H664    1.108   .     S
C659   H665    1.112   .     S
C660   H663    1.111   .     S
C660   H662    1.110   .     S
H661   C548    1.108   1_655 S
C666   H671    1.112   .     S
C666   H672    1.111   .     S
C666   C963    1.538   1_545 S
C666   C1003   1.522   1_545 S
C667   H668    1.111   .     S
C667   H669    1.109   .     S
C667   C834    1.522   .     S
C667   H838    1.111   .     S
H670   C1003   1.111   1_545 S
C673   O707    1.292   .     A
C673   O708    1.286   .     A
C673   C683    1.449   .     S
C674   C675    1.423   .     A
C674   C172    1.433   1_556 S
C674   C188    1.417   1_556 S
C675   C682    1.429   .     A
C675   C679    1.411   .     A
C676   C680    1.402   .     A
C677   C678    1.384   .     A
C677   C172    1.416   1_556 S
C677   C184    1.397   1_556 S
C678   C679    1.378   .     A
C678   H698    1.085   .     S
C679   H704    1.067   .     S
C680   C689    1.406   .     A
C680   H700    1.075   .     S
C681   C689    1.422   .     A
C681   C688    1.396   .     A
C681   C771    1.518   .     S
C682   C684    1.482   .     S
C682   C690    1.400   .     A
C683   C853    1.347   .     S
C683   C890    1.538   .     S
C684   O710    1.289   .     A
C684   O709    1.307   .     A
C685   C686    1.436   .     S
C686   O712    1.284   .     A
C686   O711    1.290   .     A
C687   O714    1.295   .     A
C687   O713    1.298   .     A
C687   C689    1.475   .     S
C688   H755    1.085   .     S
C690   C691    1.388   .     A
C690   H701    1.083   .     S
C691   C188    1.393   1_556 S
C691   H815    1.083   1_455 S
C692   H702    1.076   .     S
Cu693  O707    1.963   .     S
Cu693  O711    1.960   .     S
Cu693  O713    1.934   .     S
Cu693  O709    1.956   .     S
Cu693  Cu694   2.677   .     S
Cu693  N706    2.011   .     S
Cu694  O714    1.956   .     S
Cu694  O708    1.960   .     S
Cu694  O712    1.963   .     S
Cu694  O710    1.934   .     S
Cu694  N705    2.011   .     S
H695   C853    1.088   .     S
H696   N817    1.029   1_455 S
H697   N762    1.029   .     S
H699   C800    1.085   1_455 S
H703   C747    1.083   .     S
N705   H752    1.029   .     S
N705   N762    1.280   .     S
N706   N817    1.280   1_455 S
N706   H809    1.029   1_455 S
C715   C716    1.527   .     S
C715   H720    1.108   .     S
C715   H721    1.112   .     S
C715   C793    1.518   1_455 S
C716   H719    1.111   .     S
C716   H718    1.110   .     S
C716   H829    1.108   1_455 S
H717   C772    1.108   .     S
C722   H727    1.112   .     S
C722   H728    1.111   .     S
C723   H724    1.111   .     S
C723   H725    1.109   .     S
C723   C890    1.522   .     S
C723   H894    1.111   .     S
C729   O763    1.292   .     A
C729   O764    1.286   .     A
C729   C739    1.449   .     S
C730   C731    1.423   .     A
C730   C228    1.433   1_556 S
C730   C244    1.417   1_556 S
C731   C738    1.429   .     A
C731   C735    1.411   .     A
C732   C736    1.402   .     A
C733   C734    1.384   .     A
C733   C228    1.416   1_556 S
C733   C240    1.397   1_556 S
C734   C735    1.378   .     A
C734   H754    1.085   .     S
C735   H760    1.067   .     S
C736   C745    1.406   .     A
C736   H756    1.075   .     S
C737   C745    1.422   .     A
C737   C744    1.396   .     A
C737   C827    1.518   .     S
C738   C740    1.482   .     S
C738   C746    1.400   .     A
C739   C909    1.347   .     S
C739   C946    1.538   .     S
C740   O766    1.289   .     A
C740   O765    1.307   .     A
C741   C742    1.436   .     S
C742   O768    1.284   .     A
C742   O767    1.290   .     A
C743   O770    1.295   .     A
C743   O769    1.298   .     A
C743   C745    1.475   .     S
C744   H811    1.085   .     S
C746   C747    1.388   .     A
C746   H757    1.083   .     S
C747   C244    1.393   1_556 S
C748   H758    1.076   .     S
Cu749  O763    1.963   .     S
Cu749  O767    1.960   .     S
Cu749  O769    1.934   .     S
Cu749  O765    1.956   .     S
Cu749  Cu750   2.677   .     S
Cu749  N762    2.011   .     S
Cu750  O770    1.956   .     S
Cu750  O764    1.960   .     S
Cu750  O768    1.963   .     S
Cu750  O766    1.934   .     S
Cu750  N761    2.011   .     S
H751   C909    1.088   .     S
H753   N818    1.029   .     S
H759   C803    1.083   .     S
N761   H808    1.029   .     S
N761   N818    1.280   .     S
C771   C772    1.527   .     S
C771   H776    1.108   .     S
C771   H777    1.112   .     S
C772   H775    1.111   .     S
C772   H774    1.110   .     S
H773   C828    1.108   .     S
C778   H783    1.112   .     S
C778   H784    1.111   .     S
C779   H780    1.111   .     S
C779   H781    1.109   .     S
C779   C946    1.522   .     S
C779   H950    1.111   .     S
C785   O819    1.292   .     A
C785   O820    1.286   .     A
C785   C795    1.449   .     S
C786   C787    1.423   .     A
C786   C284    1.433   1_556 S
C786   C300    1.417   1_556 S
C787   C794    1.429   .     A
C787   C791    1.411   .     A
C788   C792    1.402   .     A
C789   C790    1.384   .     A
C789   C284    1.416   1_556 S
C789   C296    1.397   1_556 S
C790   C791    1.378   .     A
C790   H810    1.085   .     S
C791   H816    1.067   .     S
C792   C801    1.406   .     A
C792   H812    1.075   .     S
C793   C801    1.422   .     A
C793   C800    1.396   .     A
C793   C715    1.518   1_655 S
C794   C796    1.482   .     S
C794   C802    1.400   .     A
C795   C965    1.347   .     S
C795   C1002   1.538   .     S
C796   O822    1.289   .     A
C796   O821    1.307   .     A
C797   C798    1.436   .     S
C798   O824    1.284   .     A
C798   O823    1.290   .     A
C799   O826    1.295   .     A
C799   O825    1.298   .     A
C799   C801    1.475   .     S
C800   H699    1.085   1_655 S
C802   C803    1.388   .     A
C802   H813    1.083   .     S
C803   C300    1.393   1_556 S
C804   H814    1.076   .     S
Cu805  O819    1.963   .     S
Cu805  O823    1.960   .     S
Cu805  O825    1.934   .     S
Cu805  O821    1.956   .     S
Cu805  Cu806   2.677   .     S
Cu805  N818    2.011   .     S
Cu806  O826    1.956   .     S
Cu806  O820    1.960   .     S
Cu806  O824    1.963   .     S
Cu806  O822    1.934   .     S
Cu806  N817    2.011   .     S
H807   C965    1.088   .     S
H809   N706    1.029   1_655 S
H815   C691    1.083   1_655 S
N817   H696    1.029   1_655 S
N817   N706    1.280   1_655 S
C827   C828    1.527   .     S
C827   H832    1.108   .     S
C827   H833    1.112   .     S
C828   H831    1.111   .     S
C828   H830    1.110   .     S
H829   C716    1.108   1_655 S
C834   H839    1.112   .     S
C834   H840    1.111   .     S
C835   H836    1.111   .     S
C835   H837    1.109   .     S
C835   C1002   1.522   .     S
C835   H1006   1.111   .     S
C841   O875    1.292   .     A
C841   O876    1.286   .     A
C841   C851    1.449   .     S
C842   C843    1.423   .     A
C842   C340    1.433   1_556 S
C842   C356    1.417   1_556 S
C843   C850    1.429   .     A
C843   C847    1.411   .     A
C844   C848    1.402   .     A
C845   C846    1.384   .     A
C845   C340    1.416   1_556 S
C845   C352    1.397   1_556 S
C846   C847    1.378   .     A
C846   H866    1.085   .     S
C847   H872    1.067   .     S
C848   C857    1.406   .     A
C848   H868    1.075   .     S
C849   C857    1.422   .     A
C849   C856    1.396   .     A
C849   C939    1.518   .     S
C850   C852    1.482   .     S
C850   C858    1.400   .     A
C851   C517    1.347   1_565 S
C851   C554    1.538   1_565 S
C852   O878    1.289   .     A
C852   O877    1.307   .     A
C853   C854    1.436   .     S
C854   O880    1.284   .     A
C854   O879    1.290   .     A
C855   O882    1.295   .     A
C855   O881    1.298   .     A
C855   C857    1.475   .     S
C856   H923    1.085   .     S
C858   C859    1.388   .     A
C858   H869    1.083   .     S
C859   C356    1.393   1_556 S
C859   H983    1.083   1_455 S
C860   H870    1.076   .     S
Cu861  O875    1.963   .     S
Cu861  O879    1.960   .     S
Cu861  O881    1.934   .     S
Cu861  O877    1.956   .     S
Cu861  Cu862   2.677   .     S
Cu861  N874    2.011   .     S
Cu862  O882    1.956   .     S
Cu862  O876    1.960   .     S
Cu862  O880    1.963   .     S
Cu862  O878    1.934   .     S
Cu862  N873    2.011   .     S
H863   C517    1.088   1_565 S
H864   N985    1.029   1_455 S
H865   N930    1.029   .     S
H867   C968    1.085   1_455 S
H871   C915    1.083   .     S
N873   H920    1.029   .     S
N873   N930    1.280   .     S
N874   N985    1.280   1_455 S
N874   H977    1.029   1_455 S
C883   C884    1.527   .     S
C883   H888    1.108   .     S
C883   H889    1.112   .     S
C883   C961    1.518   1_455 S
C884   H887    1.111   .     S
C884   H886    1.110   .     S
C884   H997    1.108   1_455 S
H885   C940    1.108   .     S
C890   H895    1.112   .     S
C890   H896    1.111   .     S
C891   H892    1.111   .     S
C891   H893    1.109   .     S
C891   C554    1.522   1_565 S
C891   H558    1.111   1_565 S
C897   O931    1.292   .     A
C897   O932    1.286   .     A
C897   C907    1.449   .     S
C898   C899    1.423   .     A
C898   C396    1.433   1_556 S
C898   C412    1.417   1_556 S
C899   C906    1.429   .     A
C899   C903    1.411   .     A
C900   C904    1.402   .     A
C901   C902    1.384   .     A
C901   C396    1.416   1_556 S
C901   C408    1.397   1_556 S
C902   C903    1.378   .     A
C902   H922    1.085   .     S
C903   H928    1.067   .     S
C904   C913    1.406   .     A
C904   H924    1.075   .     S
C905   C913    1.422   .     A
C905   C912    1.396   .     A
C905   C995    1.518   .     S
C906   C908    1.482   .     S
C906   C914    1.400   .     A
C907   C573    1.347   1_565 S
C907   C610    1.538   1_565 S
C908   O934    1.289   .     A
C908   O933    1.307   .     A
C909   C910    1.436   .     S
C910   O936    1.284   .     A
C910   O935    1.290   .     A
C911   O938    1.295   .     A
C911   O937    1.298   .     A
C911   C913    1.475   .     S
C912   H979    1.085   .     S
C914   C915    1.388   .     A
C914   H925    1.083   .     S
C915   C412    1.393   1_556 S
C916   H926    1.076   .     S
Cu917  O931    1.963   .     S
Cu917  O935    1.960   .     S
Cu917  O937    1.934   .     S
Cu917  O933    1.956   .     S
Cu917  Cu918   2.677   .     S
Cu917  N930    2.011   .     S
Cu918  O938    1.956   .     S
Cu918  O932    1.960   .     S
Cu918  O936    1.963   .     S
Cu918  O934    1.934   .     S
Cu918  N929    2.011   .     S
H919   C573    1.088   1_565 S
H921   N986    1.029   .     S
H927   C971    1.083   .     S
N929   H976    1.029   .     S
N929   N986    1.280   .     S
C939   C940    1.527   .     S
C939   H944    1.108   .     S
C939   H945    1.112   .     S
C940   H943    1.111   .     S
C940   H942    1.110   .     S
H941   C996    1.108   .     S
C946   H951    1.112   .     S
C946   H952    1.111   .     S
C947   H948    1.111   .     S
C947   H949    1.109   .     S
C947   C610    1.522   1_565 S
C947   H614    1.111   1_565 S
C953   O987    1.292   .     A
C953   O988    1.286   .     A
C953   C963    1.449   .     S
C954   C955    1.423   .     A
C954   C452    1.433   1_556 S
C954   C468    1.417   1_556 S
C955   C962    1.429   .     A
C955   C959    1.411   .     A
C956   C960    1.402   .     A
C957   C958    1.384   .     A
C957   C452    1.416   1_556 S
C957   C464    1.397   1_556 S
C958   C959    1.378   .     A
C958   H978    1.085   .     S
C959   H984    1.067   .     S
C960   C969    1.406   .     A
C960   H980    1.075   .     S
C961   C969    1.422   .     A
C961   C968    1.396   .     A
C961   C883    1.518   1_655 S
C962   C964    1.482   .     S
C962   C970    1.400   .     A
C963   C629    1.347   1_565 S
C963   C666    1.538   1_565 S
C964   O990    1.289   .     A
C964   O989    1.307   .     A
C965   C966    1.436   .     S
C966   O992    1.284   .     A
C966   O991    1.290   .     A
C967   O994    1.295   .     A
C967   O993    1.298   .     A
C967   C969    1.475   .     S
C968   H867    1.085   1_655 S
C970   C971    1.388   .     A
C970   H981    1.083   .     S
C971   C468    1.393   1_556 S
C972   H982    1.076   .     S
Cu973  O987    1.963   .     S
Cu973  O991    1.960   .     S
Cu973  O993    1.934   .     S
Cu973  O989    1.956   .     S
Cu973  Cu974   2.677   .     S
Cu973  N986    2.011   .     S
Cu974  O994    1.956   .     S
Cu974  O988    1.960   .     S
Cu974  O992    1.963   .     S
Cu974  O990    1.934   .     S
Cu974  N985    2.011   .     S
H975   C629    1.088   1_565 S
H977   N874    1.029   1_655 S
H983   C859    1.083   1_655 S
N985   H864    1.029   1_655 S
N985   N874    1.280   1_655 S
C995   C996    1.527   .     S
C995   H1000   1.108   .     S
C995   H1001   1.112   .     S
C996   H999    1.111   .     S
C996   H998    1.110   .     S
H997   C884    1.108   1_655 S
C1002  H1007   1.112   .     S
C1002  H1008   1.111   .     S
C1003  H1004   1.111   .     S
C1003  H1005   1.109   .     S
C1003  C666    1.522   1_565 S
C1003  H670    1.111   1_565 S
