data_str_m2_o1_o17_pcu_sym.188
_audit_creation_date              2020-01-03
_audit_creation_method            'Materials Studio'
_symmetry_space_group_name_H-M    'P1'
_symmetry_Int_Tables_number       1
_symmetry_cell_setting            triclinic
loop_
_symmetry_equiv_pos_as_xyz
  x,y,z
_cell_length_a                    32.5332
_cell_length_b                    29.0013
_cell_length_c                    30.0430
_cell_angle_alpha                 89.6712
_cell_angle_beta                  92.5895
_cell_angle_gamma                 88.9154
loop_
_atom_site_label
_atom_site_type_symbol
_atom_site_fract_x
_atom_site_fract_y
_atom_site_fract_z
_atom_site_U_iso_or_equiv
_atom_site_adp_type
_atom_site_occupancy
C1     C     0.08763   0.16718   0.25341   0.00000  Uiso   1.00
C2     C     0.24571   0.16616   0.24659   0.00000  Uiso   1.00
C3     C     0.09314   0.15914   0.02244   0.00000  Uiso   1.00
C4     C     0.24019   0.17419   0.47756   0.00000  Uiso   1.00
C5     C     0.02222   0.12652   0.26294   0.00000  Uiso   1.00
C6     C     0.31111   0.20682   0.23706   0.00000  Uiso   1.00
C7     C     0.31379   0.12406   0.25136   0.00000  Uiso   1.00
C8     C     0.01955   0.20927   0.24864   0.00000  Uiso   1.00
C9     C     0.29061   0.16514   0.24307   0.00000  Uiso   1.00
C10    C     0.04273   0.16819   0.25693   0.00000  Uiso   1.00
C11    C     0.14147   0.02540   0.22038   0.00000  Uiso   1.00
C12    C     0.19186   0.30794   0.27962   0.00000  Uiso   1.00
C13    C     0.19142   0.02394   0.28008   0.00000  Uiso   1.00
C14    C     0.14192   0.30940   0.21992   0.00000  Uiso   1.00
C15    C     0.16778   0.16676   0.16468   0.00000  Uiso   1.00
C16    C     0.16555   0.16657   0.33532   0.00000  Uiso   1.00
C17    C     0.20200   0.16554   0.40778   0.00000  Uiso   1.00
C18    C     0.13134   0.16779   0.09222   0.00000  Uiso   1.00
C19    C     0.16456   0.16610   0.38360   0.00000  Uiso   1.00
C20    C     0.16877   0.16723   0.11640   0.00000  Uiso   1.00
C21    C     0.12710   0.16781   0.40533   0.00000  Uiso   1.00
C22    C     0.20624   0.16552   0.09467   0.00000  Uiso   1.00
C23    C     0.12746   0.16274   0.45223   0.00000  Uiso   1.00
C24    C     0.20588   0.17059   0.04777   0.00000  Uiso   1.00
C25    C     0.16588   0.16593   0.47654   0.00000  Uiso   1.00
C26    C     0.16746   0.16740   0.02346   0.00000  Uiso   1.00
C27    C     0.20286   0.16786   0.45397   0.00000  Uiso   1.00
C28    C     0.13047   0.16548   0.04603   0.00000  Uiso   1.00
C29    C     0.09144   0.15549   0.47621   0.00000  Uiso   1.00
C30    C     0.24189   0.17785   0.02379   0.00000  Uiso   1.00
Cu31   Cu    0.16667   0.21355   0.25000   0.00000  Uiso   1.00
Cu32   Cu    0.16667   0.11978   0.25000   0.00000  Uiso   1.00
H33    H     0.23049   0.16579   0.39031   0.00000  Uiso   1.00
H34    H     0.10285   0.16754   0.10969   0.00000  Uiso   1.00
H35    H     0.06534   0.15426   0.04037   0.00000  Uiso   1.00
H36    H     0.26799   0.17907   0.45963   0.00000  Uiso   1.00
N37    N     0.16667   0.28402   0.25000   0.00000  Uiso   1.00
N38    N     0.16667   0.04931   0.25000   0.00000  Uiso   1.00
O39    O     0.10655   0.20625   0.25000   0.00000  Uiso   1.00
O40    O     0.22679   0.12709   0.25001   0.00000  Uiso   1.00
O41    O     0.22679   0.20625   0.25001   0.00000  Uiso   1.00
O42    O     0.10655   0.12709   0.25000   0.00000  Uiso   1.00
O43    O     0.16666   0.20627   0.18513   0.00000  Uiso   1.00
O44    O     0.16668   0.12707   0.31487   0.00000  Uiso   1.00
O45    O     0.16668   0.20627   0.31487   0.00000  Uiso   1.00
O46    O     0.16666   0.12707   0.18513   0.00000  Uiso   1.00
I47    I     0.07465   0.19539   0.36846   0.00000  Uiso   1.00
I48    I     0.25868   0.13794   0.13154   0.00000  Uiso   1.00
I49    I     0.03608   0.12524   0.45043   0.00000  Uiso   1.00
I50    I     0.29725   0.20810   0.04957   0.00000  Uiso   1.00
I51    I     0.05016   0.07085   0.30163   0.00000  Uiso   1.00
I52    I     0.28317   0.26249   0.19837   0.00000  Uiso   1.00
I53    I     0.29244   0.05776   0.23124   0.00000  Uiso   1.00
I54    I     0.04089   0.27557   0.26876   0.00000  Uiso   1.00
I55    I     0.09889   0.06101   0.17447   0.00000  Uiso   1.00
I56    I     0.23444   0.27232   0.32553   0.00000  Uiso   1.00
I57    I     0.22984   0.05698   0.33036   0.00000  Uiso   1.00
I58    I     0.10349   0.27635   0.16964   0.00000  Uiso   1.00
C59    C     0.42096   0.16718   0.25341   0.00000  Uiso   1.00
C60    C     0.57904   0.16616   0.24659   0.00000  Uiso   1.00
C61    C     0.42647   0.15914   0.02244   0.00000  Uiso   1.00
C62    C     0.57353   0.17419   0.47756   0.00000  Uiso   1.00
C63    C     0.35555   0.12652   0.26294   0.00000  Uiso   1.00
C64    C     0.64445   0.20682   0.23706   0.00000  Uiso   1.00
C65    C     0.64712   0.12406   0.25136   0.00000  Uiso   1.00
C66    C     0.35288   0.20927   0.24864   0.00000  Uiso   1.00
C67    C     0.62394   0.16514   0.24307   0.00000  Uiso   1.00
C68    C     0.37606   0.16819   0.25693   0.00000  Uiso   1.00
C69    C     0.47480   0.02540   0.22038   0.00000  Uiso   1.00
C70    C     0.52520   0.30794   0.27962   0.00000  Uiso   1.00
C71    C     0.52475   0.02394   0.28008   0.00000  Uiso   1.00
C72    C     0.47525   0.30940   0.21992   0.00000  Uiso   1.00
C73    C     0.50111   0.16676   0.16468   0.00000  Uiso   1.00
C74    C     0.49888   0.16657   0.33532   0.00000  Uiso   1.00
C75    C     0.53533   0.16554   0.40778   0.00000  Uiso   1.00
C76    C     0.46467   0.16779   0.09222   0.00000  Uiso   1.00
C77    C     0.49789   0.16610   0.38360   0.00000  Uiso   1.00
C78    C     0.50211   0.16723   0.11640   0.00000  Uiso   1.00
C79    C     0.46043   0.16781   0.40533   0.00000  Uiso   1.00
C80    C     0.53957   0.16552   0.09467   0.00000  Uiso   1.00
C81    C     0.46079   0.16274   0.45223   0.00000  Uiso   1.00
C82    C     0.53921   0.17059   0.04777   0.00000  Uiso   1.00
C83    C     0.49921   0.16593   0.47654   0.00000  Uiso   1.00
C84    C     0.50079   0.16740   0.02346   0.00000  Uiso   1.00
C85    C     0.53619   0.16786   0.45397   0.00000  Uiso   1.00
C86    C     0.46381   0.16548   0.04603   0.00000  Uiso   1.00
C87    C     0.42477   0.15549   0.47621   0.00000  Uiso   1.00
C88    C     0.57523   0.17785   0.02379   0.00000  Uiso   1.00
Cu89   Cu    0.50000   0.21355   0.25000   0.00000  Uiso   1.00
Cu90   Cu    0.50000   0.11978   0.25000   0.00000  Uiso   1.00
H91    H     0.56382   0.16579   0.39031   0.00000  Uiso   1.00
H92    H     0.43618   0.16754   0.10969   0.00000  Uiso   1.00
H93    H     0.39868   0.15426   0.04037   0.00000  Uiso   1.00
H94    H     0.60132   0.17907   0.45963   0.00000  Uiso   1.00
N95    N     0.50000   0.28402   0.25000   0.00000  Uiso   1.00
N96    N     0.50000   0.04931   0.25000   0.00000  Uiso   1.00
O97    O     0.43988   0.20625   0.25000   0.00000  Uiso   1.00
O98    O     0.56012   0.12709   0.25001   0.00000  Uiso   1.00
O99    O     0.56012   0.20625   0.25001   0.00000  Uiso   1.00
O100   O     0.43988   0.12709   0.25000   0.00000  Uiso   1.00
O101   O     0.49999   0.20627   0.18513   0.00000  Uiso   1.00
O102   O     0.50001   0.12707   0.31487   0.00000  Uiso   1.00
O103   O     0.50001   0.20627   0.31487   0.00000  Uiso   1.00
O104   O     0.49999   0.12707   0.18513   0.00000  Uiso   1.00
I105   I     0.40798   0.19539   0.36846   0.00000  Uiso   1.00
I106   I     0.59201   0.13794   0.13154   0.00000  Uiso   1.00
I107   I     0.36941   0.12524   0.45043   0.00000  Uiso   1.00
I108   I     0.63059   0.20810   0.04957   0.00000  Uiso   1.00
I109   I     0.38349   0.07085   0.30163   0.00000  Uiso   1.00
I110   I     0.61651   0.26249   0.19837   0.00000  Uiso   1.00
I111   I     0.62577   0.05776   0.23124   0.00000  Uiso   1.00
I112   I     0.37423   0.27557   0.26876   0.00000  Uiso   1.00
I113   I     0.43223   0.06101   0.17447   0.00000  Uiso   1.00
I114   I     0.56777   0.27232   0.32553   0.00000  Uiso   1.00
I115   I     0.56317   0.05698   0.33036   0.00000  Uiso   1.00
I116   I     0.43683   0.27635   0.16964   0.00000  Uiso   1.00
C117   C     0.75429   0.16718   0.25341   0.00000  Uiso   1.00
C118   C     0.91237   0.16616   0.24659   0.00000  Uiso   1.00
C119   C     0.75981   0.15914   0.02244   0.00000  Uiso   1.00
C120   C     0.90686   0.17419   0.47756   0.00000  Uiso   1.00
C121   C     0.68889   0.12652   0.26294   0.00000  Uiso   1.00
C122   C     0.97778   0.20682   0.23706   0.00000  Uiso   1.00
C123   C     0.98045   0.12406   0.25136   0.00000  Uiso   1.00
C124   C     0.68621   0.20927   0.24864   0.00000  Uiso   1.00
C125   C     0.95727   0.16514   0.24307   0.00000  Uiso   1.00
C126   C     0.70939   0.16819   0.25693   0.00000  Uiso   1.00
C127   C     0.80814   0.02540   0.22038   0.00000  Uiso   1.00
C128   C     0.85853   0.30794   0.27962   0.00000  Uiso   1.00
C129   C     0.85808   0.02394   0.28008   0.00000  Uiso   1.00
C130   C     0.80858   0.30940   0.21992   0.00000  Uiso   1.00
C131   C     0.83445   0.16676   0.16468   0.00000  Uiso   1.00
C132   C     0.83222   0.16657   0.33532   0.00000  Uiso   1.00
C133   C     0.86866   0.16554   0.40778   0.00000  Uiso   1.00
C134   C     0.79800   0.16779   0.09222   0.00000  Uiso   1.00
C135   C     0.83123   0.16610   0.38360   0.00000  Uiso   1.00
C136   C     0.83544   0.16723   0.11640   0.00000  Uiso   1.00
C137   C     0.79376   0.16781   0.40533   0.00000  Uiso   1.00
C138   C     0.87290   0.16552   0.09467   0.00000  Uiso   1.00
C139   C     0.79412   0.16274   0.45223   0.00000  Uiso   1.00
C140   C     0.87254   0.17059   0.04777   0.00000  Uiso   1.00
C141   C     0.83254   0.16593   0.47654   0.00000  Uiso   1.00
C142   C     0.83412   0.16740   0.02346   0.00000  Uiso   1.00
C143   C     0.86953   0.16786   0.45397   0.00000  Uiso   1.00
C144   C     0.79714   0.16548   0.04603   0.00000  Uiso   1.00
C145   C     0.75811   0.15549   0.47621   0.00000  Uiso   1.00
C146   C     0.90856   0.17785   0.02379   0.00000  Uiso   1.00
Cu147  Cu    0.83333   0.21355   0.25000   0.00000  Uiso   1.00
Cu148  Cu    0.83333   0.11978   0.25000   0.00000  Uiso   1.00
H149   H     0.89715   0.16579   0.39031   0.00000  Uiso   1.00
H150   H     0.76951   0.16754   0.10969   0.00000  Uiso   1.00
H151   H     0.73201   0.15426   0.04037   0.00000  Uiso   1.00
H152   H     0.93466   0.17907   0.45963   0.00000  Uiso   1.00
N153   N     0.83333   0.28402   0.25000   0.00000  Uiso   1.00
N154   N     0.83333   0.04931   0.25000   0.00000  Uiso   1.00
O155   O     0.77321   0.20625   0.25000   0.00000  Uiso   1.00
O156   O     0.89345   0.12709   0.25001   0.00000  Uiso   1.00
O157   O     0.89345   0.20625   0.25001   0.00000  Uiso   1.00
O158   O     0.77321   0.12709   0.25000   0.00000  Uiso   1.00
O159   O     0.83332   0.20627   0.18513   0.00000  Uiso   1.00
O160   O     0.83334   0.12707   0.31487   0.00000  Uiso   1.00
O161   O     0.83334   0.20627   0.31487   0.00000  Uiso   1.00
O162   O     0.83332   0.12707   0.18513   0.00000  Uiso   1.00
I163   I     0.74132   0.19539   0.36846   0.00000  Uiso   1.00
I164   I     0.92535   0.13794   0.13154   0.00000  Uiso   1.00
I165   I     0.70274   0.12524   0.45043   0.00000  Uiso   1.00
I166   I     0.96392   0.20810   0.04957   0.00000  Uiso   1.00
I167   I     0.71683   0.07085   0.30163   0.00000  Uiso   1.00
I168   I     0.94984   0.26249   0.19837   0.00000  Uiso   1.00
I169   I     0.95911   0.05776   0.23124   0.00000  Uiso   1.00
I170   I     0.70756   0.27557   0.26876   0.00000  Uiso   1.00
I171   I     0.76556   0.06101   0.17447   0.00000  Uiso   1.00
I172   I     0.90111   0.27232   0.32553   0.00000  Uiso   1.00
I173   I     0.89650   0.05698   0.33036   0.00000  Uiso   1.00
I174   I     0.77016   0.27635   0.16964   0.00000  Uiso   1.00
C175   C     0.08763   0.50051   0.25341   0.00000  Uiso   1.00
C176   C     0.24571   0.49949   0.24659   0.00000  Uiso   1.00
C177   C     0.09314   0.49247   0.02244   0.00000  Uiso   1.00
C178   C     0.24019   0.50753   0.47756   0.00000  Uiso   1.00
C179   C     0.02222   0.45985   0.26294   0.00000  Uiso   1.00
C180   C     0.31111   0.54015   0.23706   0.00000  Uiso   1.00
C181   C     0.31379   0.45740   0.25136   0.00000  Uiso   1.00
C182   C     0.01955   0.54260   0.24864   0.00000  Uiso   1.00
C183   C     0.29061   0.49848   0.24307   0.00000  Uiso   1.00
C184   C     0.04273   0.50152   0.25693   0.00000  Uiso   1.00
C185   C     0.14147   0.35873   0.22038   0.00000  Uiso   1.00
C186   C     0.19186   0.64127   0.27962   0.00000  Uiso   1.00
C187   C     0.19142   0.35727   0.28008   0.00000  Uiso   1.00
C188   C     0.14192   0.64273   0.21992   0.00000  Uiso   1.00
C189   C     0.16778   0.50009   0.16468   0.00000  Uiso   1.00
C190   C     0.16555   0.49991   0.33532   0.00000  Uiso   1.00
C191   C     0.20200   0.49888   0.40778   0.00000  Uiso   1.00
C192   C     0.13134   0.50112   0.09222   0.00000  Uiso   1.00
C193   C     0.16456   0.49944   0.38360   0.00000  Uiso   1.00
C194   C     0.16877   0.50056   0.11640   0.00000  Uiso   1.00
C195   C     0.12710   0.50115   0.40533   0.00000  Uiso   1.00
C196   C     0.20624   0.49885   0.09467   0.00000  Uiso   1.00
C197   C     0.12746   0.49608   0.45223   0.00000  Uiso   1.00
C198   C     0.20588   0.50392   0.04777   0.00000  Uiso   1.00
C199   C     0.16588   0.49926   0.47654   0.00000  Uiso   1.00
C200   C     0.16746   0.50073   0.02346   0.00000  Uiso   1.00
C201   C     0.20286   0.50119   0.45397   0.00000  Uiso   1.00
C202   C     0.13047   0.49881   0.04603   0.00000  Uiso   1.00
C203   C     0.09144   0.48882   0.47621   0.00000  Uiso   1.00
C204   C     0.24189   0.51118   0.02379   0.00000  Uiso   1.00
Cu205  Cu    0.16667   0.54689   0.25000   0.00000  Uiso   1.00
Cu206  Cu    0.16667   0.45311   0.25000   0.00000  Uiso   1.00
H207   H     0.23049   0.49912   0.39031   0.00000  Uiso   1.00
H208   H     0.10285   0.50088   0.10969   0.00000  Uiso   1.00
H209   H     0.06534   0.48759   0.04037   0.00000  Uiso   1.00
H210   H     0.26799   0.51241   0.45963   0.00000  Uiso   1.00
N211   N     0.16667   0.61736   0.25000   0.00000  Uiso   1.00
N212   N     0.16667   0.38264   0.25000   0.00000  Uiso   1.00
O213   O     0.10655   0.53958   0.25000   0.00000  Uiso   1.00
O214   O     0.22679   0.46042   0.25001   0.00000  Uiso   1.00
O215   O     0.22679   0.53958   0.25001   0.00000  Uiso   1.00
O216   O     0.10655   0.46042   0.25000   0.00000  Uiso   1.00
O217   O     0.16666   0.53960   0.18513   0.00000  Uiso   1.00
O218   O     0.16668   0.46040   0.31487   0.00000  Uiso   1.00
O219   O     0.16668   0.53960   0.31487   0.00000  Uiso   1.00
O220   O     0.16666   0.46040   0.18513   0.00000  Uiso   1.00
I221   I     0.07465   0.52873   0.36846   0.00000  Uiso   1.00
I222   I     0.25868   0.47127   0.13154   0.00000  Uiso   1.00
I223   I     0.03608   0.45857   0.45043   0.00000  Uiso   1.00
I224   I     0.29725   0.54143   0.04957   0.00000  Uiso   1.00
I225   I     0.05016   0.40418   0.30163   0.00000  Uiso   1.00
I226   I     0.28317   0.59582   0.19837   0.00000  Uiso   1.00
I227   I     0.29244   0.39109   0.23124   0.00000  Uiso   1.00
I228   I     0.04089   0.60891   0.26876   0.00000  Uiso   1.00
I229   I     0.09889   0.39434   0.17447   0.00000  Uiso   1.00
I230   I     0.23444   0.60566   0.32553   0.00000  Uiso   1.00
I231   I     0.22984   0.39032   0.33036   0.00000  Uiso   1.00
I232   I     0.10349   0.60968   0.16964   0.00000  Uiso   1.00
C233   C     0.42096   0.50051   0.25341   0.00000  Uiso   1.00
C234   C     0.57904   0.49949   0.24659   0.00000  Uiso   1.00
C235   C     0.42647   0.49247   0.02244   0.00000  Uiso   1.00
C236   C     0.57353   0.50753   0.47756   0.00000  Uiso   1.00
C237   C     0.35555   0.45985   0.26294   0.00000  Uiso   1.00
C238   C     0.64445   0.54015   0.23706   0.00000  Uiso   1.00
C239   C     0.64712   0.45740   0.25136   0.00000  Uiso   1.00
C240   C     0.35288   0.54260   0.24864   0.00000  Uiso   1.00
C241   C     0.62394   0.49848   0.24307   0.00000  Uiso   1.00
C242   C     0.37606   0.50152   0.25693   0.00000  Uiso   1.00
C243   C     0.47480   0.35873   0.22038   0.00000  Uiso   1.00
C244   C     0.52520   0.64127   0.27962   0.00000  Uiso   1.00
C245   C     0.52475   0.35727   0.28008   0.00000  Uiso   1.00
C246   C     0.47525   0.64273   0.21992   0.00000  Uiso   1.00
C247   C     0.50111   0.50009   0.16468   0.00000  Uiso   1.00
C248   C     0.49888   0.49991   0.33532   0.00000  Uiso   1.00
C249   C     0.53533   0.49888   0.40778   0.00000  Uiso   1.00
C250   C     0.46467   0.50112   0.09222   0.00000  Uiso   1.00
C251   C     0.49789   0.49944   0.38360   0.00000  Uiso   1.00
C252   C     0.50211   0.50056   0.11640   0.00000  Uiso   1.00
C253   C     0.46043   0.50115   0.40533   0.00000  Uiso   1.00
C254   C     0.53957   0.49885   0.09467   0.00000  Uiso   1.00
C255   C     0.46079   0.49608   0.45223   0.00000  Uiso   1.00
C256   C     0.53921   0.50392   0.04777   0.00000  Uiso   1.00
C257   C     0.49921   0.49926   0.47654   0.00000  Uiso   1.00
C258   C     0.50079   0.50073   0.02346   0.00000  Uiso   1.00
C259   C     0.53619   0.50119   0.45397   0.00000  Uiso   1.00
C260   C     0.46381   0.49881   0.04603   0.00000  Uiso   1.00
C261   C     0.42477   0.48882   0.47621   0.00000  Uiso   1.00
C262   C     0.57523   0.51118   0.02379   0.00000  Uiso   1.00
Cu263  Cu    0.50000   0.54689   0.25000   0.00000  Uiso   1.00
Cu264  Cu    0.50000   0.45311   0.25000   0.00000  Uiso   1.00
H265   H     0.56382   0.49912   0.39031   0.00000  Uiso   1.00
H266   H     0.43618   0.50088   0.10969   0.00000  Uiso   1.00
H267   H     0.39868   0.48759   0.04037   0.00000  Uiso   1.00
H268   H     0.60132   0.51241   0.45963   0.00000  Uiso   1.00
N269   N     0.50000   0.61736   0.25000   0.00000  Uiso   1.00
N270   N     0.50000   0.38264   0.25000   0.00000  Uiso   1.00
O271   O     0.43988   0.53958   0.25000   0.00000  Uiso   1.00
O272   O     0.56012   0.46042   0.25001   0.00000  Uiso   1.00
O273   O     0.56012   0.53958   0.25001   0.00000  Uiso   1.00
O274   O     0.43988   0.46042   0.25000   0.00000  Uiso   1.00
O275   O     0.49999   0.53960   0.18513   0.00000  Uiso   1.00
O276   O     0.50001   0.46040   0.31487   0.00000  Uiso   1.00
O277   O     0.50001   0.53960   0.31487   0.00000  Uiso   1.00
O278   O     0.49999   0.46040   0.18513   0.00000  Uiso   1.00
I279   I     0.40798   0.52873   0.36846   0.00000  Uiso   1.00
I280   I     0.59201   0.47127   0.13154   0.00000  Uiso   1.00
I281   I     0.36941   0.45857   0.45043   0.00000  Uiso   1.00
I282   I     0.63059   0.54143   0.04957   0.00000  Uiso   1.00
I283   I     0.38349   0.40418   0.30163   0.00000  Uiso   1.00
I284   I     0.61651   0.59582   0.19837   0.00000  Uiso   1.00
I285   I     0.62577   0.39109   0.23124   0.00000  Uiso   1.00
I286   I     0.37423   0.60891   0.26876   0.00000  Uiso   1.00
I287   I     0.43223   0.39434   0.17447   0.00000  Uiso   1.00
I288   I     0.56777   0.60566   0.32553   0.00000  Uiso   1.00
I289   I     0.56317   0.39032   0.33036   0.00000  Uiso   1.00
I290   I     0.43683   0.60968   0.16964   0.00000  Uiso   1.00
C291   C     0.75429   0.50051   0.25341   0.00000  Uiso   1.00
C292   C     0.91237   0.49949   0.24659   0.00000  Uiso   1.00
C293   C     0.75981   0.49247   0.02244   0.00000  Uiso   1.00
C294   C     0.90686   0.50753   0.47756   0.00000  Uiso   1.00
C295   C     0.68889   0.45985   0.26294   0.00000  Uiso   1.00
C296   C     0.97778   0.54015   0.23706   0.00000  Uiso   1.00
C297   C     0.98045   0.45740   0.25136   0.00000  Uiso   1.00
C298   C     0.68621   0.54260   0.24864   0.00000  Uiso   1.00
C299   C     0.95727   0.49848   0.24307   0.00000  Uiso   1.00
C300   C     0.70939   0.50152   0.25693   0.00000  Uiso   1.00
C301   C     0.80814   0.35873   0.22038   0.00000  Uiso   1.00
C302   C     0.85853   0.64127   0.27962   0.00000  Uiso   1.00
C303   C     0.85808   0.35727   0.28008   0.00000  Uiso   1.00
C304   C     0.80858   0.64273   0.21992   0.00000  Uiso   1.00
C305   C     0.83445   0.50009   0.16468   0.00000  Uiso   1.00
C306   C     0.83222   0.49991   0.33532   0.00000  Uiso   1.00
C307   C     0.86866   0.49888   0.40778   0.00000  Uiso   1.00
C308   C     0.79800   0.50112   0.09222   0.00000  Uiso   1.00
C309   C     0.83123   0.49944   0.38360   0.00000  Uiso   1.00
C310   C     0.83544   0.50056   0.11640   0.00000  Uiso   1.00
C311   C     0.79376   0.50115   0.40533   0.00000  Uiso   1.00
C312   C     0.87290   0.49885   0.09467   0.00000  Uiso   1.00
C313   C     0.79412   0.49608   0.45223   0.00000  Uiso   1.00
C314   C     0.87254   0.50392   0.04777   0.00000  Uiso   1.00
C315   C     0.83254   0.49926   0.47654   0.00000  Uiso   1.00
C316   C     0.83412   0.50073   0.02346   0.00000  Uiso   1.00
C317   C     0.86953   0.50119   0.45397   0.00000  Uiso   1.00
C318   C     0.79714   0.49881   0.04603   0.00000  Uiso   1.00
C319   C     0.75811   0.48882   0.47621   0.00000  Uiso   1.00
C320   C     0.90856   0.51118   0.02379   0.00000  Uiso   1.00
Cu321  Cu    0.83333   0.54689   0.25000   0.00000  Uiso   1.00
Cu322  Cu    0.83333   0.45311   0.25000   0.00000  Uiso   1.00
H323   H     0.89715   0.49912   0.39031   0.00000  Uiso   1.00
H324   H     0.76951   0.50088   0.10969   0.00000  Uiso   1.00
H325   H     0.73201   0.48759   0.04037   0.00000  Uiso   1.00
H326   H     0.93466   0.51241   0.45963   0.00000  Uiso   1.00
N327   N     0.83333   0.61736   0.25000   0.00000  Uiso   1.00
N328   N     0.83333   0.38264   0.25000   0.00000  Uiso   1.00
O329   O     0.77321   0.53958   0.25000   0.00000  Uiso   1.00
O330   O     0.89345   0.46042   0.25001   0.00000  Uiso   1.00
O331   O     0.89345   0.53958   0.25001   0.00000  Uiso   1.00
O332   O     0.77321   0.46042   0.25000   0.00000  Uiso   1.00
O333   O     0.83332   0.53960   0.18513   0.00000  Uiso   1.00
O334   O     0.83334   0.46040   0.31487   0.00000  Uiso   1.00
O335   O     0.83334   0.53960   0.31487   0.00000  Uiso   1.00
O336   O     0.83332   0.46040   0.18513   0.00000  Uiso   1.00
I337   I     0.74132   0.52873   0.36846   0.00000  Uiso   1.00
I338   I     0.92535   0.47127   0.13154   0.00000  Uiso   1.00
I339   I     0.70274   0.45857   0.45043   0.00000  Uiso   1.00
I340   I     0.96392   0.54143   0.04957   0.00000  Uiso   1.00
I341   I     0.71683   0.40418   0.30163   0.00000  Uiso   1.00
I342   I     0.94984   0.59582   0.19837   0.00000  Uiso   1.00
I343   I     0.95911   0.39109   0.23124   0.00000  Uiso   1.00
I344   I     0.70756   0.60891   0.26876   0.00000  Uiso   1.00
I345   I     0.76556   0.39434   0.17447   0.00000  Uiso   1.00
I346   I     0.90111   0.60566   0.32553   0.00000  Uiso   1.00
I347   I     0.89650   0.39032   0.33036   0.00000  Uiso   1.00
I348   I     0.77016   0.60968   0.16964   0.00000  Uiso   1.00
C349   C     0.08763   0.83384   0.25341   0.00000  Uiso   1.00
C350   C     0.24571   0.83282   0.24659   0.00000  Uiso   1.00
C351   C     0.09314   0.82581   0.02244   0.00000  Uiso   1.00
C352   C     0.24019   0.84086   0.47756   0.00000  Uiso   1.00
C353   C     0.02222   0.79318   0.26294   0.00000  Uiso   1.00
C354   C     0.31111   0.87348   0.23706   0.00000  Uiso   1.00
C355   C     0.31379   0.79073   0.25136   0.00000  Uiso   1.00
C356   C     0.01955   0.87594   0.24864   0.00000  Uiso   1.00
C357   C     0.29061   0.83181   0.24307   0.00000  Uiso   1.00
C358   C     0.04273   0.83486   0.25693   0.00000  Uiso   1.00
C359   C     0.14147   0.69206   0.22038   0.00000  Uiso   1.00
C360   C     0.19186   0.97460   0.27962   0.00000  Uiso   1.00
C361   C     0.19142   0.69060   0.28008   0.00000  Uiso   1.00
C362   C     0.14192   0.97606   0.21992   0.00000  Uiso   1.00
C363   C     0.16778   0.83343   0.16468   0.00000  Uiso   1.00
C364   C     0.16555   0.83324   0.33532   0.00000  Uiso   1.00
C365   C     0.20200   0.83221   0.40778   0.00000  Uiso   1.00
C366   C     0.13134   0.83446   0.09222   0.00000  Uiso   1.00
C367   C     0.16456   0.83277   0.38360   0.00000  Uiso   1.00
C368   C     0.16877   0.83390   0.11640   0.00000  Uiso   1.00
C369   C     0.12710   0.83448   0.40533   0.00000  Uiso   1.00
C370   C     0.20624   0.83219   0.09467   0.00000  Uiso   1.00
C371   C     0.12746   0.82941   0.45223   0.00000  Uiso   1.00
C372   C     0.20588   0.83726   0.04777   0.00000  Uiso   1.00
C373   C     0.16588   0.83260   0.47654   0.00000  Uiso   1.00
C374   C     0.16746   0.83407   0.02346   0.00000  Uiso   1.00
C375   C     0.20286   0.83452   0.45397   0.00000  Uiso   1.00
C376   C     0.13047   0.83214   0.04603   0.00000  Uiso   1.00
C377   C     0.09144   0.82215   0.47621   0.00000  Uiso   1.00
C378   C     0.24189   0.84451   0.02379   0.00000  Uiso   1.00
Cu379  Cu    0.16667   0.88022   0.25000   0.00000  Uiso   1.00
Cu380  Cu    0.16667   0.78645   0.25000   0.00000  Uiso   1.00
H381   H     0.23049   0.83246   0.39031   0.00000  Uiso   1.00
H382   H     0.10285   0.83421   0.10969   0.00000  Uiso   1.00
H383   H     0.06534   0.82092   0.04037   0.00000  Uiso   1.00
H384   H     0.26799   0.84574   0.45963   0.00000  Uiso   1.00
N385   N     0.16667   0.95069   0.25000   0.00000  Uiso   1.00
N386   N     0.16667   0.71598   0.25000   0.00000  Uiso   1.00
O387   O     0.10655   0.87291   0.25000   0.00000  Uiso   1.00
O388   O     0.22679   0.79375   0.25001   0.00000  Uiso   1.00
O389   O     0.22679   0.87291   0.25001   0.00000  Uiso   1.00
O390   O     0.10655   0.79375   0.25000   0.00000  Uiso   1.00
O391   O     0.16666   0.87293   0.18513   0.00000  Uiso   1.00
O392   O     0.16668   0.79373   0.31487   0.00000  Uiso   1.00
O393   O     0.16668   0.87293   0.31487   0.00000  Uiso   1.00
O394   O     0.16666   0.79373   0.18513   0.00000  Uiso   1.00
I395   I     0.07465   0.86206   0.36846   0.00000  Uiso   1.00
I396   I     0.25868   0.80461   0.13154   0.00000  Uiso   1.00
I397   I     0.03608   0.79190   0.45043   0.00000  Uiso   1.00
I398   I     0.29725   0.87476   0.04957   0.00000  Uiso   1.00
I399   I     0.05016   0.73751   0.30163   0.00000  Uiso   1.00
I400   I     0.28317   0.92915   0.19837   0.00000  Uiso   1.00
I401   I     0.29244   0.72443   0.23124   0.00000  Uiso   1.00
I402   I     0.04089   0.94224   0.26876   0.00000  Uiso   1.00
I403   I     0.09889   0.72768   0.17447   0.00000  Uiso   1.00
I404   I     0.23444   0.93899   0.32553   0.00000  Uiso   1.00
I405   I     0.22984   0.72365   0.33036   0.00000  Uiso   1.00
I406   I     0.10349   0.94302   0.16964   0.00000  Uiso   1.00
C407   C     0.42096   0.83384   0.25341   0.00000  Uiso   1.00
C408   C     0.57904   0.83282   0.24659   0.00000  Uiso   1.00
C409   C     0.42647   0.82581   0.02244   0.00000  Uiso   1.00
C410   C     0.57353   0.84086   0.47756   0.00000  Uiso   1.00
C411   C     0.35555   0.79318   0.26294   0.00000  Uiso   1.00
C412   C     0.64445   0.87348   0.23706   0.00000  Uiso   1.00
C413   C     0.64712   0.79073   0.25136   0.00000  Uiso   1.00
C414   C     0.35288   0.87594   0.24864   0.00000  Uiso   1.00
C415   C     0.62394   0.83181   0.24307   0.00000  Uiso   1.00
C416   C     0.37606   0.83486   0.25693   0.00000  Uiso   1.00
C417   C     0.47480   0.69206   0.22038   0.00000  Uiso   1.00
C418   C     0.52520   0.97460   0.27962   0.00000  Uiso   1.00
C419   C     0.52475   0.69060   0.28008   0.00000  Uiso   1.00
C420   C     0.47525   0.97606   0.21992   0.00000  Uiso   1.00
C421   C     0.50111   0.83343   0.16468   0.00000  Uiso   1.00
C422   C     0.49888   0.83324   0.33532   0.00000  Uiso   1.00
C423   C     0.53533   0.83221   0.40778   0.00000  Uiso   1.00
C424   C     0.46467   0.83446   0.09222   0.00000  Uiso   1.00
C425   C     0.49789   0.83277   0.38360   0.00000  Uiso   1.00
C426   C     0.50211   0.83390   0.11640   0.00000  Uiso   1.00
C427   C     0.46043   0.83448   0.40533   0.00000  Uiso   1.00
C428   C     0.53957   0.83219   0.09467   0.00000  Uiso   1.00
C429   C     0.46079   0.82941   0.45223   0.00000  Uiso   1.00
C430   C     0.53921   0.83726   0.04777   0.00000  Uiso   1.00
C431   C     0.49921   0.83260   0.47654   0.00000  Uiso   1.00
C432   C     0.50079   0.83407   0.02346   0.00000  Uiso   1.00
C433   C     0.53619   0.83452   0.45397   0.00000  Uiso   1.00
C434   C     0.46381   0.83214   0.04603   0.00000  Uiso   1.00
C435   C     0.42477   0.82215   0.47621   0.00000  Uiso   1.00
C436   C     0.57523   0.84451   0.02379   0.00000  Uiso   1.00
Cu437  Cu    0.50000   0.88022   0.25000   0.00000  Uiso   1.00
Cu438  Cu    0.50000   0.78645   0.25000   0.00000  Uiso   1.00
H439   H     0.56382   0.83246   0.39031   0.00000  Uiso   1.00
H440   H     0.43618   0.83421   0.10969   0.00000  Uiso   1.00
H441   H     0.39868   0.82092   0.04037   0.00000  Uiso   1.00
H442   H     0.60132   0.84574   0.45963   0.00000  Uiso   1.00
N443   N     0.50000   0.95069   0.25000   0.00000  Uiso   1.00
N444   N     0.50000   0.71598   0.25000   0.00000  Uiso   1.00
O445   O     0.43988   0.87291   0.25000   0.00000  Uiso   1.00
O446   O     0.56012   0.79375   0.25001   0.00000  Uiso   1.00
O447   O     0.56012   0.87291   0.25001   0.00000  Uiso   1.00
O448   O     0.43988   0.79375   0.25000   0.00000  Uiso   1.00
O449   O     0.49999   0.87293   0.18513   0.00000  Uiso   1.00
O450   O     0.50001   0.79373   0.31487   0.00000  Uiso   1.00
O451   O     0.50001   0.87293   0.31487   0.00000  Uiso   1.00
O452   O     0.49999   0.79373   0.18513   0.00000  Uiso   1.00
I453   I     0.40798   0.86206   0.36846   0.00000  Uiso   1.00
I454   I     0.59201   0.80461   0.13154   0.00000  Uiso   1.00
I455   I     0.36941   0.79190   0.45043   0.00000  Uiso   1.00
I456   I     0.63059   0.87476   0.04957   0.00000  Uiso   1.00
I457   I     0.38349   0.73751   0.30163   0.00000  Uiso   1.00
I458   I     0.61651   0.92915   0.19837   0.00000  Uiso   1.00
I459   I     0.62577   0.72443   0.23124   0.00000  Uiso   1.00
I460   I     0.37423   0.94224   0.26876   0.00000  Uiso   1.00
I461   I     0.43223   0.72768   0.17447   0.00000  Uiso   1.00
I462   I     0.56777   0.93899   0.32553   0.00000  Uiso   1.00
I463   I     0.56317   0.72365   0.33036   0.00000  Uiso   1.00
I464   I     0.43683   0.94302   0.16964   0.00000  Uiso   1.00
C465   C     0.75429   0.83384   0.25341   0.00000  Uiso   1.00
C466   C     0.91237   0.83282   0.24659   0.00000  Uiso   1.00
C467   C     0.75981   0.82581   0.02244   0.00000  Uiso   1.00
C468   C     0.90686   0.84086   0.47756   0.00000  Uiso   1.00
C469   C     0.68889   0.79318   0.26294   0.00000  Uiso   1.00
C470   C     0.97778   0.87348   0.23706   0.00000  Uiso   1.00
C471   C     0.98045   0.79073   0.25136   0.00000  Uiso   1.00
C472   C     0.68621   0.87594   0.24864   0.00000  Uiso   1.00
C473   C     0.95727   0.83181   0.24307   0.00000  Uiso   1.00
C474   C     0.70939   0.83486   0.25693   0.00000  Uiso   1.00
C475   C     0.80814   0.69206   0.22038   0.00000  Uiso   1.00
C476   C     0.85853   0.97460   0.27962   0.00000  Uiso   1.00
C477   C     0.85808   0.69060   0.28008   0.00000  Uiso   1.00
C478   C     0.80858   0.97606   0.21992   0.00000  Uiso   1.00
C479   C     0.83445   0.83343   0.16468   0.00000  Uiso   1.00
C480   C     0.83222   0.83324   0.33532   0.00000  Uiso   1.00
C481   C     0.86866   0.83221   0.40778   0.00000  Uiso   1.00
C482   C     0.79800   0.83446   0.09222   0.00000  Uiso   1.00
C483   C     0.83123   0.83277   0.38360   0.00000  Uiso   1.00
C484   C     0.83544   0.83390   0.11640   0.00000  Uiso   1.00
C485   C     0.79376   0.83448   0.40533   0.00000  Uiso   1.00
C486   C     0.87290   0.83219   0.09467   0.00000  Uiso   1.00
C487   C     0.79412   0.82941   0.45223   0.00000  Uiso   1.00
C488   C     0.87254   0.83726   0.04777   0.00000  Uiso   1.00
C489   C     0.83254   0.83260   0.47654   0.00000  Uiso   1.00
C490   C     0.83412   0.83407   0.02346   0.00000  Uiso   1.00
C491   C     0.86953   0.83452   0.45397   0.00000  Uiso   1.00
C492   C     0.79714   0.83214   0.04603   0.00000  Uiso   1.00
C493   C     0.75811   0.82215   0.47621   0.00000  Uiso   1.00
C494   C     0.90856   0.84451   0.02379   0.00000  Uiso   1.00
Cu495  Cu    0.83333   0.88022   0.25000   0.00000  Uiso   1.00
Cu496  Cu    0.83333   0.78645   0.25000   0.00000  Uiso   1.00
H497   H     0.89715   0.83246   0.39031   0.00000  Uiso   1.00
H498   H     0.76951   0.83421   0.10969   0.00000  Uiso   1.00
H499   H     0.73201   0.82092   0.04037   0.00000  Uiso   1.00
H500   H     0.93466   0.84574   0.45963   0.00000  Uiso   1.00
N501   N     0.83333   0.95069   0.25000   0.00000  Uiso   1.00
N502   N     0.83333   0.71598   0.25000   0.00000  Uiso   1.00
O503   O     0.77321   0.87291   0.25000   0.00000  Uiso   1.00
O504   O     0.89345   0.79375   0.25001   0.00000  Uiso   1.00
O505   O     0.89345   0.87291   0.25001   0.00000  Uiso   1.00
O506   O     0.77321   0.79375   0.25000   0.00000  Uiso   1.00
O507   O     0.83332   0.87293   0.18513   0.00000  Uiso   1.00
O508   O     0.83334   0.79373   0.31487   0.00000  Uiso   1.00
O509   O     0.83334   0.87293   0.31487   0.00000  Uiso   1.00
O510   O     0.83332   0.79373   0.18513   0.00000  Uiso   1.00
I511   I     0.74132   0.86206   0.36846   0.00000  Uiso   1.00
I512   I     0.92535   0.80461   0.13154   0.00000  Uiso   1.00
I513   I     0.70274   0.79190   0.45043   0.00000  Uiso   1.00
I514   I     0.96392   0.87476   0.04957   0.00000  Uiso   1.00
I515   I     0.71683   0.73751   0.30163   0.00000  Uiso   1.00
I516   I     0.94984   0.92915   0.19837   0.00000  Uiso   1.00
I517   I     0.95911   0.72443   0.23124   0.00000  Uiso   1.00
I518   I     0.70756   0.94224   0.26876   0.00000  Uiso   1.00
I519   I     0.76556   0.72768   0.17447   0.00000  Uiso   1.00
I520   I     0.90111   0.93899   0.32553   0.00000  Uiso   1.00
I521   I     0.89650   0.72365   0.33036   0.00000  Uiso   1.00
I522   I     0.77016   0.94302   0.16964   0.00000  Uiso   1.00
C523   C     0.08763   0.16718   0.75341   0.00000  Uiso   1.00
C524   C     0.24571   0.16616   0.74659   0.00000  Uiso   1.00
C525   C     0.09314   0.15914   0.52244   0.00000  Uiso   1.00
C526   C     0.24019   0.17419   0.97756   0.00000  Uiso   1.00
C527   C     0.02222   0.12652   0.76294   0.00000  Uiso   1.00
C528   C     0.31111   0.20682   0.73706   0.00000  Uiso   1.00
C529   C     0.31379   0.12406   0.75136   0.00000  Uiso   1.00
C530   C     0.01955   0.20927   0.74864   0.00000  Uiso   1.00
C531   C     0.29061   0.16514   0.74307   0.00000  Uiso   1.00
C532   C     0.04273   0.16819   0.75693   0.00000  Uiso   1.00
C533   C     0.14147   0.02540   0.72038   0.00000  Uiso   1.00
C534   C     0.19186   0.30794   0.77962   0.00000  Uiso   1.00
C535   C     0.19142   0.02394   0.78008   0.00000  Uiso   1.00
C536   C     0.14192   0.30940   0.71992   0.00000  Uiso   1.00
C537   C     0.16778   0.16676   0.66468   0.00000  Uiso   1.00
C538   C     0.16555   0.16657   0.83532   0.00000  Uiso   1.00
C539   C     0.20200   0.16554   0.90778   0.00000  Uiso   1.00
C540   C     0.13134   0.16779   0.59222   0.00000  Uiso   1.00
C541   C     0.16456   0.16610   0.88360   0.00000  Uiso   1.00
C542   C     0.16877   0.16723   0.61640   0.00000  Uiso   1.00
C543   C     0.12710   0.16781   0.90533   0.00000  Uiso   1.00
C544   C     0.20624   0.16552   0.59467   0.00000  Uiso   1.00
C545   C     0.12746   0.16274   0.95223   0.00000  Uiso   1.00
C546   C     0.20588   0.17059   0.54777   0.00000  Uiso   1.00
C547   C     0.16588   0.16593   0.97654   0.00000  Uiso   1.00
C548   C     0.16746   0.16740   0.52346   0.00000  Uiso   1.00
C549   C     0.20286   0.16786   0.95397   0.00000  Uiso   1.00
C550   C     0.13047   0.16548   0.54603   0.00000  Uiso   1.00
C551   C     0.09144   0.15549   0.97621   0.00000  Uiso   1.00
C552   C     0.24189   0.17785   0.52379   0.00000  Uiso   1.00
Cu553  Cu    0.16667   0.21355   0.75000   0.00000  Uiso   1.00
Cu554  Cu    0.16667   0.11978   0.75000   0.00000  Uiso   1.00
H555   H     0.23049   0.16579   0.89031   0.00000  Uiso   1.00
H556   H     0.10285   0.16754   0.60969   0.00000  Uiso   1.00
H557   H     0.06534   0.15426   0.54037   0.00000  Uiso   1.00
H558   H     0.26799   0.17907   0.95963   0.00000  Uiso   1.00
N559   N     0.16667   0.28402   0.75000   0.00000  Uiso   1.00
N560   N     0.16667   0.04931   0.75000   0.00000  Uiso   1.00
O561   O     0.10655   0.20625   0.75000   0.00000  Uiso   1.00
O562   O     0.22679   0.12709   0.75001   0.00000  Uiso   1.00
O563   O     0.22679   0.20625   0.75001   0.00000  Uiso   1.00
O564   O     0.10655   0.12709   0.75000   0.00000  Uiso   1.00
O565   O     0.16666   0.20627   0.68513   0.00000  Uiso   1.00
O566   O     0.16668   0.12707   0.81487   0.00000  Uiso   1.00
O567   O     0.16668   0.20627   0.81487   0.00000  Uiso   1.00
O568   O     0.16666   0.12707   0.68513   0.00000  Uiso   1.00
I569   I     0.07465   0.19539   0.86846   0.00000  Uiso   1.00
I570   I     0.25868   0.13794   0.63154   0.00000  Uiso   1.00
I571   I     0.03608   0.12524   0.95043   0.00000  Uiso   1.00
I572   I     0.29725   0.20810   0.54957   0.00000  Uiso   1.00
I573   I     0.05016   0.07085   0.80163   0.00000  Uiso   1.00
I574   I     0.28317   0.26249   0.69837   0.00000  Uiso   1.00
I575   I     0.29244   0.05776   0.73124   0.00000  Uiso   1.00
I576   I     0.04089   0.27557   0.76876   0.00000  Uiso   1.00
I577   I     0.09889   0.06101   0.67447   0.00000  Uiso   1.00
I578   I     0.23444   0.27232   0.82553   0.00000  Uiso   1.00
I579   I     0.22984   0.05698   0.83036   0.00000  Uiso   1.00
I580   I     0.10349   0.27635   0.66964   0.00000  Uiso   1.00
C581   C     0.42096   0.16718   0.75341   0.00000  Uiso   1.00
C582   C     0.57904   0.16616   0.74659   0.00000  Uiso   1.00
C583   C     0.42647   0.15914   0.52244   0.00000  Uiso   1.00
C584   C     0.57353   0.17419   0.97756   0.00000  Uiso   1.00
C585   C     0.35555   0.12652   0.76294   0.00000  Uiso   1.00
C586   C     0.64445   0.20682   0.73706   0.00000  Uiso   1.00
C587   C     0.64712   0.12406   0.75136   0.00000  Uiso   1.00
C588   C     0.35288   0.20927   0.74864   0.00000  Uiso   1.00
C589   C     0.62394   0.16514   0.74307   0.00000  Uiso   1.00
C590   C     0.37606   0.16819   0.75693   0.00000  Uiso   1.00
C591   C     0.47480   0.02540   0.72038   0.00000  Uiso   1.00
C592   C     0.52520   0.30794   0.77962   0.00000  Uiso   1.00
C593   C     0.52475   0.02394   0.78008   0.00000  Uiso   1.00
C594   C     0.47525   0.30940   0.71992   0.00000  Uiso   1.00
C595   C     0.50111   0.16676   0.66468   0.00000  Uiso   1.00
C596   C     0.49888   0.16657   0.83532   0.00000  Uiso   1.00
C597   C     0.53533   0.16554   0.90778   0.00000  Uiso   1.00
C598   C     0.46467   0.16779   0.59222   0.00000  Uiso   1.00
C599   C     0.49789   0.16610   0.88360   0.00000  Uiso   1.00
C600   C     0.50211   0.16723   0.61640   0.00000  Uiso   1.00
C601   C     0.46043   0.16781   0.90533   0.00000  Uiso   1.00
C602   C     0.53957   0.16552   0.59467   0.00000  Uiso   1.00
C603   C     0.46079   0.16274   0.95223   0.00000  Uiso   1.00
C604   C     0.53921   0.17059   0.54777   0.00000  Uiso   1.00
C605   C     0.49921   0.16593   0.97654   0.00000  Uiso   1.00
C606   C     0.50079   0.16740   0.52346   0.00000  Uiso   1.00
C607   C     0.53619   0.16786   0.95397   0.00000  Uiso   1.00
C608   C     0.46381   0.16548   0.54603   0.00000  Uiso   1.00
C609   C     0.42477   0.15549   0.97621   0.00000  Uiso   1.00
C610   C     0.57523   0.17785   0.52379   0.00000  Uiso   1.00
Cu611  Cu    0.50000   0.21355   0.75000   0.00000  Uiso   1.00
Cu612  Cu    0.50000   0.11978   0.75000   0.00000  Uiso   1.00
H613   H     0.56382   0.16579   0.89031   0.00000  Uiso   1.00
H614   H     0.43618   0.16754   0.60969   0.00000  Uiso   1.00
H615   H     0.39868   0.15426   0.54037   0.00000  Uiso   1.00
H616   H     0.60132   0.17907   0.95963   0.00000  Uiso   1.00
N617   N     0.50000   0.28402   0.75000   0.00000  Uiso   1.00
N618   N     0.50000   0.04931   0.75000   0.00000  Uiso   1.00
O619   O     0.43988   0.20625   0.75000   0.00000  Uiso   1.00
O620   O     0.56012   0.12709   0.75001   0.00000  Uiso   1.00
O621   O     0.56012   0.20625   0.75001   0.00000  Uiso   1.00
O622   O     0.43988   0.12709   0.75000   0.00000  Uiso   1.00
O623   O     0.49999   0.20627   0.68513   0.00000  Uiso   1.00
O624   O     0.50001   0.12707   0.81487   0.00000  Uiso   1.00
O625   O     0.50001   0.20627   0.81487   0.00000  Uiso   1.00
O626   O     0.49999   0.12707   0.68513   0.00000  Uiso   1.00
I627   I     0.40798   0.19539   0.86846   0.00000  Uiso   1.00
I628   I     0.59201   0.13794   0.63154   0.00000  Uiso   1.00
I629   I     0.36941   0.12524   0.95043   0.00000  Uiso   1.00
I630   I     0.63059   0.20810   0.54957   0.00000  Uiso   1.00
I631   I     0.38349   0.07085   0.80163   0.00000  Uiso   1.00
I632   I     0.61651   0.26249   0.69837   0.00000  Uiso   1.00
I633   I     0.62577   0.05776   0.73124   0.00000  Uiso   1.00
I634   I     0.37423   0.27557   0.76876   0.00000  Uiso   1.00
I635   I     0.43223   0.06101   0.67447   0.00000  Uiso   1.00
I636   I     0.56777   0.27232   0.82553   0.00000  Uiso   1.00
I637   I     0.56317   0.05698   0.83036   0.00000  Uiso   1.00
I638   I     0.43683   0.27635   0.66964   0.00000  Uiso   1.00
C639   C     0.75429   0.16718   0.75341   0.00000  Uiso   1.00
C640   C     0.91237   0.16616   0.74659   0.00000  Uiso   1.00
C641   C     0.75981   0.15914   0.52244   0.00000  Uiso   1.00
C642   C     0.90686   0.17419   0.97756   0.00000  Uiso   1.00
C643   C     0.68889   0.12652   0.76294   0.00000  Uiso   1.00
C644   C     0.97778   0.20682   0.73706   0.00000  Uiso   1.00
C645   C     0.98045   0.12406   0.75136   0.00000  Uiso   1.00
C646   C     0.68621   0.20927   0.74864   0.00000  Uiso   1.00
C647   C     0.95727   0.16514   0.74307   0.00000  Uiso   1.00
C648   C     0.70939   0.16819   0.75693   0.00000  Uiso   1.00
C649   C     0.80814   0.02540   0.72038   0.00000  Uiso   1.00
C650   C     0.85853   0.30794   0.77962   0.00000  Uiso   1.00
C651   C     0.85808   0.02394   0.78008   0.00000  Uiso   1.00
C652   C     0.80858   0.30940   0.71992   0.00000  Uiso   1.00
C653   C     0.83445   0.16676   0.66468   0.00000  Uiso   1.00
C654   C     0.83222   0.16657   0.83532   0.00000  Uiso   1.00
C655   C     0.86866   0.16554   0.90778   0.00000  Uiso   1.00
C656   C     0.79800   0.16779   0.59222   0.00000  Uiso   1.00
C657   C     0.83123   0.16610   0.88360   0.00000  Uiso   1.00
C658   C     0.83544   0.16723   0.61640   0.00000  Uiso   1.00
C659   C     0.79376   0.16781   0.90533   0.00000  Uiso   1.00
C660   C     0.87290   0.16552   0.59467   0.00000  Uiso   1.00
C661   C     0.79412   0.16274   0.95223   0.00000  Uiso   1.00
C662   C     0.87254   0.17059   0.54777   0.00000  Uiso   1.00
C663   C     0.83254   0.16593   0.97654   0.00000  Uiso   1.00
C664   C     0.83412   0.16740   0.52346   0.00000  Uiso   1.00
C665   C     0.86953   0.16786   0.95397   0.00000  Uiso   1.00
C666   C     0.79714   0.16548   0.54603   0.00000  Uiso   1.00
C667   C     0.75811   0.15549   0.97621   0.00000  Uiso   1.00
C668   C     0.90856   0.17785   0.52379   0.00000  Uiso   1.00
Cu669  Cu    0.83333   0.21355   0.75000   0.00000  Uiso   1.00
Cu670  Cu    0.83333   0.11978   0.75000   0.00000  Uiso   1.00
H671   H     0.89715   0.16579   0.89031   0.00000  Uiso   1.00
H672   H     0.76951   0.16754   0.60969   0.00000  Uiso   1.00
H673   H     0.73201   0.15426   0.54037   0.00000  Uiso   1.00
H674   H     0.93466   0.17907   0.95963   0.00000  Uiso   1.00
N675   N     0.83333   0.28402   0.75000   0.00000  Uiso   1.00
N676   N     0.83333   0.04931   0.75000   0.00000  Uiso   1.00
O677   O     0.77321   0.20625   0.75000   0.00000  Uiso   1.00
O678   O     0.89345   0.12709   0.75001   0.00000  Uiso   1.00
O679   O     0.89345   0.20625   0.75001   0.00000  Uiso   1.00
O680   O     0.77321   0.12709   0.75000   0.00000  Uiso   1.00
O681   O     0.83332   0.20627   0.68513   0.00000  Uiso   1.00
O682   O     0.83334   0.12707   0.81487   0.00000  Uiso   1.00
O683   O     0.83334   0.20627   0.81487   0.00000  Uiso   1.00
O684   O     0.83332   0.12707   0.68513   0.00000  Uiso   1.00
I685   I     0.74132   0.19539   0.86846   0.00000  Uiso   1.00
I686   I     0.92535   0.13794   0.63154   0.00000  Uiso   1.00
I687   I     0.70274   0.12524   0.95043   0.00000  Uiso   1.00
I688   I     0.96392   0.20810   0.54957   0.00000  Uiso   1.00
I689   I     0.71683   0.07085   0.80163   0.00000  Uiso   1.00
I690   I     0.94984   0.26249   0.69837   0.00000  Uiso   1.00
I691   I     0.95911   0.05776   0.73124   0.00000  Uiso   1.00
I692   I     0.70756   0.27557   0.76876   0.00000  Uiso   1.00
I693   I     0.76556   0.06101   0.67447   0.00000  Uiso   1.00
I694   I     0.90111   0.27232   0.82553   0.00000  Uiso   1.00
I695   I     0.89650   0.05698   0.83036   0.00000  Uiso   1.00
I696   I     0.77016   0.27635   0.66964   0.00000  Uiso   1.00
C697   C     0.08763   0.50051   0.75341   0.00000  Uiso   1.00
C698   C     0.24571   0.49949   0.74659   0.00000  Uiso   1.00
C699   C     0.09314   0.49247   0.52244   0.00000  Uiso   1.00
C700   C     0.24019   0.50753   0.97756   0.00000  Uiso   1.00
C701   C     0.02222   0.45985   0.76294   0.00000  Uiso   1.00
C702   C     0.31111   0.54015   0.73706   0.00000  Uiso   1.00
C703   C     0.31379   0.45740   0.75136   0.00000  Uiso   1.00
C704   C     0.01955   0.54260   0.74864   0.00000  Uiso   1.00
C705   C     0.29061   0.49848   0.74307   0.00000  Uiso   1.00
C706   C     0.04273   0.50152   0.75693   0.00000  Uiso   1.00
C707   C     0.14147   0.35873   0.72038   0.00000  Uiso   1.00
C708   C     0.19186   0.64127   0.77962   0.00000  Uiso   1.00
C709   C     0.19142   0.35727   0.78008   0.00000  Uiso   1.00
C710   C     0.14192   0.64273   0.71992   0.00000  Uiso   1.00
C711   C     0.16778   0.50009   0.66468   0.00000  Uiso   1.00
C712   C     0.16555   0.49991   0.83532   0.00000  Uiso   1.00
C713   C     0.20200   0.49888   0.90778   0.00000  Uiso   1.00
C714   C     0.13134   0.50112   0.59222   0.00000  Uiso   1.00
C715   C     0.16456   0.49944   0.88360   0.00000  Uiso   1.00
C716   C     0.16877   0.50056   0.61640   0.00000  Uiso   1.00
C717   C     0.12710   0.50115   0.90533   0.00000  Uiso   1.00
C718   C     0.20624   0.49885   0.59467   0.00000  Uiso   1.00
C719   C     0.12746   0.49608   0.95223   0.00000  Uiso   1.00
C720   C     0.20588   0.50392   0.54777   0.00000  Uiso   1.00
C721   C     0.16588   0.49926   0.97654   0.00000  Uiso   1.00
C722   C     0.16746   0.50073   0.52346   0.00000  Uiso   1.00
C723   C     0.20286   0.50119   0.95397   0.00000  Uiso   1.00
C724   C     0.13047   0.49881   0.54603   0.00000  Uiso   1.00
C725   C     0.09144   0.48882   0.97621   0.00000  Uiso   1.00
C726   C     0.24189   0.51118   0.52379   0.00000  Uiso   1.00
Cu727  Cu    0.16667   0.54689   0.75000   0.00000  Uiso   1.00
Cu728  Cu    0.16667   0.45311   0.75000   0.00000  Uiso   1.00
H729   H     0.23049   0.49912   0.89031   0.00000  Uiso   1.00
H730   H     0.10285   0.50088   0.60969   0.00000  Uiso   1.00
H731   H     0.06534   0.48759   0.54037   0.00000  Uiso   1.00
H732   H     0.26799   0.51241   0.95963   0.00000  Uiso   1.00
N733   N     0.16667   0.61736   0.75000   0.00000  Uiso   1.00
N734   N     0.16667   0.38264   0.75000   0.00000  Uiso   1.00
O735   O     0.10655   0.53958   0.75000   0.00000  Uiso   1.00
O736   O     0.22679   0.46042   0.75001   0.00000  Uiso   1.00
O737   O     0.22679   0.53958   0.75001   0.00000  Uiso   1.00
O738   O     0.10655   0.46042   0.75000   0.00000  Uiso   1.00
O739   O     0.16666   0.53960   0.68513   0.00000  Uiso   1.00
O740   O     0.16668   0.46040   0.81487   0.00000  Uiso   1.00
O741   O     0.16668   0.53960   0.81487   0.00000  Uiso   1.00
O742   O     0.16666   0.46040   0.68513   0.00000  Uiso   1.00
I743   I     0.07465   0.52873   0.86846   0.00000  Uiso   1.00
I744   I     0.25868   0.47127   0.63154   0.00000  Uiso   1.00
I745   I     0.03608   0.45857   0.95043   0.00000  Uiso   1.00
I746   I     0.29725   0.54143   0.54957   0.00000  Uiso   1.00
I747   I     0.05016   0.40418   0.80163   0.00000  Uiso   1.00
I748   I     0.28317   0.59582   0.69837   0.00000  Uiso   1.00
I749   I     0.29244   0.39109   0.73124   0.00000  Uiso   1.00
I750   I     0.04089   0.60891   0.76876   0.00000  Uiso   1.00
I751   I     0.09889   0.39434   0.67447   0.00000  Uiso   1.00
I752   I     0.23444   0.60566   0.82553   0.00000  Uiso   1.00
I753   I     0.22984   0.39032   0.83036   0.00000  Uiso   1.00
I754   I     0.10349   0.60968   0.66964   0.00000  Uiso   1.00
C755   C     0.42096   0.50051   0.75341   0.00000  Uiso   1.00
C756   C     0.57904   0.49949   0.74659   0.00000  Uiso   1.00
C757   C     0.42647   0.49247   0.52244   0.00000  Uiso   1.00
C758   C     0.57353   0.50753   0.97756   0.00000  Uiso   1.00
C759   C     0.35555   0.45985   0.76294   0.00000  Uiso   1.00
C760   C     0.64445   0.54015   0.73706   0.00000  Uiso   1.00
C761   C     0.64712   0.45740   0.75136   0.00000  Uiso   1.00
C762   C     0.35288   0.54260   0.74864   0.00000  Uiso   1.00
C763   C     0.62394   0.49848   0.74307   0.00000  Uiso   1.00
C764   C     0.37606   0.50152   0.75693   0.00000  Uiso   1.00
C765   C     0.47480   0.35873   0.72038   0.00000  Uiso   1.00
C766   C     0.52520   0.64127   0.77962   0.00000  Uiso   1.00
C767   C     0.52475   0.35727   0.78008   0.00000  Uiso   1.00
C768   C     0.47525   0.64273   0.71992   0.00000  Uiso   1.00
C769   C     0.50111   0.50009   0.66468   0.00000  Uiso   1.00
C770   C     0.49888   0.49991   0.83532   0.00000  Uiso   1.00
C771   C     0.53533   0.49888   0.90778   0.00000  Uiso   1.00
C772   C     0.46467   0.50112   0.59222   0.00000  Uiso   1.00
C773   C     0.49789   0.49944   0.88360   0.00000  Uiso   1.00
C774   C     0.50211   0.50056   0.61640   0.00000  Uiso   1.00
C775   C     0.46043   0.50115   0.90533   0.00000  Uiso   1.00
C776   C     0.53957   0.49885   0.59467   0.00000  Uiso   1.00
C777   C     0.46079   0.49608   0.95223   0.00000  Uiso   1.00
C778   C     0.53921   0.50392   0.54777   0.00000  Uiso   1.00
C779   C     0.49921   0.49926   0.97654   0.00000  Uiso   1.00
C780   C     0.50079   0.50073   0.52346   0.00000  Uiso   1.00
C781   C     0.53619   0.50119   0.95397   0.00000  Uiso   1.00
C782   C     0.46381   0.49881   0.54603   0.00000  Uiso   1.00
C783   C     0.42477   0.48882   0.97621   0.00000  Uiso   1.00
C784   C     0.57523   0.51118   0.52379   0.00000  Uiso   1.00
Cu785  Cu    0.50000   0.54689   0.75000   0.00000  Uiso   1.00
Cu786  Cu    0.50000   0.45311   0.75000   0.00000  Uiso   1.00
H787   H     0.56382   0.49912   0.89031   0.00000  Uiso   1.00
H788   H     0.43618   0.50088   0.60969   0.00000  Uiso   1.00
H789   H     0.39868   0.48759   0.54037   0.00000  Uiso   1.00
H790   H     0.60132   0.51241   0.95963   0.00000  Uiso   1.00
N791   N     0.50000   0.61736   0.75000   0.00000  Uiso   1.00
N792   N     0.50000   0.38264   0.75000   0.00000  Uiso   1.00
O793   O     0.43988   0.53958   0.75000   0.00000  Uiso   1.00
O794   O     0.56012   0.46042   0.75001   0.00000  Uiso   1.00
O795   O     0.56012   0.53958   0.75001   0.00000  Uiso   1.00
O796   O     0.43988   0.46042   0.75000   0.00000  Uiso   1.00
O797   O     0.49999   0.53960   0.68513   0.00000  Uiso   1.00
O798   O     0.50001   0.46040   0.81487   0.00000  Uiso   1.00
O799   O     0.50001   0.53960   0.81487   0.00000  Uiso   1.00
O800   O     0.49999   0.46040   0.68513   0.00000  Uiso   1.00
I801   I     0.40798   0.52873   0.86846   0.00000  Uiso   1.00
I802   I     0.59201   0.47127   0.63154   0.00000  Uiso   1.00
I803   I     0.36941   0.45857   0.95043   0.00000  Uiso   1.00
I804   I     0.63059   0.54143   0.54957   0.00000  Uiso   1.00
I805   I     0.38349   0.40418   0.80163   0.00000  Uiso   1.00
I806   I     0.61651   0.59582   0.69837   0.00000  Uiso   1.00
I807   I     0.62577   0.39109   0.73124   0.00000  Uiso   1.00
I808   I     0.37423   0.60891   0.76876   0.00000  Uiso   1.00
I809   I     0.43223   0.39434   0.67447   0.00000  Uiso   1.00
I810   I     0.56777   0.60566   0.82553   0.00000  Uiso   1.00
I811   I     0.56317   0.39032   0.83036   0.00000  Uiso   1.00
I812   I     0.43683   0.60968   0.66964   0.00000  Uiso   1.00
C813   C     0.75429   0.50051   0.75341   0.00000  Uiso   1.00
C814   C     0.91237   0.49949   0.74659   0.00000  Uiso   1.00
C815   C     0.75981   0.49247   0.52244   0.00000  Uiso   1.00
C816   C     0.90686   0.50753   0.97756   0.00000  Uiso   1.00
C817   C     0.68889   0.45985   0.76294   0.00000  Uiso   1.00
C818   C     0.97778   0.54015   0.73706   0.00000  Uiso   1.00
C819   C     0.98045   0.45740   0.75136   0.00000  Uiso   1.00
C820   C     0.68621   0.54260   0.74864   0.00000  Uiso   1.00
C821   C     0.95727   0.49848   0.74307   0.00000  Uiso   1.00
C822   C     0.70939   0.50152   0.75693   0.00000  Uiso   1.00
C823   C     0.80814   0.35873   0.72038   0.00000  Uiso   1.00
C824   C     0.85853   0.64127   0.77962   0.00000  Uiso   1.00
C825   C     0.85808   0.35727   0.78008   0.00000  Uiso   1.00
C826   C     0.80858   0.64273   0.71992   0.00000  Uiso   1.00
C827   C     0.83445   0.50009   0.66468   0.00000  Uiso   1.00
C828   C     0.83222   0.49991   0.83532   0.00000  Uiso   1.00
C829   C     0.86866   0.49888   0.90778   0.00000  Uiso   1.00
C830   C     0.79800   0.50112   0.59222   0.00000  Uiso   1.00
C831   C     0.83123   0.49944   0.88360   0.00000  Uiso   1.00
C832   C     0.83544   0.50056   0.61640   0.00000  Uiso   1.00
C833   C     0.79376   0.50115   0.90533   0.00000  Uiso   1.00
C834   C     0.87290   0.49885   0.59467   0.00000  Uiso   1.00
C835   C     0.79412   0.49608   0.95223   0.00000  Uiso   1.00
C836   C     0.87254   0.50392   0.54777   0.00000  Uiso   1.00
C837   C     0.83254   0.49926   0.97654   0.00000  Uiso   1.00
C838   C     0.83412   0.50073   0.52346   0.00000  Uiso   1.00
C839   C     0.86953   0.50119   0.95397   0.00000  Uiso   1.00
C840   C     0.79714   0.49881   0.54603   0.00000  Uiso   1.00
C841   C     0.75811   0.48882   0.97621   0.00000  Uiso   1.00
C842   C     0.90856   0.51118   0.52379   0.00000  Uiso   1.00
Cu843  Cu    0.83333   0.54689   0.75000   0.00000  Uiso   1.00
Cu844  Cu    0.83333   0.45311   0.75000   0.00000  Uiso   1.00
H845   H     0.89715   0.49912   0.89031   0.00000  Uiso   1.00
H846   H     0.76951   0.50088   0.60969   0.00000  Uiso   1.00
H847   H     0.73201   0.48759   0.54037   0.00000  Uiso   1.00
H848   H     0.93466   0.51241   0.95963   0.00000  Uiso   1.00
N849   N     0.83333   0.61736   0.75000   0.00000  Uiso   1.00
N850   N     0.83333   0.38264   0.75000   0.00000  Uiso   1.00
O851   O     0.77321   0.53958   0.75000   0.00000  Uiso   1.00
O852   O     0.89345   0.46042   0.75001   0.00000  Uiso   1.00
O853   O     0.89345   0.53958   0.75001   0.00000  Uiso   1.00
O854   O     0.77321   0.46042   0.75000   0.00000  Uiso   1.00
O855   O     0.83332   0.53960   0.68513   0.00000  Uiso   1.00
O856   O     0.83334   0.46040   0.81487   0.00000  Uiso   1.00
O857   O     0.83334   0.53960   0.81487   0.00000  Uiso   1.00
O858   O     0.83332   0.46040   0.68513   0.00000  Uiso   1.00
I859   I     0.74132   0.52873   0.86846   0.00000  Uiso   1.00
I860   I     0.92535   0.47127   0.63154   0.00000  Uiso   1.00
I861   I     0.70274   0.45857   0.95043   0.00000  Uiso   1.00
I862   I     0.96392   0.54143   0.54957   0.00000  Uiso   1.00
I863   I     0.71683   0.40418   0.80163   0.00000  Uiso   1.00
I864   I     0.94984   0.59582   0.69837   0.00000  Uiso   1.00
I865   I     0.95911   0.39109   0.73124   0.00000  Uiso   1.00
I866   I     0.70756   0.60891   0.76876   0.00000  Uiso   1.00
I867   I     0.76556   0.39434   0.67447   0.00000  Uiso   1.00
I868   I     0.90111   0.60566   0.82553   0.00000  Uiso   1.00
I869   I     0.89650   0.39032   0.83036   0.00000  Uiso   1.00
I870   I     0.77016   0.60968   0.66964   0.00000  Uiso   1.00
C871   C     0.08763   0.83384   0.75341   0.00000  Uiso   1.00
C872   C     0.24571   0.83282   0.74659   0.00000  Uiso   1.00
C873   C     0.09314   0.82581   0.52244   0.00000  Uiso   1.00
C874   C     0.24019   0.84086   0.97756   0.00000  Uiso   1.00
C875   C     0.02222   0.79318   0.76294   0.00000  Uiso   1.00
C876   C     0.31111   0.87348   0.73706   0.00000  Uiso   1.00
C877   C     0.31379   0.79073   0.75136   0.00000  Uiso   1.00
C878   C     0.01955   0.87594   0.74864   0.00000  Uiso   1.00
C879   C     0.29061   0.83181   0.74307   0.00000  Uiso   1.00
C880   C     0.04273   0.83486   0.75693   0.00000  Uiso   1.00
C881   C     0.14147   0.69206   0.72038   0.00000  Uiso   1.00
C882   C     0.19186   0.97460   0.77962   0.00000  Uiso   1.00
C883   C     0.19142   0.69060   0.78008   0.00000  Uiso   1.00
C884   C     0.14192   0.97606   0.71992   0.00000  Uiso   1.00
C885   C     0.16778   0.83343   0.66468   0.00000  Uiso   1.00
C886   C     0.16555   0.83324   0.83532   0.00000  Uiso   1.00
C887   C     0.20200   0.83221   0.90778   0.00000  Uiso   1.00
C888   C     0.13134   0.83446   0.59222   0.00000  Uiso   1.00
C889   C     0.16456   0.83277   0.88360   0.00000  Uiso   1.00
C890   C     0.16877   0.83390   0.61640   0.00000  Uiso   1.00
C891   C     0.12710   0.83448   0.90533   0.00000  Uiso   1.00
C892   C     0.20624   0.83219   0.59467   0.00000  Uiso   1.00
C893   C     0.12746   0.82941   0.95223   0.00000  Uiso   1.00
C894   C     0.20588   0.83726   0.54777   0.00000  Uiso   1.00
C895   C     0.16588   0.83260   0.97654   0.00000  Uiso   1.00
C896   C     0.16746   0.83407   0.52346   0.00000  Uiso   1.00
C897   C     0.20286   0.83452   0.95397   0.00000  Uiso   1.00
C898   C     0.13047   0.83214   0.54603   0.00000  Uiso   1.00
C899   C     0.09144   0.82215   0.97621   0.00000  Uiso   1.00
C900   C     0.24189   0.84451   0.52379   0.00000  Uiso   1.00
Cu901  Cu    0.16667   0.88022   0.75000   0.00000  Uiso   1.00
Cu902  Cu    0.16667   0.78645   0.75000   0.00000  Uiso   1.00
H903   H     0.23049   0.83246   0.89031   0.00000  Uiso   1.00
H904   H     0.10285   0.83421   0.60969   0.00000  Uiso   1.00
H905   H     0.06534   0.82092   0.54037   0.00000  Uiso   1.00
H906   H     0.26799   0.84574   0.95963   0.00000  Uiso   1.00
N907   N     0.16667   0.95069   0.75000   0.00000  Uiso   1.00
N908   N     0.16667   0.71598   0.75000   0.00000  Uiso   1.00
O909   O     0.10655   0.87291   0.75000   0.00000  Uiso   1.00
O910   O     0.22679   0.79375   0.75001   0.00000  Uiso   1.00
O911   O     0.22679   0.87291   0.75001   0.00000  Uiso   1.00
O912   O     0.10655   0.79375   0.75000   0.00000  Uiso   1.00
O913   O     0.16666   0.87293   0.68513   0.00000  Uiso   1.00
O914   O     0.16668   0.79373   0.81487   0.00000  Uiso   1.00
O915   O     0.16668   0.87293   0.81487   0.00000  Uiso   1.00
O916   O     0.16666   0.79373   0.68513   0.00000  Uiso   1.00
I917   I     0.07465   0.86206   0.86846   0.00000  Uiso   1.00
I918   I     0.25868   0.80461   0.63154   0.00000  Uiso   1.00
I919   I     0.03608   0.79190   0.95043   0.00000  Uiso   1.00
I920   I     0.29725   0.87476   0.54957   0.00000  Uiso   1.00
I921   I     0.05016   0.73751   0.80163   0.00000  Uiso   1.00
I922   I     0.28317   0.92915   0.69837   0.00000  Uiso   1.00
I923   I     0.29244   0.72443   0.73124   0.00000  Uiso   1.00
I924   I     0.04089   0.94224   0.76876   0.00000  Uiso   1.00
I925   I     0.09889   0.72768   0.67447   0.00000  Uiso   1.00
I926   I     0.23444   0.93899   0.82553   0.00000  Uiso   1.00
I927   I     0.22984   0.72365   0.83036   0.00000  Uiso   1.00
I928   I     0.10349   0.94302   0.66964   0.00000  Uiso   1.00
C929   C     0.42096   0.83384   0.75341   0.00000  Uiso   1.00
C930   C     0.57904   0.83282   0.74659   0.00000  Uiso   1.00
C931   C     0.42647   0.82581   0.52244   0.00000  Uiso   1.00
C932   C     0.57353   0.84086   0.97756   0.00000  Uiso   1.00
C933   C     0.35555   0.79318   0.76294   0.00000  Uiso   1.00
C934   C     0.64445   0.87348   0.73706   0.00000  Uiso   1.00
C935   C     0.64712   0.79073   0.75136   0.00000  Uiso   1.00
C936   C     0.35288   0.87594   0.74864   0.00000  Uiso   1.00
C937   C     0.62394   0.83181   0.74307   0.00000  Uiso   1.00
C938   C     0.37606   0.83486   0.75693   0.00000  Uiso   1.00
C939   C     0.47480   0.69206   0.72038   0.00000  Uiso   1.00
C940   C     0.52520   0.97460   0.77962   0.00000  Uiso   1.00
C941   C     0.52475   0.69060   0.78008   0.00000  Uiso   1.00
C942   C     0.47525   0.97606   0.71992   0.00000  Uiso   1.00
C943   C     0.50111   0.83343   0.66468   0.00000  Uiso   1.00
C944   C     0.49888   0.83324   0.83532   0.00000  Uiso   1.00
C945   C     0.53533   0.83221   0.90778   0.00000  Uiso   1.00
C946   C     0.46467   0.83446   0.59222   0.00000  Uiso   1.00
C947   C     0.49789   0.83277   0.88360   0.00000  Uiso   1.00
C948   C     0.50211   0.83390   0.61640   0.00000  Uiso   1.00
C949   C     0.46043   0.83448   0.90533   0.00000  Uiso   1.00
C950   C     0.53957   0.83219   0.59467   0.00000  Uiso   1.00
C951   C     0.46079   0.82941   0.95223   0.00000  Uiso   1.00
C952   C     0.53921   0.83726   0.54777   0.00000  Uiso   1.00
C953   C     0.49921   0.83260   0.97654   0.00000  Uiso   1.00
C954   C     0.50079   0.83407   0.52346   0.00000  Uiso   1.00
C955   C     0.53619   0.83452   0.95397   0.00000  Uiso   1.00
C956   C     0.46381   0.83214   0.54603   0.00000  Uiso   1.00
C957   C     0.42477   0.82215   0.97621   0.00000  Uiso   1.00
C958   C     0.57523   0.84451   0.52379   0.00000  Uiso   1.00
Cu959  Cu    0.50000   0.88022   0.75000   0.00000  Uiso   1.00
Cu960  Cu    0.50000   0.78645   0.75000   0.00000  Uiso   1.00
H961   H     0.56382   0.83246   0.89031   0.00000  Uiso   1.00
H962   H     0.43618   0.83421   0.60969   0.00000  Uiso   1.00
H963   H     0.39868   0.82092   0.54037   0.00000  Uiso   1.00
H964   H     0.60132   0.84574   0.95963   0.00000  Uiso   1.00
N965   N     0.50000   0.95069   0.75000   0.00000  Uiso   1.00
N966   N     0.50000   0.71598   0.75000   0.00000  Uiso   1.00
O967   O     0.43988   0.87291   0.75000   0.00000  Uiso   1.00
O968   O     0.56012   0.79375   0.75001   0.00000  Uiso   1.00
O969   O     0.56012   0.87291   0.75001   0.00000  Uiso   1.00
O970   O     0.43988   0.79375   0.75000   0.00000  Uiso   1.00
O971   O     0.49999   0.87293   0.68513   0.00000  Uiso   1.00
O972   O     0.50001   0.79373   0.81487   0.00000  Uiso   1.00
O973   O     0.50001   0.87293   0.81487   0.00000  Uiso   1.00
O974   O     0.49999   0.79373   0.68513   0.00000  Uiso   1.00
I975   I     0.40798   0.86206   0.86846   0.00000  Uiso   1.00
I976   I     0.59201   0.80461   0.63154   0.00000  Uiso   1.00
I977   I     0.36941   0.79190   0.95043   0.00000  Uiso   1.00
I978   I     0.63059   0.87476   0.54957   0.00000  Uiso   1.00
I979   I     0.38349   0.73751   0.80163   0.00000  Uiso   1.00
I980   I     0.61651   0.92915   0.69837   0.00000  Uiso   1.00
I981   I     0.62577   0.72443   0.73124   0.00000  Uiso   1.00
I982   I     0.37423   0.94224   0.76876   0.00000  Uiso   1.00
I983   I     0.43223   0.72768   0.67447   0.00000  Uiso   1.00
I984   I     0.56777   0.93899   0.82553   0.00000  Uiso   1.00
I985   I     0.56317   0.72365   0.83036   0.00000  Uiso   1.00
I986   I     0.43683   0.94302   0.66964   0.00000  Uiso   1.00
C987   C     0.75429   0.83384   0.75341   0.00000  Uiso   1.00
C988   C     0.91237   0.83282   0.74659   0.00000  Uiso   1.00
C989   C     0.75981   0.82581   0.52244   0.00000  Uiso   1.00
C990   C     0.90686   0.84086   0.97756   0.00000  Uiso   1.00
C991   C     0.68889   0.79318   0.76294   0.00000  Uiso   1.00
C992   C     0.97778   0.87348   0.73706   0.00000  Uiso   1.00
C993   C     0.98045   0.79073   0.75136   0.00000  Uiso   1.00
C994   C     0.68621   0.87594   0.74864   0.00000  Uiso   1.00
C995   C     0.95727   0.83181   0.74307   0.00000  Uiso   1.00
C996   C     0.70939   0.83486   0.75693   0.00000  Uiso   1.00
C997   C     0.80814   0.69206   0.72038   0.00000  Uiso   1.00
C998   C     0.85853   0.97460   0.77962   0.00000  Uiso   1.00
C999   C     0.85808   0.69060   0.78008   0.00000  Uiso   1.00
C1000  C     0.80858   0.97606   0.71992   0.00000  Uiso   1.00
C1001  C     0.83445   0.83343   0.66468   0.00000  Uiso   1.00
C1002  C     0.83222   0.83324   0.83532   0.00000  Uiso   1.00
C1003  C     0.86866   0.83221   0.90778   0.00000  Uiso   1.00
C1004  C     0.79800   0.83446   0.59222   0.00000  Uiso   1.00
C1005  C     0.83123   0.83277   0.88360   0.00000  Uiso   1.00
C1006  C     0.83544   0.83390   0.61640   0.00000  Uiso   1.00
C1007  C     0.79376   0.83448   0.90533   0.00000  Uiso   1.00
C1008  C     0.87290   0.83219   0.59467   0.00000  Uiso   1.00
C1009  C     0.79412   0.82941   0.95223   0.00000  Uiso   1.00
C1010  C     0.87254   0.83726   0.54777   0.00000  Uiso   1.00
C1011  C     0.83254   0.83260   0.97654   0.00000  Uiso   1.00
C1012  C     0.83412   0.83407   0.52346   0.00000  Uiso   1.00
C1013  C     0.86953   0.83452   0.95397   0.00000  Uiso   1.00
C1014  C     0.79714   0.83214   0.54603   0.00000  Uiso   1.00
C1015  C     0.75811   0.82215   0.97621   0.00000  Uiso   1.00
C1016  C     0.90856   0.84451   0.52379   0.00000  Uiso   1.00
Cu1017 Cu    0.83333   0.88022   0.75000   0.00000  Uiso   1.00
Cu1018 Cu    0.83333   0.78645   0.75000   0.00000  Uiso   1.00
H1019  H     0.89715   0.83246   0.89031   0.00000  Uiso   1.00
H1020  H     0.76951   0.83421   0.60969   0.00000  Uiso   1.00
H1021  H     0.73201   0.82092   0.54037   0.00000  Uiso   1.00
H1022  H     0.93466   0.84574   0.95963   0.00000  Uiso   1.00
N1023  N     0.83333   0.95069   0.75000   0.00000  Uiso   1.00
N1024  N     0.83333   0.71598   0.75000   0.00000  Uiso   1.00
O1025  O     0.77321   0.87291   0.75000   0.00000  Uiso   1.00
O1026  O     0.89345   0.79375   0.75001   0.00000  Uiso   1.00
O1027  O     0.89345   0.87291   0.75001   0.00000  Uiso   1.00
O1028  O     0.77321   0.79375   0.75000   0.00000  Uiso   1.00
O1029  O     0.83332   0.87293   0.68513   0.00000  Uiso   1.00
O1030  O     0.83334   0.79373   0.81487   0.00000  Uiso   1.00
O1031  O     0.83334   0.87293   0.81487   0.00000  Uiso   1.00
O1032  O     0.83332   0.79373   0.68513   0.00000  Uiso   1.00
I1033  I     0.74132   0.86206   0.86846   0.00000  Uiso   1.00
I1034  I     0.92535   0.80461   0.63154   0.00000  Uiso   1.00
I1035  I     0.70274   0.79190   0.95043   0.00000  Uiso   1.00
I1036  I     0.96392   0.87476   0.54957   0.00000  Uiso   1.00
I1037  I     0.71683   0.73751   0.80163   0.00000  Uiso   1.00
I1038  I     0.94984   0.92915   0.69837   0.00000  Uiso   1.00
I1039  I     0.95911   0.72443   0.73124   0.00000  Uiso   1.00
I1040  I     0.70756   0.94224   0.76876   0.00000  Uiso   1.00
I1041  I     0.76556   0.72768   0.67447   0.00000  Uiso   1.00
I1042  I     0.90111   0.93899   0.82553   0.00000  Uiso   1.00
I1043  I     0.89650   0.72365   0.83036   0.00000  Uiso   1.00
I1044  I     0.77016   0.94302   0.66964   0.00000  Uiso   1.00
loop_
_geom_bond_atom_site_label_1
_geom_bond_atom_site_label_2
_geom_bond_distance
_geom_bond_site_symmetry_2
_ccdc_geom_bond_type
C1     O39     1.305   .     A
C1     O42     1.312   .     A
C1     C10     1.469   .     S
C2     O41     1.312   .     A
C2     O40     1.305   .     A
C2     C9      1.469   .     S
C3     H35     1.084   .     S
C3     C28     1.394   .     A
C3     C551    1.392   1_554 S
C4     H36     1.084   .     S
C4     C27     1.394   .     A
C4     C552    1.392   .     S
C5     C10     1.406   .     A
C5     I51     2.147   .     S
C5     C123    1.391   1_455 S
C6     C9      1.406   .     A
C6     I52     2.147   .     S
C6     C66     1.391   .     S
C7     C9      1.413   .     A
C7     I53     2.138   .     S
C7     C63     1.391   .     S
C8     C10     1.413   .     A
C8     I54     2.138   .     S
C8     C122    1.391   1_455 S
C11    N38     1.381   .     A
C11    I55     2.155   .     S
C11    C362    1.431   1_545 S
C12    I56     2.155   .     S
C12    N37     1.381   .     A
C12    C187    1.431   .     S
C13    N38     1.382   .     A
C13    I57     2.157   .     S
C13    C360    1.431   1_545 S
C14    N37     1.382   .     A
C14    I58     2.157   .     S
C14    C185    1.431   .     S
C15    O43     1.304   .     A
C15    C20     1.452   .     S
C15    O46     1.304   .     A
C16    O45     1.304   .     A
C16    O44     1.304   .     A
C16    C19     1.452   .     S
C17    H33     1.086   .     S
C17    C19     1.389   .     A
C17    C27     1.389   .     A
C18    H34     1.086   .     S
C18    C20     1.389   .     A
C18    C28     1.389   .     A
C19    C21     1.409   .     A
C20    C22     1.409   .     A
C21    C23     1.415   .     A
C21    I47     2.132   .     S
C22    I48     2.132   .     S
C22    C24     1.415   .     A
C23    C29     1.421   .     A
C23    C25     1.424   .     A
C24    C26     1.424   .     A
C24    C30     1.421   .     A
C25    C27     1.409   .     A
C25    C548    1.409   .     S
C26    C28     1.409   .     A
C26    C547    1.409   1_554 S
C29    I49     2.134   .     S
C29    C525    1.392   .     S
C30    I50     2.134   .     S
C30    C526    1.392   1_554 S
Cu31   Cu32    2.720   .     S
Cu31   O45     1.959   .     S
Cu31   O41     1.963   .     S
Cu31   O43     1.962   .     S
Cu31   N37     2.044   .     S
Cu31   O39     1.971   .     S
Cu32   N38     2.044   .     S
Cu32   O40     1.971   .     S
Cu32   O44     1.962   .     S
Cu32   O42     1.963   .     S
Cu32   O46     1.959   .     S
C59    O97     1.305   .     A
C59    O100    1.312   .     A
C59    C68     1.469   .     S
C60    O99     1.312   .     A
C60    O98     1.305   .     A
C60    C67     1.469   .     S
C61    H93     1.084   .     S
C61    C86     1.394   .     A
C61    C609    1.392   1_554 S
C62    H94     1.084   .     S
C62    C85     1.394   .     A
C62    C610    1.392   .     S
C63    C68     1.406   .     A
C63    I109    2.147   .     S
C64    C67     1.406   .     A
C64    I110    2.147   .     S
C64    C124    1.391   .     S
C65    C67     1.413   .     A
C65    I111    2.138   .     S
C65    C121    1.391   .     S
C66    C68     1.413   .     A
C66    I112    2.138   .     S
C69    N96     1.381   .     A
C69    I113    2.155   .     S
C69    C420    1.431   1_545 S
C70    I114    2.155   .     S
C70    N95     1.381   .     A
C70    C245    1.431   .     S
C71    N96     1.382   .     A
C71    I115    2.157   .     S
C71    C418    1.431   1_545 S
C72    N95     1.382   .     A
C72    I116    2.157   .     S
C72    C243    1.431   .     S
C73    O101    1.304   .     A
C73    C78     1.452   .     S
C73    O104    1.304   .     A
C74    O103    1.304   .     A
C74    O102    1.304   .     A
C74    C77     1.452   .     S
C75    H91     1.086   .     S
C75    C77     1.389   .     A
C75    C85     1.389   .     A
C76    H92     1.086   .     S
C76    C78     1.389   .     A
C76    C86     1.389   .     A
C77    C79     1.409   .     A
C78    C80     1.409   .     A
C79    C81     1.415   .     A
C79    I105    2.132   .     S
C80    I106    2.132   .     S
C80    C82     1.415   .     A
C81    C87     1.421   .     A
C81    C83     1.424   .     A
C82    C84     1.424   .     A
C82    C88     1.421   .     A
C83    C85     1.409   .     A
C83    C606    1.409   .     S
C84    C86     1.409   .     A
C84    C605    1.409   1_554 S
C87    I107    2.134   .     S
C87    C583    1.392   .     S
C88    I108    2.134   .     S
C88    C584    1.392   1_554 S
Cu89   Cu90    2.720   .     S
Cu89   O103    1.959   .     S
Cu89   O99     1.963   .     S
Cu89   O101    1.962   .     S
Cu89   N95     2.044   .     S
Cu89   O97     1.971   .     S
Cu90   N96     2.044   .     S
Cu90   O98     1.971   .     S
Cu90   O102    1.962   .     S
Cu90   O100    1.963   .     S
Cu90   O104    1.959   .     S
C117   O155    1.305   .     A
C117   O158    1.312   .     A
C117   C126    1.469   .     S
C118   O157    1.312   .     A
C118   O156    1.305   .     A
C118   C125    1.469   .     S
C119   H151    1.084   .     S
C119   C144    1.394   .     A
C119   C667    1.392   1_554 S
C120   H152    1.084   .     S
C120   C143    1.394   .     A
C120   C668    1.392   .     S
C121   C126    1.406   .     A
C121   I167    2.147   .     S
C122   C125    1.406   .     A
C122   I168    2.147   .     S
C122   C8      1.391   1_655 S
C123   C125    1.413   .     A
C123   I169    2.138   .     S
C123   C5      1.391   1_655 S
C124   C126    1.413   .     A
C124   I170    2.138   .     S
C127   N154    1.381   .     A
C127   I171    2.155   .     S
C127   C478    1.431   1_545 S
C128   I172    2.155   .     S
C128   N153    1.381   .     A
C128   C303    1.431   .     S
C129   N154    1.382   .     A
C129   I173    2.157   .     S
C129   C476    1.431   1_545 S
C130   N153    1.382   .     A
C130   I174    2.157   .     S
C130   C301    1.431   .     S
C131   O159    1.304   .     A
C131   C136    1.452   .     S
C131   O162    1.304   .     A
C132   O161    1.304   .     A
C132   O160    1.304   .     A
C132   C135    1.452   .     S
C133   H149    1.086   .     S
C133   C135    1.389   .     A
C133   C143    1.389   .     A
C134   H150    1.086   .     S
C134   C136    1.389   .     A
C134   C144    1.389   .     A
C135   C137    1.409   .     A
C136   C138    1.409   .     A
C137   C139    1.415   .     A
C137   I163    2.132   .     S
C138   I164    2.132   .     S
C138   C140    1.415   .     A
C139   C145    1.421   .     A
C139   C141    1.424   .     A
C140   C142    1.424   .     A
C140   C146    1.421   .     A
C141   C143    1.409   .     A
C141   C664    1.409   .     S
C142   C144    1.409   .     A
C142   C663    1.409   1_554 S
C145   I165    2.134   .     S
C145   C641    1.392   .     S
C146   I166    2.134   .     S
C146   C642    1.392   1_554 S
Cu147  Cu148   2.720   .     S
Cu147  O161    1.959   .     S
Cu147  O157    1.963   .     S
Cu147  O159    1.962   .     S
Cu147  N153    2.044   .     S
Cu147  O155    1.971   .     S
Cu148  N154    2.044   .     S
Cu148  O156    1.971   .     S
Cu148  O160    1.962   .     S
Cu148  O158    1.963   .     S
Cu148  O162    1.959   .     S
C175   O213    1.305   .     A
C175   O216    1.312   .     A
C175   C184    1.469   .     S
C176   O215    1.312   .     A
C176   O214    1.305   .     A
C176   C183    1.469   .     S
C177   H209    1.084   .     S
C177   C202    1.394   .     A
C177   C725    1.392   1_554 S
C178   H210    1.084   .     S
C178   C201    1.394   .     A
C178   C726    1.392   .     S
C179   C184    1.406   .     A
C179   I225    2.147   .     S
C179   C297    1.391   1_455 S
C180   C183    1.406   .     A
C180   I226    2.147   .     S
C180   C240    1.391   .     S
C181   C183    1.413   .     A
C181   I227    2.138   .     S
C181   C237    1.391   .     S
C182   C184    1.413   .     A
C182   I228    2.138   .     S
C182   C296    1.391   1_455 S
C185   N212    1.381   .     A
C185   I229    2.155   .     S
C186   I230    2.155   .     S
C186   N211    1.381   .     A
C186   C361    1.431   .     S
C187   N212    1.382   .     A
C187   I231    2.157   .     S
C188   N211    1.382   .     A
C188   I232    2.157   .     S
C188   C359    1.431   .     S
C189   O217    1.304   .     A
C189   C194    1.452   .     S
C189   O220    1.304   .     A
C190   O219    1.304   .     A
C190   O218    1.304   .     A
C190   C193    1.452   .     S
C191   H207    1.086   .     S
C191   C193    1.389   .     A
C191   C201    1.389   .     A
C192   H208    1.086   .     S
C192   C194    1.389   .     A
C192   C202    1.389   .     A
C193   C195    1.409   .     A
C194   C196    1.409   .     A
C195   C197    1.415   .     A
C195   I221    2.132   .     S
C196   I222    2.132   .     S
C196   C198    1.415   .     A
C197   C203    1.421   .     A
C197   C199    1.424   .     A
C198   C200    1.424   .     A
C198   C204    1.421   .     A
C199   C201    1.409   .     A
C199   C722    1.409   .     S
C200   C202    1.409   .     A
C200   C721    1.409   1_554 S
C203   I223    2.134   .     S
C203   C699    1.392   .     S
C204   I224    2.134   .     S
C204   C700    1.392   1_554 S
Cu205  Cu206   2.720   .     S
Cu205  O219    1.959   .     S
Cu205  O215    1.963   .     S
Cu205  O217    1.962   .     S
Cu205  N211    2.044   .     S
Cu205  O213    1.971   .     S
Cu206  N212    2.044   .     S
Cu206  O214    1.971   .     S
Cu206  O218    1.962   .     S
Cu206  O216    1.963   .     S
Cu206  O220    1.959   .     S
C233   O271    1.305   .     A
C233   O274    1.312   .     A
C233   C242    1.469   .     S
C234   O273    1.312   .     A
C234   O272    1.305   .     A
C234   C241    1.469   .     S
C235   H267    1.084   .     S
C235   C260    1.394   .     A
C235   C783    1.392   1_554 S
C236   H268    1.084   .     S
C236   C259    1.394   .     A
C236   C784    1.392   .     S
C237   C242    1.406   .     A
C237   I283    2.147   .     S
C238   C241    1.406   .     A
C238   I284    2.147   .     S
C238   C298    1.391   .     S
C239   C241    1.413   .     A
C239   I285    2.138   .     S
C239   C295    1.391   .     S
C240   C242    1.413   .     A
C240   I286    2.138   .     S
C243   N270    1.381   .     A
C243   I287    2.155   .     S
C244   I288    2.155   .     S
C244   N269    1.381   .     A
C244   C419    1.431   .     S
C245   N270    1.382   .     A
C245   I289    2.157   .     S
C246   N269    1.382   .     A
C246   I290    2.157   .     S
C246   C417    1.431   .     S
C247   O275    1.304   .     A
C247   C252    1.452   .     S
C247   O278    1.304   .     A
C248   O277    1.304   .     A
C248   O276    1.304   .     A
C248   C251    1.452   .     S
C249   H265    1.086   .     S
C249   C251    1.389   .     A
C249   C259    1.389   .     A
C250   H266    1.086   .     S
C250   C252    1.389   .     A
C250   C260    1.389   .     A
C251   C253    1.409   .     A
C252   C254    1.409   .     A
C253   C255    1.415   .     A
C253   I279    2.132   .     S
C254   I280    2.132   .     S
C254   C256    1.415   .     A
C255   C261    1.421   .     A
C255   C257    1.424   .     A
C256   C258    1.424   .     A
C256   C262    1.421   .     A
C257   C259    1.409   .     A
C257   C780    1.409   .     S
C258   C260    1.409   .     A
C258   C779    1.409   1_554 S
C261   I281    2.134   .     S
C261   C757    1.392   .     S
C262   I282    2.134   .     S
C262   C758    1.392   1_554 S
Cu263  Cu264   2.720   .     S
Cu263  O277    1.959   .     S
Cu263  O273    1.963   .     S
Cu263  O275    1.962   .     S
Cu263  N269    2.044   .     S
Cu263  O271    1.971   .     S
Cu264  N270    2.044   .     S
Cu264  O272    1.971   .     S
Cu264  O276    1.962   .     S
Cu264  O274    1.963   .     S
Cu264  O278    1.959   .     S
C291   O329    1.305   .     A
C291   O332    1.312   .     A
C291   C300    1.469   .     S
C292   O331    1.312   .     A
C292   O330    1.305   .     A
C292   C299    1.469   .     S
C293   H325    1.084   .     S
C293   C318    1.394   .     A
C293   C841    1.392   1_554 S
C294   H326    1.084   .     S
C294   C317    1.394   .     A
C294   C842    1.392   .     S
C295   C300    1.406   .     A
C295   I341    2.147   .     S
C296   C299    1.406   .     A
C296   I342    2.147   .     S
C296   C182    1.391   1_655 S
C297   C299    1.413   .     A
C297   I343    2.138   .     S
C297   C179    1.391   1_655 S
C298   C300    1.413   .     A
C298   I344    2.138   .     S
C301   N328    1.381   .     A
C301   I345    2.155   .     S
C302   I346    2.155   .     S
C302   N327    1.381   .     A
C302   C477    1.431   .     S
C303   N328    1.382   .     A
C303   I347    2.157   .     S
C304   N327    1.382   .     A
C304   I348    2.157   .     S
C304   C475    1.431   .     S
C305   O333    1.304   .     A
C305   C310    1.452   .     S
C305   O336    1.304   .     A
C306   O335    1.304   .     A
C306   O334    1.304   .     A
C306   C309    1.452   .     S
C307   H323    1.086   .     S
C307   C309    1.389   .     A
C307   C317    1.389   .     A
C308   H324    1.086   .     S
C308   C310    1.389   .     A
C308   C318    1.389   .     A
C309   C311    1.409   .     A
C310   C312    1.409   .     A
C311   C313    1.415   .     A
C311   I337    2.132   .     S
C312   I338    2.132   .     S
C312   C314    1.415   .     A
C313   C319    1.421   .     A
C313   C315    1.424   .     A
C314   C316    1.424   .     A
C314   C320    1.421   .     A
C315   C317    1.409   .     A
C315   C838    1.409   .     S
C316   C318    1.409   .     A
C316   C837    1.409   1_554 S
C319   I339    2.134   .     S
C319   C815    1.392   .     S
C320   I340    2.134   .     S
C320   C816    1.392   1_554 S
Cu321  Cu322   2.720   .     S
Cu321  O335    1.959   .     S
Cu321  O331    1.963   .     S
Cu321  O333    1.962   .     S
Cu321  N327    2.044   .     S
Cu321  O329    1.971   .     S
Cu322  N328    2.044   .     S
Cu322  O330    1.971   .     S
Cu322  O334    1.962   .     S
Cu322  O332    1.963   .     S
Cu322  O336    1.959   .     S
C349   O387    1.305   .     A
C349   O390    1.312   .     A
C349   C358    1.469   .     S
C350   O389    1.312   .     A
C350   O388    1.305   .     A
C350   C357    1.469   .     S
C351   H383    1.084   .     S
C351   C376    1.394   .     A
C351   C899    1.392   1_554 S
C352   H384    1.084   .     S
C352   C375    1.394   .     A
C352   C900    1.392   .     S
C353   C358    1.406   .     A
C353   I399    2.147   .     S
C353   C471    1.391   1_455 S
C354   C357    1.406   .     A
C354   I400    2.147   .     S
C354   C414    1.391   .     S
C355   C357    1.413   .     A
C355   I401    2.138   .     S
C355   C411    1.391   .     S
C356   C358    1.413   .     A
C356   I402    2.138   .     S
C356   C470    1.391   1_455 S
C359   N386    1.381   .     A
C359   I403    2.155   .     S
C360   I404    2.155   .     S
C360   N385    1.381   .     A
C360   C13     1.431   1_565 S
C361   N386    1.382   .     A
C361   I405    2.157   .     S
C362   N385    1.382   .     A
C362   I406    2.157   .     S
C362   C11     1.431   1_565 S
C363   O391    1.304   .     A
C363   C368    1.452   .     S
C363   O394    1.304   .     A
C364   O393    1.304   .     A
C364   O392    1.304   .     A
C364   C367    1.452   .     S
C365   H381    1.086   .     S
C365   C367    1.389   .     A
C365   C375    1.389   .     A
C366   H382    1.086   .     S
C366   C368    1.389   .     A
C366   C376    1.389   .     A
C367   C369    1.409   .     A
C368   C370    1.409   .     A
C369   C371    1.415   .     A
C369   I395    2.132   .     S
C370   I396    2.132   .     S
C370   C372    1.415   .     A
C371   C377    1.421   .     A
C371   C373    1.424   .     A
C372   C374    1.424   .     A
C372   C378    1.421   .     A
C373   C375    1.409   .     A
C373   C896    1.409   .     S
C374   C376    1.409   .     A
C374   C895    1.409   1_554 S
C377   I397    2.134   .     S
C377   C873    1.392   .     S
C378   I398    2.134   .     S
C378   C874    1.392   1_554 S
Cu379  Cu380   2.720   .     S
Cu379  O393    1.959   .     S
Cu379  O389    1.963   .     S
Cu379  O391    1.962   .     S
Cu379  N385    2.044   .     S
Cu379  O387    1.971   .     S
Cu380  N386    2.044   .     S
Cu380  O388    1.971   .     S
Cu380  O392    1.962   .     S
Cu380  O390    1.963   .     S
Cu380  O394    1.959   .     S
C407   O445    1.305   .     A
C407   O448    1.312   .     A
C407   C416    1.469   .     S
C408   O447    1.312   .     A
C408   O446    1.305   .     A
C408   C415    1.469   .     S
C409   H441    1.084   .     S
C409   C434    1.394   .     A
C409   C957    1.392   1_554 S
C410   H442    1.084   .     S
C410   C433    1.394   .     A
C410   C958    1.392   .     S
C411   C416    1.406   .     A
C411   I457    2.147   .     S
C412   C415    1.406   .     A
C412   I458    2.147   .     S
C412   C472    1.391   .     S
C413   C415    1.413   .     A
C413   I459    2.138   .     S
C413   C469    1.391   .     S
C414   C416    1.413   .     A
C414   I460    2.138   .     S
C417   N444    1.381   .     A
C417   I461    2.155   .     S
C418   I462    2.155   .     S
C418   N443    1.381   .     A
C418   C71     1.431   1_565 S
C419   N444    1.382   .     A
C419   I463    2.157   .     S
C420   N443    1.382   .     A
C420   I464    2.157   .     S
C420   C69     1.431   1_565 S
C421   O449    1.304   .     A
C421   C426    1.452   .     S
C421   O452    1.304   .     A
C422   O451    1.304   .     A
C422   O450    1.304   .     A
C422   C425    1.452   .     S
C423   H439    1.086   .     S
C423   C425    1.389   .     A
C423   C433    1.389   .     A
C424   H440    1.086   .     S
C424   C426    1.389   .     A
C424   C434    1.389   .     A
C425   C427    1.409   .     A
C426   C428    1.409   .     A
C427   C429    1.415   .     A
C427   I453    2.132   .     S
C428   I454    2.132   .     S
C428   C430    1.415   .     A
C429   C435    1.421   .     A
C429   C431    1.424   .     A
C430   C432    1.424   .     A
C430   C436    1.421   .     A
C431   C433    1.409   .     A
C431   C954    1.409   .     S
C432   C434    1.409   .     A
C432   C953    1.409   1_554 S
C435   I455    2.134   .     S
C435   C931    1.392   .     S
C436   I456    2.134   .     S
C436   C932    1.392   1_554 S
Cu437  Cu438   2.720   .     S
Cu437  O451    1.959   .     S
Cu437  O447    1.963   .     S
Cu437  O449    1.962   .     S
Cu437  N443    2.044   .     S
Cu437  O445    1.971   .     S
Cu438  N444    2.044   .     S
Cu438  O446    1.971   .     S
Cu438  O450    1.962   .     S
Cu438  O448    1.963   .     S
Cu438  O452    1.959   .     S
C465   O503    1.305   .     A
C465   O506    1.312   .     A
C465   C474    1.469   .     S
C466   O505    1.312   .     A
C466   O504    1.305   .     A
C466   C473    1.469   .     S
C467   H499    1.084   .     S
C467   C492    1.394   .     A
C467   C1015   1.392   1_554 S
C468   H500    1.084   .     S
C468   C491    1.394   .     A
C468   C1016   1.392   .     S
C469   C474    1.406   .     A
C469   I515    2.147   .     S
C470   C473    1.406   .     A
C470   I516    2.147   .     S
C470   C356    1.391   1_655 S
C471   C473    1.413   .     A
C471   I517    2.138   .     S
C471   C353    1.391   1_655 S
C472   C474    1.413   .     A
C472   I518    2.138   .     S
C475   N502    1.381   .     A
C475   I519    2.155   .     S
C476   I520    2.155   .     S
C476   N501    1.381   .     A
C476   C129    1.431   1_565 S
C477   N502    1.382   .     A
C477   I521    2.157   .     S
C478   N501    1.382   .     A
C478   I522    2.157   .     S
C478   C127    1.431   1_565 S
C479   O507    1.304   .     A
C479   C484    1.452   .     S
C479   O510    1.304   .     A
C480   O509    1.304   .     A
C480   O508    1.304   .     A
C480   C483    1.452   .     S
C481   H497    1.086   .     S
C481   C483    1.389   .     A
C481   C491    1.389   .     A
C482   H498    1.086   .     S
C482   C484    1.389   .     A
C482   C492    1.389   .     A
C483   C485    1.409   .     A
C484   C486    1.409   .     A
C485   C487    1.415   .     A
C485   I511    2.132   .     S
C486   I512    2.132   .     S
C486   C488    1.415   .     A
C487   C493    1.421   .     A
C487   C489    1.424   .     A
C488   C490    1.424   .     A
C488   C494    1.421   .     A
C489   C491    1.409   .     A
C489   C1012   1.409   .     S
C490   C492    1.409   .     A
C490   C1011   1.409   1_554 S
C493   I513    2.134   .     S
C493   C989    1.392   .     S
C494   I514    2.134   .     S
C494   C990    1.392   1_554 S
Cu495  Cu496   2.720   .     S
Cu495  O509    1.959   .     S
Cu495  O505    1.963   .     S
Cu495  O507    1.962   .     S
Cu495  N501    2.044   .     S
Cu495  O503    1.971   .     S
Cu496  N502    2.044   .     S
Cu496  O504    1.971   .     S
Cu496  O508    1.962   .     S
Cu496  O506    1.963   .     S
Cu496  O510    1.959   .     S
C523   O561    1.305   .     A
C523   O564    1.312   .     A
C523   C532    1.469   .     S
C524   O563    1.312   .     A
C524   O562    1.305   .     A
C524   C531    1.469   .     S
C525   H557    1.084   .     S
C525   C550    1.394   .     A
C526   H558    1.084   .     S
C526   C549    1.394   .     A
C526   C30     1.392   1_556 S
C527   C532    1.406   .     A
C527   I573    2.147   .     S
C527   C645    1.391   1_455 S
C528   C531    1.406   .     A
C528   I574    2.147   .     S
C528   C588    1.391   .     S
C529   C531    1.413   .     A
C529   I575    2.138   .     S
C529   C585    1.391   .     S
C530   C532    1.413   .     A
C530   I576    2.138   .     S
C530   C644    1.391   1_455 S
C533   N560    1.381   .     A
C533   I577    2.155   .     S
C533   C884    1.431   1_545 S
C534   I578    2.155   .     S
C534   N559    1.381   .     A
C534   C709    1.431   .     S
C535   N560    1.382   .     A
C535   I579    2.157   .     S
C535   C882    1.431   1_545 S
C536   N559    1.382   .     A
C536   I580    2.157   .     S
C536   C707    1.431   .     S
C537   O565    1.304   .     A
C537   C542    1.452   .     S
C537   O568    1.304   .     A
C538   O567    1.304   .     A
C538   O566    1.304   .     A
C538   C541    1.452   .     S
C539   H555    1.086   .     S
C539   C541    1.389   .     A
C539   C549    1.389   .     A
C540   H556    1.086   .     S
C540   C542    1.389   .     A
C540   C550    1.389   .     A
C541   C543    1.409   .     A
C542   C544    1.409   .     A
C543   C545    1.415   .     A
C543   I569    2.132   .     S
C544   I570    2.132   .     S
C544   C546    1.415   .     A
C545   C551    1.421   .     A
C545   C547    1.424   .     A
C546   C548    1.424   .     A
C546   C552    1.421   .     A
C547   C549    1.409   .     A
C547   C26     1.409   1_556 S
C548   C550    1.409   .     A
C551   I571    2.134   .     S
C551   C3      1.392   1_556 S
C552   I572    2.134   .     S
Cu553  Cu554   2.720   .     S
Cu553  O567    1.959   .     S
Cu553  O563    1.963   .     S
Cu553  O565    1.962   .     S
Cu553  N559    2.044   .     S
Cu553  O561    1.971   .     S
Cu554  N560    2.044   .     S
Cu554  O562    1.971   .     S
Cu554  O566    1.962   .     S
Cu554  O564    1.963   .     S
Cu554  O568    1.959   .     S
C581   O619    1.305   .     A
C581   O622    1.312   .     A
C581   C590    1.469   .     S
C582   O621    1.312   .     A
C582   O620    1.305   .     A
C582   C589    1.469   .     S
C583   H615    1.084   .     S
C583   C608    1.394   .     A
C584   H616    1.084   .     S
C584   C607    1.394   .     A
C584   C88     1.392   1_556 S
C585   C590    1.406   .     A
C585   I631    2.147   .     S
C586   C589    1.406   .     A
C586   I632    2.147   .     S
C586   C646    1.391   .     S
C587   C589    1.413   .     A
C587   I633    2.138   .     S
C587   C643    1.391   .     S
C588   C590    1.413   .     A
C588   I634    2.138   .     S
C591   N618    1.381   .     A
C591   I635    2.155   .     S
C591   C942    1.431   1_545 S
C592   I636    2.155   .     S
C592   N617    1.381   .     A
C592   C767    1.431   .     S
C593   N618    1.382   .     A
C593   I637    2.157   .     S
C593   C940    1.431   1_545 S
C594   N617    1.382   .     A
C594   I638    2.157   .     S
C594   C765    1.431   .     S
C595   O623    1.304   .     A
C595   C600    1.452   .     S
C595   O626    1.304   .     A
C596   O625    1.304   .     A
C596   O624    1.304   .     A
C596   C599    1.452   .     S
C597   H613    1.086   .     S
C597   C599    1.389   .     A
C597   C607    1.389   .     A
C598   H614    1.086   .     S
C598   C600    1.389   .     A
C598   C608    1.389   .     A
C599   C601    1.409   .     A
C600   C602    1.409   .     A
C601   C603    1.415   .     A
C601   I627    2.132   .     S
C602   I628    2.132   .     S
C602   C604    1.415   .     A
C603   C609    1.421   .     A
C603   C605    1.424   .     A
C604   C606    1.424   .     A
C604   C610    1.421   .     A
C605   C607    1.409   .     A
C605   C84     1.409   1_556 S
C606   C608    1.409   .     A
C609   I629    2.134   .     S
C609   C61     1.392   1_556 S
C610   I630    2.134   .     S
Cu611  Cu612   2.720   .     S
Cu611  O625    1.959   .     S
Cu611  O621    1.963   .     S
Cu611  O623    1.962   .     S
Cu611  N617    2.044   .     S
Cu611  O619    1.971   .     S
Cu612  N618    2.044   .     S
Cu612  O620    1.971   .     S
Cu612  O624    1.962   .     S
Cu612  O622    1.963   .     S
Cu612  O626    1.959   .     S
C639   O677    1.305   .     A
C639   O680    1.312   .     A
C639   C648    1.469   .     S
C640   O679    1.312   .     A
C640   O678    1.305   .     A
C640   C647    1.469   .     S
C641   H673    1.084   .     S
C641   C666    1.394   .     A
C642   H674    1.084   .     S
C642   C665    1.394   .     A
C642   C146    1.392   1_556 S
C643   C648    1.406   .     A
C643   I689    2.147   .     S
C644   C647    1.406   .     A
C644   I690    2.147   .     S
C644   C530    1.391   1_655 S
C645   C647    1.413   .     A
C645   I691    2.138   .     S
C645   C527    1.391   1_655 S
C646   C648    1.413   .     A
C646   I692    2.138   .     S
C649   N676    1.381   .     A
C649   I693    2.155   .     S
C649   C1000   1.431   1_545 S
C650   I694    2.155   .     S
C650   N675    1.381   .     A
C650   C825    1.431   .     S
C651   N676    1.382   .     A
C651   I695    2.157   .     S
C651   C998    1.431   1_545 S
C652   N675    1.382   .     A
C652   I696    2.157   .     S
C652   C823    1.431   .     S
C653   O681    1.304   .     A
C653   C658    1.452   .     S
C653   O684    1.304   .     A
C654   O683    1.304   .     A
C654   O682    1.304   .     A
C654   C657    1.452   .     S
C655   H671    1.086   .     S
C655   C657    1.389   .     A
C655   C665    1.389   .     A
C656   H672    1.086   .     S
C656   C658    1.389   .     A
C656   C666    1.389   .     A
C657   C659    1.409   .     A
C658   C660    1.409   .     A
C659   C661    1.415   .     A
C659   I685    2.132   .     S
C660   I686    2.132   .     S
C660   C662    1.415   .     A
C661   C667    1.421   .     A
C661   C663    1.424   .     A
C662   C664    1.424   .     A
C662   C668    1.421   .     A
C663   C665    1.409   .     A
C663   C142    1.409   1_556 S
C664   C666    1.409   .     A
C667   I687    2.134   .     S
C667   C119    1.392   1_556 S
C668   I688    2.134   .     S
Cu669  Cu670   2.720   .     S
Cu669  O683    1.959   .     S
Cu669  O679    1.963   .     S
Cu669  O681    1.962   .     S
Cu669  N675    2.044   .     S
Cu669  O677    1.971   .     S
Cu670  N676    2.044   .     S
Cu670  O678    1.971   .     S
Cu670  O682    1.962   .     S
Cu670  O680    1.963   .     S
Cu670  O684    1.959   .     S
C697   O735    1.305   .     A
C697   O738    1.312   .     A
C697   C706    1.469   .     S
C698   O737    1.312   .     A
C698   O736    1.305   .     A
C698   C705    1.469   .     S
C699   H731    1.084   .     S
C699   C724    1.394   .     A
C700   H732    1.084   .     S
C700   C723    1.394   .     A
C700   C204    1.392   1_556 S
C701   C706    1.406   .     A
C701   I747    2.147   .     S
C701   C819    1.391   1_455 S
C702   C705    1.406   .     A
C702   I748    2.147   .     S
C702   C762    1.391   .     S
C703   C705    1.413   .     A
C703   I749    2.138   .     S
C703   C759    1.391   .     S
C704   C706    1.413   .     A
C704   I750    2.138   .     S
C704   C818    1.391   1_455 S
C707   N734    1.381   .     A
C707   I751    2.155   .     S
C708   I752    2.155   .     S
C708   N733    1.381   .     A
C708   C883    1.431   .     S
C709   N734    1.382   .     A
C709   I753    2.157   .     S
C710   N733    1.382   .     A
C710   I754    2.157   .     S
C710   C881    1.431   .     S
C711   O739    1.304   .     A
C711   C716    1.452   .     S
C711   O742    1.304   .     A
C712   O741    1.304   .     A
C712   O740    1.304   .     A
C712   C715    1.452   .     S
C713   H729    1.086   .     S
C713   C715    1.389   .     A
C713   C723    1.389   .     A
C714   H730    1.086   .     S
C714   C716    1.389   .     A
C714   C724    1.389   .     A
C715   C717    1.409   .     A
C716   C718    1.409   .     A
C717   C719    1.415   .     A
C717   I743    2.132   .     S
C718   I744    2.132   .     S
C718   C720    1.415   .     A
C719   C725    1.421   .     A
C719   C721    1.424   .     A
C720   C722    1.424   .     A
C720   C726    1.421   .     A
C721   C723    1.409   .     A
C721   C200    1.409   1_556 S
C722   C724    1.409   .     A
C725   I745    2.134   .     S
C725   C177    1.392   1_556 S
C726   I746    2.134   .     S
Cu727  Cu728   2.720   .     S
Cu727  O741    1.959   .     S
Cu727  O737    1.963   .     S
Cu727  O739    1.962   .     S
Cu727  N733    2.044   .     S
Cu727  O735    1.971   .     S
Cu728  N734    2.044   .     S
Cu728  O736    1.971   .     S
Cu728  O740    1.962   .     S
Cu728  O738    1.963   .     S
Cu728  O742    1.959   .     S
C755   O793    1.305   .     A
C755   O796    1.312   .     A
C755   C764    1.469   .     S
C756   O795    1.312   .     A
C756   O794    1.305   .     A
C756   C763    1.469   .     S
C757   H789    1.084   .     S
C757   C782    1.394   .     A
C758   H790    1.084   .     S
C758   C781    1.394   .     A
C758   C262    1.392   1_556 S
C759   C764    1.406   .     A
C759   I805    2.147   .     S
C760   C763    1.406   .     A
C760   I806    2.147   .     S
C760   C820    1.391   .     S
C761   C763    1.413   .     A
C761   I807    2.138   .     S
C761   C817    1.391   .     S
C762   C764    1.413   .     A
C762   I808    2.138   .     S
C765   N792    1.381   .     A
C765   I809    2.155   .     S
C766   I810    2.155   .     S
C766   N791    1.381   .     A
C766   C941    1.431   .     S
C767   N792    1.382   .     A
C767   I811    2.157   .     S
C768   N791    1.382   .     A
C768   I812    2.157   .     S
C768   C939    1.431   .     S
C769   O797    1.304   .     A
C769   C774    1.452   .     S
C769   O800    1.304   .     A
C770   O799    1.304   .     A
C770   O798    1.304   .     A
C770   C773    1.452   .     S
C771   H787    1.086   .     S
C771   C773    1.389   .     A
C771   C781    1.389   .     A
C772   H788    1.086   .     S
C772   C774    1.389   .     A
C772   C782    1.389   .     A
C773   C775    1.409   .     A
C774   C776    1.409   .     A
C775   C777    1.415   .     A
C775   I801    2.132   .     S
C776   I802    2.132   .     S
C776   C778    1.415   .     A
C777   C783    1.421   .     A
C777   C779    1.424   .     A
C778   C780    1.424   .     A
C778   C784    1.421   .     A
C779   C781    1.409   .     A
C779   C258    1.409   1_556 S
C780   C782    1.409   .     A
C783   I803    2.134   .     S
C783   C235    1.392   1_556 S
C784   I804    2.134   .     S
Cu785  Cu786   2.720   .     S
Cu785  O799    1.959   .     S
Cu785  O795    1.963   .     S
Cu785  O797    1.962   .     S
Cu785  N791    2.044   .     S
Cu785  O793    1.971   .     S
Cu786  N792    2.044   .     S
Cu786  O794    1.971   .     S
Cu786  O798    1.962   .     S
Cu786  O796    1.963   .     S
Cu786  O800    1.959   .     S
C813   O851    1.305   .     A
C813   O854    1.312   .     A
C813   C822    1.469   .     S
C814   O853    1.312   .     A
C814   O852    1.305   .     A
C814   C821    1.469   .     S
C815   H847    1.084   .     S
C815   C840    1.394   .     A
C816   H848    1.084   .     S
C816   C839    1.394   .     A
C816   C320    1.392   1_556 S
C817   C822    1.406   .     A
C817   I863    2.147   .     S
C818   C821    1.406   .     A
C818   I864    2.147   .     S
C818   C704    1.391   1_655 S
C819   C821    1.413   .     A
C819   I865    2.138   .     S
C819   C701    1.391   1_655 S
C820   C822    1.413   .     A
C820   I866    2.138   .     S
C823   N850    1.381   .     A
C823   I867    2.155   .     S
C824   I868    2.155   .     S
C824   N849    1.381   .     A
C824   C999    1.431   .     S
C825   N850    1.382   .     A
C825   I869    2.157   .     S
C826   N849    1.382   .     A
C826   I870    2.157   .     S
C826   C997    1.431   .     S
C827   O855    1.304   .     A
C827   C832    1.452   .     S
C827   O858    1.304   .     A
C828   O857    1.304   .     A
C828   O856    1.304   .     A
C828   C831    1.452   .     S
C829   H845    1.086   .     S
C829   C831    1.389   .     A
C829   C839    1.389   .     A
C830   H846    1.086   .     S
C830   C832    1.389   .     A
C830   C840    1.389   .     A
C831   C833    1.409   .     A
C832   C834    1.409   .     A
C833   C835    1.415   .     A
C833   I859    2.132   .     S
C834   I860    2.132   .     S
C834   C836    1.415   .     A
C835   C841    1.421   .     A
C835   C837    1.424   .     A
C836   C838    1.424   .     A
C836   C842    1.421   .     A
C837   C839    1.409   .     A
C837   C316    1.409   1_556 S
C838   C840    1.409   .     A
C841   I861    2.134   .     S
C841   C293    1.392   1_556 S
C842   I862    2.134   .     S
Cu843  Cu844   2.720   .     S
Cu843  O857    1.959   .     S
Cu843  O853    1.963   .     S
Cu843  O855    1.962   .     S
Cu843  N849    2.044   .     S
Cu843  O851    1.971   .     S
Cu844  N850    2.044   .     S
Cu844  O852    1.971   .     S
Cu844  O856    1.962   .     S
Cu844  O854    1.963   .     S
Cu844  O858    1.959   .     S
C871   O909    1.305   .     A
C871   O912    1.312   .     A
C871   C880    1.469   .     S
C872   O911    1.312   .     A
C872   O910    1.305   .     A
C872   C879    1.469   .     S
C873   H905    1.084   .     S
C873   C898    1.394   .     A
C874   H906    1.084   .     S
C874   C897    1.394   .     A
C874   C378    1.392   1_556 S
C875   C880    1.406   .     A
C875   I921    2.147   .     S
C875   C993    1.391   1_455 S
C876   C879    1.406   .     A
C876   I922    2.147   .     S
C876   C936    1.391   .     S
C877   C879    1.413   .     A
C877   I923    2.138   .     S
C877   C933    1.391   .     S
C878   C880    1.413   .     A
C878   I924    2.138   .     S
C878   C992    1.391   1_455 S
C881   N908    1.381   .     A
C881   I925    2.155   .     S
C882   I926    2.155   .     S
C882   N907    1.381   .     A
C882   C535    1.431   1_565 S
C883   N908    1.382   .     A
C883   I927    2.157   .     S
C884   N907    1.382   .     A
C884   I928    2.157   .     S
C884   C533    1.431   1_565 S
C885   O913    1.304   .     A
C885   C890    1.452   .     S
C885   O916    1.304   .     A
C886   O915    1.304   .     A
C886   O914    1.304   .     A
C886   C889    1.452   .     S
C887   H903    1.086   .     S
C887   C889    1.389   .     A
C887   C897    1.389   .     A
C888   H904    1.086   .     S
C888   C890    1.389   .     A
C888   C898    1.389   .     A
C889   C891    1.409   .     A
C890   C892    1.409   .     A
C891   C893    1.415   .     A
C891   I917    2.132   .     S
C892   I918    2.132   .     S
C892   C894    1.415   .     A
C893   C899    1.421   .     A
C893   C895    1.424   .     A
C894   C896    1.424   .     A
C894   C900    1.421   .     A
C895   C897    1.409   .     A
C895   C374    1.409   1_556 S
C896   C898    1.409   .     A
C899   I919    2.134   .     S
C899   C351    1.392   1_556 S
C900   I920    2.134   .     S
Cu901  Cu902   2.720   .     S
Cu901  O915    1.959   .     S
Cu901  O911    1.963   .     S
Cu901  O913    1.962   .     S
Cu901  N907    2.044   .     S
Cu901  O909    1.971   .     S
Cu902  N908    2.044   .     S
Cu902  O910    1.971   .     S
Cu902  O914    1.962   .     S
Cu902  O912    1.963   .     S
Cu902  O916    1.959   .     S
C929   O967    1.305   .     A
C929   O970    1.312   .     A
C929   C938    1.469   .     S
C930   O969    1.312   .     A
C930   O968    1.305   .     A
C930   C937    1.469   .     S
C931   H963    1.084   .     S
C931   C956    1.394   .     A
C932   H964    1.084   .     S
C932   C955    1.394   .     A
C932   C436    1.392   1_556 S
C933   C938    1.406   .     A
C933   I979    2.147   .     S
C934   C937    1.406   .     A
C934   I980    2.147   .     S
C934   C994    1.391   .     S
C935   C937    1.413   .     A
C935   I981    2.138   .     S
C935   C991    1.391   .     S
C936   C938    1.413   .     A
C936   I982    2.138   .     S
C939   N966    1.381   .     A
C939   I983    2.155   .     S
C940   I984    2.155   .     S
C940   N965    1.381   .     A
C940   C593    1.431   1_565 S
C941   N966    1.382   .     A
C941   I985    2.157   .     S
C942   N965    1.382   .     A
C942   I986    2.157   .     S
C942   C591    1.431   1_565 S
C943   O971    1.304   .     A
C943   C948    1.452   .     S
C943   O974    1.304   .     A
C944   O973    1.304   .     A
C944   O972    1.304   .     A
C944   C947    1.452   .     S
C945   H961    1.086   .     S
C945   C947    1.389   .     A
C945   C955    1.389   .     A
C946   H962    1.086   .     S
C946   C948    1.389   .     A
C946   C956    1.389   .     A
C947   C949    1.409   .     A
C948   C950    1.409   .     A
C949   C951    1.415   .     A
C949   I975    2.132   .     S
C950   I976    2.132   .     S
C950   C952    1.415   .     A
C951   C957    1.421   .     A
C951   C953    1.424   .     A
C952   C954    1.424   .     A
C952   C958    1.421   .     A
C953   C955    1.409   .     A
C953   C432    1.409   1_556 S
C954   C956    1.409   .     A
C957   I977    2.134   .     S
C957   C409    1.392   1_556 S
C958   I978    2.134   .     S
Cu959  Cu960   2.720   .     S
Cu959  O973    1.959   .     S
Cu959  O969    1.963   .     S
Cu959  O971    1.962   .     S
Cu959  N965    2.044   .     S
Cu959  O967    1.971   .     S
Cu960  N966    2.044   .     S
Cu960  O968    1.971   .     S
Cu960  O972    1.962   .     S
Cu960  O970    1.963   .     S
Cu960  O974    1.959   .     S
C987   O1025   1.305   .     A
C987   O1028   1.312   .     A
C987   C996    1.469   .     S
C988   O1027   1.312   .     A
C988   O1026   1.305   .     A
C988   C995    1.469   .     S
C989   H1021   1.084   .     S
C989   C1014   1.394   .     A
C990   H1022   1.084   .     S
C990   C1013   1.394   .     A
C990   C494    1.392   1_556 S
C991   C996    1.406   .     A
C991   I1037   2.147   .     S
C992   C995    1.406   .     A
C992   I1038   2.147   .     S
C992   C878    1.391   1_655 S
C993   C995    1.413   .     A
C993   I1039   2.138   .     S
C993   C875    1.391   1_655 S
C994   C996    1.413   .     A
C994   I1040   2.138   .     S
C997   N1024   1.381   .     A
C997   I1041   2.155   .     S
C998   I1042   2.155   .     S
C998   N1023   1.381   .     A
C998   C651    1.431   1_565 S
C999   N1024   1.382   .     A
C999   I1043   2.157   .     S
C1000  N1023   1.382   .     A
C1000  I1044   2.157   .     S
C1000  C649    1.431   1_565 S
C1001  O1029   1.304   .     A
C1001  C1006   1.452   .     S
C1001  O1032   1.304   .     A
C1002  O1031   1.304   .     A
C1002  O1030   1.304   .     A
C1002  C1005   1.452   .     S
C1003  H1019   1.086   .     S
C1003  C1005   1.389   .     A
C1003  C1013   1.389   .     A
C1004  H1020   1.086   .     S
C1004  C1006   1.389   .     A
C1004  C1014   1.389   .     A
C1005  C1007   1.409   .     A
C1006  C1008   1.409   .     A
C1007  C1009   1.415   .     A
C1007  I1033   2.132   .     S
C1008  I1034   2.132   .     S
C1008  C1010   1.415   .     A
C1009  C1015   1.421   .     A
C1009  C1011   1.424   .     A
C1010  C1012   1.424   .     A
C1010  C1016   1.421   .     A
C1011  C1013   1.409   .     A
C1011  C490    1.409   1_556 S
C1012  C1014   1.409   .     A
C1015  I1035   2.134   .     S
C1015  C467    1.392   1_556 S
C1016  I1036   2.134   .     S
Cu1017 Cu1018  2.720   .     S
Cu1017 O1031   1.959   .     S
Cu1017 O1027   1.963   .     S
Cu1017 O1029   1.962   .     S
Cu1017 N1023   2.044   .     S
Cu1017 O1025   1.971   .     S
Cu1018 N1024   2.044   .     S
Cu1018 O1026   1.971   .     S
Cu1018 O1030   1.962   .     S
Cu1018 O1028   1.963   .     S
Cu1018 O1032   1.959   .     S
