data_str_m2_o10_o18_pcu_sym.105
_audit_creation_date              2020-01-03
_audit_creation_method            'Materials Studio'
_symmetry_space_group_name_H-M    'P1'
_symmetry_Int_Tables_number       1
_symmetry_cell_setting            triclinic
loop_
_symmetry_equiv_pos_as_xyz
  x,y,z
_cell_length_a                    22.5603
_cell_length_b                    26.0206
_cell_length_c                    31.5560
_cell_angle_alpha                 95.4472
_cell_angle_beta                  75.2617
_cell_angle_gamma                 103.5851
loop_
_atom_site_label
_atom_site_type_symbol
_atom_site_fract_x
_atom_site_fract_y
_atom_site_fract_z
_atom_site_U_iso_or_equiv
_atom_site_adp_type
_atom_site_occupancy
C1     C     0.18178   0.26668   0.25133   0.00000  Uiso   1.00
C2     C     0.15160   0.06665   0.24857   0.00000  Uiso   1.00
C3     C     0.09164   0.14286   0.04129   0.00000  Uiso   1.00
C4     C     0.23437   0.21448   0.46396   0.00000  Uiso   1.00
C5     C     0.04841   0.13087   0.01554   0.00000  Uiso   1.00
C6     C     0.27715   0.22802   0.49003   0.00000  Uiso   1.00
C7     C     0.19004   0.32286   0.25200   0.00000  Uiso   1.00
C8     C     0.14340   0.01047   0.24777   0.00000  Uiso   1.00
C9     C     0.12827   0.16288   0.33307   0.00000  Uiso   1.00
C10    C     0.20508   0.17084   0.16700   0.00000  Uiso   1.00
C11    C     0.10496   0.15869   0.38085   0.00000  Uiso   1.00
C12    C     0.22830   0.17938   0.11978   0.00000  Uiso   1.00
C13    C     0.02252   0.12799   0.44500   0.00000  Uiso   1.00
C14    C     0.30591   0.22493   0.05884   0.00000  Uiso   1.00
C15    C     0.04194   0.13713   0.40004   0.00000  Uiso   1.00
C16    C     0.28886   0.20829   0.10226   0.00000  Uiso   1.00
C17    C     0.14778   0.17432   0.40722   0.00000  Uiso   1.00
C18    C     0.18602   0.16345   0.09318   0.00000  Uiso   1.00
C19    C     0.12973   0.16746   0.45265   0.00000  Uiso   1.00
C20    C     0.20022   0.18039   0.05014   0.00000  Uiso   1.00
C21    C     0.06654   0.14227   0.47123   0.00000  Uiso   1.00
C22    C     0.26145   0.21091   0.03285   0.00000  Uiso   1.00
C23    C     0.17341   0.18323   0.47967   0.00000  Uiso   1.00
C24    C     0.15505   0.16818   0.02407   0.00000  Uiso   1.00
Cu25   Cu    0.10737   0.16108   0.24517   0.00000  Uiso   1.00
Cu26   Cu    0.22596   0.17225   0.25484   0.00000  Uiso   1.00
H27    H     0.00041   0.11188   0.03064   0.00000  Uiso   1.00
H28    H     0.32301   0.25227   0.47624   0.00000  Uiso   1.00
H29    H     0.14188   0.13782   0.10736   0.00000  Uiso   1.00
H30    H     0.19582   0.19007   0.39112   0.00000  Uiso   1.00
H31    H     0.32218   0.21903   0.12263   0.00000  Uiso   1.00
H32    H     0.00803   0.12583   0.38011   0.00000  Uiso   1.00
H33    H     0.07277   0.13301   0.07511   0.00000  Uiso   1.00
H34    H     0.25018   0.23090   0.43191   0.00000  Uiso   1.00
H35    H     0.23476   0.01372   0.25605   0.00000  Uiso   1.00
H36    H     0.09870   0.31961   0.24368   0.00000  Uiso   1.00
N37    N     0.31506   0.18068   0.26212   0.00000  Uiso   1.00
N38    N     0.01827   0.15265   0.23788   0.00000  Uiso   1.00
O39    O     0.12815   0.23809   0.24686   0.00000  Uiso   1.00
O40    O     0.20518   0.09524   0.25314   0.00000  Uiso   1.00
O41    O     0.22829   0.24753   0.25503   0.00000  Uiso   1.00
O42    O     0.10504   0.08580   0.24498   0.00000  Uiso   1.00
O43    O     0.08851   0.15930   0.30855   0.00000  Uiso   1.00
O44    O     0.24482   0.17403   0.19146   0.00000  Uiso   1.00
O45    O     0.18866   0.16874   0.31671   0.00000  Uiso   1.00
O46    O     0.14468   0.16460   0.18329   0.00000  Uiso   1.00
O47    O     0.29288   0.10894   0.46395   0.00000  Uiso   1.00
C48    C     0.27719   0.05387   0.45530   0.00000  Uiso   1.00
H49    H     0.30700   0.03323   0.46785   0.00000  Uiso   1.00
H50    H     0.28252   0.04465   0.41952   0.00000  Uiso   1.00
C51    C     0.20892   0.03287   0.47853   0.00000  Uiso   1.00
H52    H     0.17784   0.05212   0.46620   0.00000  Uiso   1.00
H53    H     0.19574   0.32277   0.47236   0.00000  Uiso   1.00
H54    H     0.20218   0.04141   0.01439   0.00000  Uiso   1.00
O55    O     0.03374   0.25077   0.03987   0.00000  Uiso   1.00
C56    C     0.05469   0.29675   0.06457   0.00000  Uiso   1.00
H57    H     0.01827   0.30731   0.09313   0.00000  Uiso   1.00
H58    H     0.06975   0.33080   0.04265   0.00000  Uiso   1.00
C59    C     0.11145   0.29086   0.07998   0.00000  Uiso   1.00
H60    H     0.14926   0.28343   0.05138   0.00000  Uiso   1.00
H61    H     0.12952   0.32772   0.09781   0.00000  Uiso   1.00
H62    H     0.09840   0.25729   0.10220   0.00000  Uiso   1.00
C63    C     0.33141   0.20662   0.30032   0.00000  Uiso   1.00
H64    H     0.03317   0.24317   0.29835   0.00000  Uiso   1.00
O65    O     0.30350   0.18941   0.33628   0.00000  Uiso   1.00
C66    C     0.00238   0.12764   0.19927   0.00000  Uiso   1.00
H67    H     0.30075   0.09104   0.20065   0.00000  Uiso   1.00
O68    O     0.03016   0.14600   0.16367   0.00000  Uiso   1.00
C69    C     0.51511   0.26668   0.25133   0.00000  Uiso   1.00
C70    C     0.48493   0.06665   0.24857   0.00000  Uiso   1.00
C71    C     0.42497   0.14286   0.04129   0.00000  Uiso   1.00
C72    C     0.56770   0.21448   0.46396   0.00000  Uiso   1.00
C73    C     0.38174   0.13087   0.01554   0.00000  Uiso   1.00
C74    C     0.61049   0.22802   0.49003   0.00000  Uiso   1.00
C75    C     0.52338   0.32286   0.25200   0.00000  Uiso   1.00
C76    C     0.47674   0.01047   0.24777   0.00000  Uiso   1.00
C77    C     0.46160   0.16288   0.33307   0.00000  Uiso   1.00
C78    C     0.53841   0.17084   0.16700   0.00000  Uiso   1.00
C79    C     0.43830   0.15869   0.38085   0.00000  Uiso   1.00
C80    C     0.56163   0.17938   0.11978   0.00000  Uiso   1.00
C81    C     0.35585   0.12799   0.44500   0.00000  Uiso   1.00
C82    C     0.63924   0.22493   0.05884   0.00000  Uiso   1.00
C83    C     0.37527   0.13713   0.40004   0.00000  Uiso   1.00
C84    C     0.62219   0.20829   0.10226   0.00000  Uiso   1.00
C85    C     0.48111   0.17432   0.40722   0.00000  Uiso   1.00
C86    C     0.51935   0.16345   0.09318   0.00000  Uiso   1.00
C87    C     0.46307   0.16746   0.45265   0.00000  Uiso   1.00
C88    C     0.53356   0.18039   0.05014   0.00000  Uiso   1.00
C89    C     0.39988   0.14227   0.47123   0.00000  Uiso   1.00
C90    C     0.59479   0.21091   0.03285   0.00000  Uiso   1.00
C91    C     0.50674   0.18323   0.47967   0.00000  Uiso   1.00
C92    C     0.48839   0.16818   0.02407   0.00000  Uiso   1.00
Cu93   Cu    0.44071   0.16108   0.24517   0.00000  Uiso   1.00
Cu94   Cu    0.55929   0.17225   0.25484   0.00000  Uiso   1.00
H95    H     0.33374   0.11188   0.03064   0.00000  Uiso   1.00
H96    H     0.65634   0.25227   0.47624   0.00000  Uiso   1.00
H97    H     0.47521   0.13782   0.10736   0.00000  Uiso   1.00
H98    H     0.52915   0.19007   0.39112   0.00000  Uiso   1.00
H99    H     0.65551   0.21903   0.12263   0.00000  Uiso   1.00
H100   H     0.34137   0.12583   0.38011   0.00000  Uiso   1.00
H101   H     0.40610   0.13301   0.07511   0.00000  Uiso   1.00
H102   H     0.58351   0.23090   0.43191   0.00000  Uiso   1.00
H103   H     0.56809   0.01372   0.25605   0.00000  Uiso   1.00
H104   H     0.43203   0.31961   0.24368   0.00000  Uiso   1.00
N105   N     0.64839   0.18068   0.26212   0.00000  Uiso   1.00
N106   N     0.35161   0.15265   0.23788   0.00000  Uiso   1.00
O107   O     0.46148   0.23809   0.24686   0.00000  Uiso   1.00
O108   O     0.53852   0.09524   0.25314   0.00000  Uiso   1.00
O109   O     0.56163   0.24753   0.25503   0.00000  Uiso   1.00
O110   O     0.43837   0.08580   0.24498   0.00000  Uiso   1.00
O111   O     0.42185   0.15930   0.30855   0.00000  Uiso   1.00
O112   O     0.57815   0.17403   0.19146   0.00000  Uiso   1.00
O113   O     0.52199   0.16874   0.31671   0.00000  Uiso   1.00
O114   O     0.47801   0.16460   0.18329   0.00000  Uiso   1.00
O115   O     0.62621   0.10894   0.46395   0.00000  Uiso   1.00
C116   C     0.61052   0.05387   0.45530   0.00000  Uiso   1.00
H117   H     0.64034   0.03323   0.46785   0.00000  Uiso   1.00
H118   H     0.61585   0.04465   0.41952   0.00000  Uiso   1.00
C119   C     0.54225   0.03287   0.47853   0.00000  Uiso   1.00
H120   H     0.51117   0.05212   0.46620   0.00000  Uiso   1.00
H121   H     0.52907   0.32277   0.47236   0.00000  Uiso   1.00
H122   H     0.53551   0.04141   0.01439   0.00000  Uiso   1.00
O123   O     0.36707   0.25077   0.03987   0.00000  Uiso   1.00
C124   C     0.38802   0.29675   0.06457   0.00000  Uiso   1.00
H125   H     0.35160   0.30731   0.09313   0.00000  Uiso   1.00
H126   H     0.40309   0.33080   0.04265   0.00000  Uiso   1.00
C127   C     0.44478   0.29086   0.07998   0.00000  Uiso   1.00
H128   H     0.48260   0.28343   0.05138   0.00000  Uiso   1.00
H129   H     0.46285   0.32772   0.09781   0.00000  Uiso   1.00
H130   H     0.43173   0.25729   0.10220   0.00000  Uiso   1.00
C131   C     0.66475   0.20662   0.30032   0.00000  Uiso   1.00
H132   H     0.36650   0.24317   0.29835   0.00000  Uiso   1.00
O133   O     0.63683   0.18941   0.33628   0.00000  Uiso   1.00
C134   C     0.33571   0.12764   0.19927   0.00000  Uiso   1.00
H135   H     0.63408   0.09104   0.20065   0.00000  Uiso   1.00
O136   O     0.36350   0.14600   0.16367   0.00000  Uiso   1.00
C137   C     0.84845   0.26668   0.25133   0.00000  Uiso   1.00
C138   C     0.81827   0.06665   0.24857   0.00000  Uiso   1.00
C139   C     0.75830   0.14286   0.04129   0.00000  Uiso   1.00
C140   C     0.90104   0.21448   0.46396   0.00000  Uiso   1.00
C141   C     0.71507   0.13087   0.01554   0.00000  Uiso   1.00
C142   C     0.94382   0.22802   0.49003   0.00000  Uiso   1.00
C143   C     0.85671   0.32286   0.25200   0.00000  Uiso   1.00
C144   C     0.81007   0.01047   0.24777   0.00000  Uiso   1.00
C145   C     0.79494   0.16288   0.33307   0.00000  Uiso   1.00
C146   C     0.87174   0.17084   0.16700   0.00000  Uiso   1.00
C147   C     0.77163   0.15869   0.38085   0.00000  Uiso   1.00
C148   C     0.89496   0.17938   0.11978   0.00000  Uiso   1.00
C149   C     0.68918   0.12799   0.44500   0.00000  Uiso   1.00
C150   C     0.97257   0.22493   0.05884   0.00000  Uiso   1.00
C151   C     0.70861   0.13713   0.40004   0.00000  Uiso   1.00
C152   C     0.95552   0.20829   0.10226   0.00000  Uiso   1.00
C153   C     0.81445   0.17432   0.40722   0.00000  Uiso   1.00
C154   C     0.85269   0.16345   0.09318   0.00000  Uiso   1.00
C155   C     0.79640   0.16746   0.45265   0.00000  Uiso   1.00
C156   C     0.86689   0.18039   0.05014   0.00000  Uiso   1.00
C157   C     0.73321   0.14227   0.47123   0.00000  Uiso   1.00
C158   C     0.92812   0.21091   0.03285   0.00000  Uiso   1.00
C159   C     0.84008   0.18323   0.47967   0.00000  Uiso   1.00
C160   C     0.82172   0.16818   0.02407   0.00000  Uiso   1.00
Cu161  Cu    0.77404   0.16108   0.24517   0.00000  Uiso   1.00
Cu162  Cu    0.89263   0.17225   0.25484   0.00000  Uiso   1.00
H163   H     0.66707   0.11188   0.03064   0.00000  Uiso   1.00
H164   H     0.98967   0.25227   0.47624   0.00000  Uiso   1.00
H165   H     0.80854   0.13782   0.10736   0.00000  Uiso   1.00
H166   H     0.86248   0.19007   0.39112   0.00000  Uiso   1.00
H167   H     0.98884   0.21903   0.12263   0.00000  Uiso   1.00
H168   H     0.67470   0.12583   0.38011   0.00000  Uiso   1.00
H169   H     0.73944   0.13301   0.07511   0.00000  Uiso   1.00
H170   H     0.91684   0.23090   0.43191   0.00000  Uiso   1.00
H171   H     0.90143   0.01372   0.25605   0.00000  Uiso   1.00
H172   H     0.76537   0.31961   0.24368   0.00000  Uiso   1.00
N173   N     0.98173   0.18068   0.26212   0.00000  Uiso   1.00
N174   N     0.68494   0.15265   0.23788   0.00000  Uiso   1.00
O175   O     0.79482   0.23809   0.24686   0.00000  Uiso   1.00
O176   O     0.87185   0.09524   0.25314   0.00000  Uiso   1.00
O177   O     0.89496   0.24753   0.25503   0.00000  Uiso   1.00
O178   O     0.77171   0.08580   0.24498   0.00000  Uiso   1.00
O179   O     0.75518   0.15930   0.30855   0.00000  Uiso   1.00
O180   O     0.91149   0.17403   0.19146   0.00000  Uiso   1.00
O181   O     0.85532   0.16874   0.31671   0.00000  Uiso   1.00
O182   O     0.81134   0.16460   0.18329   0.00000  Uiso   1.00
O183   O     0.95955   0.10894   0.46395   0.00000  Uiso   1.00
C184   C     0.94386   0.05387   0.45530   0.00000  Uiso   1.00
H185   H     0.97367   0.03323   0.46785   0.00000  Uiso   1.00
H186   H     0.94919   0.04465   0.41952   0.00000  Uiso   1.00
C187   C     0.87559   0.03287   0.47853   0.00000  Uiso   1.00
H188   H     0.84450   0.05212   0.46620   0.00000  Uiso   1.00
H189   H     0.86241   0.32277   0.47236   0.00000  Uiso   1.00
H190   H     0.86885   0.04141   0.01439   0.00000  Uiso   1.00
O191   O     0.70041   0.25077   0.03987   0.00000  Uiso   1.00
C192   C     0.72136   0.29675   0.06457   0.00000  Uiso   1.00
H193   H     0.68494   0.30731   0.09313   0.00000  Uiso   1.00
H194   H     0.73642   0.33080   0.04265   0.00000  Uiso   1.00
C195   C     0.77811   0.29086   0.07998   0.00000  Uiso   1.00
H196   H     0.81593   0.28343   0.05138   0.00000  Uiso   1.00
H197   H     0.79618   0.32772   0.09781   0.00000  Uiso   1.00
H198   H     0.76507   0.25729   0.10220   0.00000  Uiso   1.00
C199   C     0.99808   0.20662   0.30032   0.00000  Uiso   1.00
H200   H     0.69983   0.24317   0.29835   0.00000  Uiso   1.00
O201   O     0.97016   0.18941   0.33628   0.00000  Uiso   1.00
C202   C     0.66905   0.12764   0.19927   0.00000  Uiso   1.00
H203   H     0.96741   0.09104   0.20065   0.00000  Uiso   1.00
O204   O     0.69683   0.14600   0.16367   0.00000  Uiso   1.00
C205   C     0.18178   0.60002   0.25133   0.00000  Uiso   1.00
C206   C     0.15160   0.39998   0.24857   0.00000  Uiso   1.00
C207   C     0.09164   0.47619   0.04129   0.00000  Uiso   1.00
C208   C     0.23437   0.54781   0.46396   0.00000  Uiso   1.00
C209   C     0.04841   0.46420   0.01554   0.00000  Uiso   1.00
C210   C     0.27715   0.56135   0.49003   0.00000  Uiso   1.00
C211   C     0.19004   0.65620   0.25200   0.00000  Uiso   1.00
C212   C     0.14340   0.34380   0.24777   0.00000  Uiso   1.00
C213   C     0.12827   0.49622   0.33307   0.00000  Uiso   1.00
C214   C     0.20508   0.50417   0.16700   0.00000  Uiso   1.00
C215   C     0.10496   0.49203   0.38085   0.00000  Uiso   1.00
C216   C     0.22830   0.51271   0.11978   0.00000  Uiso   1.00
C217   C     0.02252   0.46132   0.44500   0.00000  Uiso   1.00
C218   C     0.30591   0.55827   0.05884   0.00000  Uiso   1.00
C219   C     0.04194   0.47047   0.40004   0.00000  Uiso   1.00
C220   C     0.28886   0.54162   0.10226   0.00000  Uiso   1.00
C221   C     0.14778   0.50765   0.40722   0.00000  Uiso   1.00
C222   C     0.18602   0.49678   0.09318   0.00000  Uiso   1.00
C223   C     0.12973   0.50079   0.45265   0.00000  Uiso   1.00
C224   C     0.20022   0.51373   0.05014   0.00000  Uiso   1.00
C225   C     0.06654   0.47561   0.47123   0.00000  Uiso   1.00
C226   C     0.26145   0.54424   0.03285   0.00000  Uiso   1.00
C227   C     0.17341   0.51656   0.47967   0.00000  Uiso   1.00
C228   C     0.15505   0.50152   0.02407   0.00000  Uiso   1.00
Cu229  Cu    0.10737   0.49441   0.24517   0.00000  Uiso   1.00
Cu230  Cu    0.22596   0.50559   0.25484   0.00000  Uiso   1.00
H231   H     0.00041   0.44522   0.03064   0.00000  Uiso   1.00
H232   H     0.32301   0.58561   0.47624   0.00000  Uiso   1.00
H233   H     0.14188   0.47116   0.10736   0.00000  Uiso   1.00
H234   H     0.19582   0.52340   0.39112   0.00000  Uiso   1.00
H235   H     0.32218   0.55236   0.12263   0.00000  Uiso   1.00
H236   H     0.00803   0.45916   0.38011   0.00000  Uiso   1.00
H237   H     0.07277   0.46634   0.07511   0.00000  Uiso   1.00
H238   H     0.25018   0.56423   0.43191   0.00000  Uiso   1.00
H239   H     0.23476   0.34706   0.25605   0.00000  Uiso   1.00
H240   H     0.09870   0.65294   0.24368   0.00000  Uiso   1.00
N241   N     0.31506   0.51401   0.26212   0.00000  Uiso   1.00
N242   N     0.01827   0.48599   0.23788   0.00000  Uiso   1.00
O243   O     0.12815   0.57142   0.24686   0.00000  Uiso   1.00
O244   O     0.20518   0.42858   0.25314   0.00000  Uiso   1.00
O245   O     0.22829   0.58086   0.25503   0.00000  Uiso   1.00
O246   O     0.10504   0.41914   0.24498   0.00000  Uiso   1.00
O247   O     0.08851   0.49263   0.30855   0.00000  Uiso   1.00
O248   O     0.24482   0.50737   0.19146   0.00000  Uiso   1.00
O249   O     0.18866   0.50207   0.31671   0.00000  Uiso   1.00
O250   O     0.14468   0.49793   0.18329   0.00000  Uiso   1.00
O251   O     0.29288   0.44227   0.46395   0.00000  Uiso   1.00
C252   C     0.27719   0.38720   0.45530   0.00000  Uiso   1.00
H253   H     0.30700   0.36656   0.46785   0.00000  Uiso   1.00
H254   H     0.28252   0.37798   0.41952   0.00000  Uiso   1.00
C255   C     0.20892   0.36621   0.47853   0.00000  Uiso   1.00
H256   H     0.17784   0.38545   0.46620   0.00000  Uiso   1.00
H257   H     0.19574   0.65611   0.47236   0.00000  Uiso   1.00
H258   H     0.20218   0.37474   0.01439   0.00000  Uiso   1.00
O259   O     0.03374   0.58411   0.03987   0.00000  Uiso   1.00
C260   C     0.05469   0.63009   0.06457   0.00000  Uiso   1.00
H261   H     0.01827   0.64065   0.09313   0.00000  Uiso   1.00
H262   H     0.06975   0.66413   0.04265   0.00000  Uiso   1.00
C263   C     0.11145   0.62419   0.07998   0.00000  Uiso   1.00
H264   H     0.14926   0.61676   0.05138   0.00000  Uiso   1.00
H265   H     0.12952   0.66105   0.09781   0.00000  Uiso   1.00
H266   H     0.09840   0.59063   0.10220   0.00000  Uiso   1.00
C267   C     0.33141   0.53996   0.30032   0.00000  Uiso   1.00
H268   H     0.03317   0.57650   0.29835   0.00000  Uiso   1.00
O269   O     0.30350   0.52274   0.33628   0.00000  Uiso   1.00
C270   C     0.00238   0.46097   0.19927   0.00000  Uiso   1.00
H271   H     0.30075   0.42437   0.20065   0.00000  Uiso   1.00
O272   O     0.03016   0.47934   0.16367   0.00000  Uiso   1.00
C273   C     0.51511   0.60002   0.25133   0.00000  Uiso   1.00
C274   C     0.48493   0.39998   0.24857   0.00000  Uiso   1.00
C275   C     0.42497   0.47619   0.04129   0.00000  Uiso   1.00
C276   C     0.56770   0.54781   0.46396   0.00000  Uiso   1.00
C277   C     0.38174   0.46420   0.01554   0.00000  Uiso   1.00
C278   C     0.61049   0.56135   0.49003   0.00000  Uiso   1.00
C279   C     0.52338   0.65620   0.25200   0.00000  Uiso   1.00
C280   C     0.47674   0.34380   0.24777   0.00000  Uiso   1.00
C281   C     0.46160   0.49622   0.33307   0.00000  Uiso   1.00
C282   C     0.53841   0.50417   0.16700   0.00000  Uiso   1.00
C283   C     0.43830   0.49203   0.38085   0.00000  Uiso   1.00
C284   C     0.56163   0.51271   0.11978   0.00000  Uiso   1.00
C285   C     0.35585   0.46132   0.44500   0.00000  Uiso   1.00
C286   C     0.63924   0.55827   0.05884   0.00000  Uiso   1.00
C287   C     0.37527   0.47047   0.40004   0.00000  Uiso   1.00
C288   C     0.62219   0.54162   0.10226   0.00000  Uiso   1.00
C289   C     0.48111   0.50765   0.40722   0.00000  Uiso   1.00
C290   C     0.51935   0.49678   0.09318   0.00000  Uiso   1.00
C291   C     0.46307   0.50079   0.45265   0.00000  Uiso   1.00
C292   C     0.53356   0.51373   0.05014   0.00000  Uiso   1.00
C293   C     0.39988   0.47561   0.47123   0.00000  Uiso   1.00
C294   C     0.59479   0.54424   0.03285   0.00000  Uiso   1.00
C295   C     0.50674   0.51656   0.47967   0.00000  Uiso   1.00
C296   C     0.48839   0.50152   0.02407   0.00000  Uiso   1.00
Cu297  Cu    0.44071   0.49441   0.24517   0.00000  Uiso   1.00
Cu298  Cu    0.55929   0.50559   0.25484   0.00000  Uiso   1.00
H299   H     0.33374   0.44522   0.03064   0.00000  Uiso   1.00
H300   H     0.65634   0.58561   0.47624   0.00000  Uiso   1.00
H301   H     0.47521   0.47116   0.10736   0.00000  Uiso   1.00
H302   H     0.52915   0.52340   0.39112   0.00000  Uiso   1.00
H303   H     0.65551   0.55236   0.12263   0.00000  Uiso   1.00
H304   H     0.34137   0.45916   0.38011   0.00000  Uiso   1.00
H305   H     0.40610   0.46634   0.07511   0.00000  Uiso   1.00
H306   H     0.58351   0.56423   0.43191   0.00000  Uiso   1.00
H307   H     0.56809   0.34706   0.25605   0.00000  Uiso   1.00
H308   H     0.43203   0.65294   0.24368   0.00000  Uiso   1.00
N309   N     0.64839   0.51401   0.26212   0.00000  Uiso   1.00
N310   N     0.35161   0.48599   0.23788   0.00000  Uiso   1.00
O311   O     0.46148   0.57142   0.24686   0.00000  Uiso   1.00
O312   O     0.53852   0.42858   0.25314   0.00000  Uiso   1.00
O313   O     0.56163   0.58086   0.25503   0.00000  Uiso   1.00
O314   O     0.43837   0.41914   0.24498   0.00000  Uiso   1.00
O315   O     0.42185   0.49263   0.30855   0.00000  Uiso   1.00
O316   O     0.57815   0.50737   0.19146   0.00000  Uiso   1.00
O317   O     0.52199   0.50207   0.31671   0.00000  Uiso   1.00
O318   O     0.47801   0.49793   0.18329   0.00000  Uiso   1.00
O319   O     0.62621   0.44227   0.46395   0.00000  Uiso   1.00
C320   C     0.61052   0.38720   0.45530   0.00000  Uiso   1.00
H321   H     0.64034   0.36656   0.46785   0.00000  Uiso   1.00
H322   H     0.61585   0.37798   0.41952   0.00000  Uiso   1.00
C323   C     0.54225   0.36621   0.47853   0.00000  Uiso   1.00
H324   H     0.51117   0.38545   0.46620   0.00000  Uiso   1.00
H325   H     0.52907   0.65611   0.47236   0.00000  Uiso   1.00
H326   H     0.53551   0.37474   0.01439   0.00000  Uiso   1.00
O327   O     0.36707   0.58411   0.03987   0.00000  Uiso   1.00
C328   C     0.38802   0.63009   0.06457   0.00000  Uiso   1.00
H329   H     0.35160   0.64065   0.09313   0.00000  Uiso   1.00
H330   H     0.40309   0.66413   0.04265   0.00000  Uiso   1.00
C331   C     0.44478   0.62419   0.07998   0.00000  Uiso   1.00
H332   H     0.48260   0.61676   0.05138   0.00000  Uiso   1.00
H333   H     0.46285   0.66105   0.09781   0.00000  Uiso   1.00
H334   H     0.43173   0.59063   0.10220   0.00000  Uiso   1.00
C335   C     0.66475   0.53996   0.30032   0.00000  Uiso   1.00
H336   H     0.36650   0.57650   0.29835   0.00000  Uiso   1.00
O337   O     0.63683   0.52274   0.33628   0.00000  Uiso   1.00
C338   C     0.33571   0.46097   0.19927   0.00000  Uiso   1.00
H339   H     0.63408   0.42437   0.20065   0.00000  Uiso   1.00
O340   O     0.36350   0.47934   0.16367   0.00000  Uiso   1.00
C341   C     0.84845   0.60002   0.25133   0.00000  Uiso   1.00
C342   C     0.81827   0.39998   0.24857   0.00000  Uiso   1.00
C343   C     0.75830   0.47619   0.04129   0.00000  Uiso   1.00
C344   C     0.90104   0.54781   0.46396   0.00000  Uiso   1.00
C345   C     0.71507   0.46420   0.01554   0.00000  Uiso   1.00
C346   C     0.94382   0.56135   0.49003   0.00000  Uiso   1.00
C347   C     0.85671   0.65620   0.25200   0.00000  Uiso   1.00
C348   C     0.81007   0.34380   0.24777   0.00000  Uiso   1.00
C349   C     0.79494   0.49622   0.33307   0.00000  Uiso   1.00
C350   C     0.87174   0.50417   0.16700   0.00000  Uiso   1.00
C351   C     0.77163   0.49203   0.38085   0.00000  Uiso   1.00
C352   C     0.89496   0.51271   0.11978   0.00000  Uiso   1.00
C353   C     0.68918   0.46132   0.44500   0.00000  Uiso   1.00
C354   C     0.97257   0.55827   0.05884   0.00000  Uiso   1.00
C355   C     0.70861   0.47047   0.40004   0.00000  Uiso   1.00
C356   C     0.95552   0.54162   0.10226   0.00000  Uiso   1.00
C357   C     0.81445   0.50765   0.40722   0.00000  Uiso   1.00
C358   C     0.85269   0.49678   0.09318   0.00000  Uiso   1.00
C359   C     0.79640   0.50079   0.45265   0.00000  Uiso   1.00
C360   C     0.86689   0.51373   0.05014   0.00000  Uiso   1.00
C361   C     0.73321   0.47561   0.47123   0.00000  Uiso   1.00
C362   C     0.92812   0.54424   0.03285   0.00000  Uiso   1.00
C363   C     0.84008   0.51656   0.47967   0.00000  Uiso   1.00
C364   C     0.82172   0.50152   0.02407   0.00000  Uiso   1.00
Cu365  Cu    0.77404   0.49441   0.24517   0.00000  Uiso   1.00
Cu366  Cu    0.89263   0.50559   0.25484   0.00000  Uiso   1.00
H367   H     0.66707   0.44522   0.03064   0.00000  Uiso   1.00
H368   H     0.98967   0.58561   0.47624   0.00000  Uiso   1.00
H369   H     0.80854   0.47116   0.10736   0.00000  Uiso   1.00
H370   H     0.86248   0.52340   0.39112   0.00000  Uiso   1.00
H371   H     0.98884   0.55236   0.12263   0.00000  Uiso   1.00
H372   H     0.67470   0.45916   0.38011   0.00000  Uiso   1.00
H373   H     0.73944   0.46634   0.07511   0.00000  Uiso   1.00
H374   H     0.91684   0.56423   0.43191   0.00000  Uiso   1.00
H375   H     0.90143   0.34706   0.25605   0.00000  Uiso   1.00
H376   H     0.76537   0.65294   0.24368   0.00000  Uiso   1.00
N377   N     0.98173   0.51401   0.26212   0.00000  Uiso   1.00
N378   N     0.68494   0.48599   0.23788   0.00000  Uiso   1.00
O379   O     0.79482   0.57142   0.24686   0.00000  Uiso   1.00
O380   O     0.87185   0.42858   0.25314   0.00000  Uiso   1.00
O381   O     0.89496   0.58086   0.25503   0.00000  Uiso   1.00
O382   O     0.77171   0.41914   0.24498   0.00000  Uiso   1.00
O383   O     0.75518   0.49263   0.30855   0.00000  Uiso   1.00
O384   O     0.91149   0.50737   0.19146   0.00000  Uiso   1.00
O385   O     0.85532   0.50207   0.31671   0.00000  Uiso   1.00
O386   O     0.81134   0.49793   0.18329   0.00000  Uiso   1.00
O387   O     0.95955   0.44227   0.46395   0.00000  Uiso   1.00
C388   C     0.94386   0.38720   0.45530   0.00000  Uiso   1.00
H389   H     0.97367   0.36656   0.46785   0.00000  Uiso   1.00
H390   H     0.94919   0.37798   0.41952   0.00000  Uiso   1.00
C391   C     0.87559   0.36621   0.47853   0.00000  Uiso   1.00
H392   H     0.84450   0.38545   0.46620   0.00000  Uiso   1.00
H393   H     0.86241   0.65611   0.47236   0.00000  Uiso   1.00
H394   H     0.86885   0.37474   0.01439   0.00000  Uiso   1.00
O395   O     0.70041   0.58411   0.03987   0.00000  Uiso   1.00
C396   C     0.72136   0.63009   0.06457   0.00000  Uiso   1.00
H397   H     0.68494   0.64065   0.09313   0.00000  Uiso   1.00
H398   H     0.73642   0.66413   0.04265   0.00000  Uiso   1.00
C399   C     0.77811   0.62419   0.07998   0.00000  Uiso   1.00
H400   H     0.81593   0.61676   0.05138   0.00000  Uiso   1.00
H401   H     0.79618   0.66105   0.09781   0.00000  Uiso   1.00
H402   H     0.76507   0.59063   0.10220   0.00000  Uiso   1.00
C403   C     0.99808   0.53996   0.30032   0.00000  Uiso   1.00
H404   H     0.69983   0.57650   0.29835   0.00000  Uiso   1.00
O405   O     0.97016   0.52274   0.33628   0.00000  Uiso   1.00
C406   C     0.66905   0.46097   0.19927   0.00000  Uiso   1.00
H407   H     0.96741   0.42437   0.20065   0.00000  Uiso   1.00
O408   O     0.69683   0.47934   0.16367   0.00000  Uiso   1.00
C409   C     0.18178   0.93335   0.25133   0.00000  Uiso   1.00
C410   C     0.15160   0.73331   0.24857   0.00000  Uiso   1.00
C411   C     0.09164   0.80952   0.04129   0.00000  Uiso   1.00
C412   C     0.23437   0.88115   0.46396   0.00000  Uiso   1.00
C413   C     0.04841   0.79754   0.01554   0.00000  Uiso   1.00
C414   C     0.27715   0.89468   0.49003   0.00000  Uiso   1.00
C415   C     0.19004   0.98953   0.25200   0.00000  Uiso   1.00
C416   C     0.14340   0.67713   0.24777   0.00000  Uiso   1.00
C417   C     0.12827   0.82955   0.33307   0.00000  Uiso   1.00
C418   C     0.20508   0.83750   0.16700   0.00000  Uiso   1.00
C419   C     0.10496   0.82536   0.38085   0.00000  Uiso   1.00
C420   C     0.22830   0.84605   0.11978   0.00000  Uiso   1.00
C421   C     0.02252   0.79466   0.44500   0.00000  Uiso   1.00
C422   C     0.30591   0.89160   0.05884   0.00000  Uiso   1.00
C423   C     0.04194   0.80380   0.40004   0.00000  Uiso   1.00
C424   C     0.28886   0.87495   0.10226   0.00000  Uiso   1.00
C425   C     0.14778   0.84098   0.40722   0.00000  Uiso   1.00
C426   C     0.18602   0.83012   0.09318   0.00000  Uiso   1.00
C427   C     0.12973   0.83413   0.45265   0.00000  Uiso   1.00
C428   C     0.20022   0.84706   0.05014   0.00000  Uiso   1.00
C429   C     0.06654   0.80894   0.47123   0.00000  Uiso   1.00
C430   C     0.26145   0.87758   0.03285   0.00000  Uiso   1.00
C431   C     0.17341   0.84990   0.47967   0.00000  Uiso   1.00
C432   C     0.15505   0.83485   0.02407   0.00000  Uiso   1.00
Cu433  Cu    0.10737   0.82775   0.24517   0.00000  Uiso   1.00
Cu434  Cu    0.22596   0.83892   0.25484   0.00000  Uiso   1.00
H435   H     0.00041   0.77855   0.03064   0.00000  Uiso   1.00
H436   H     0.32301   0.91894   0.47624   0.00000  Uiso   1.00
H437   H     0.14188   0.80449   0.10736   0.00000  Uiso   1.00
H438   H     0.19582   0.85674   0.39112   0.00000  Uiso   1.00
H439   H     0.32218   0.88569   0.12263   0.00000  Uiso   1.00
H440   H     0.00803   0.79249   0.38011   0.00000  Uiso   1.00
H441   H     0.07277   0.79968   0.07511   0.00000  Uiso   1.00
H442   H     0.25018   0.89756   0.43191   0.00000  Uiso   1.00
H443   H     0.23476   0.68039   0.25605   0.00000  Uiso   1.00
H444   H     0.09870   0.98628   0.24368   0.00000  Uiso   1.00
N445   N     0.31506   0.84735   0.26212   0.00000  Uiso   1.00
N446   N     0.01827   0.81932   0.23788   0.00000  Uiso   1.00
O447   O     0.12815   0.90476   0.24686   0.00000  Uiso   1.00
O448   O     0.20518   0.76191   0.25314   0.00000  Uiso   1.00
O449   O     0.22829   0.91420   0.25503   0.00000  Uiso   1.00
O450   O     0.10504   0.75247   0.24498   0.00000  Uiso   1.00
O451   O     0.08851   0.82597   0.30855   0.00000  Uiso   1.00
O452   O     0.24482   0.84070   0.19146   0.00000  Uiso   1.00
O453   O     0.18866   0.83540   0.31671   0.00000  Uiso   1.00
O454   O     0.14468   0.83126   0.18329   0.00000  Uiso   1.00
O455   O     0.29288   0.77560   0.46395   0.00000  Uiso   1.00
C456   C     0.27719   0.72054   0.45530   0.00000  Uiso   1.00
H457   H     0.30700   0.69990   0.46785   0.00000  Uiso   1.00
H458   H     0.28252   0.71131   0.41952   0.00000  Uiso   1.00
C459   C     0.20892   0.69954   0.47853   0.00000  Uiso   1.00
H460   H     0.17784   0.71878   0.46620   0.00000  Uiso   1.00
H461   H     0.19574   0.98944   0.47236   0.00000  Uiso   1.00
H462   H     0.20218   0.70807   0.01439   0.00000  Uiso   1.00
O463   O     0.03374   0.91744   0.03987   0.00000  Uiso   1.00
C464   C     0.05469   0.96342   0.06457   0.00000  Uiso   1.00
H465   H     0.01827   0.97398   0.09313   0.00000  Uiso   1.00
H466   H     0.06975   0.99747   0.04265   0.00000  Uiso   1.00
C467   C     0.11145   0.95752   0.07998   0.00000  Uiso   1.00
H468   H     0.14926   0.95010   0.05138   0.00000  Uiso   1.00
H469   H     0.12952   0.99438   0.09781   0.00000  Uiso   1.00
H470   H     0.09840   0.92396   0.10220   0.00000  Uiso   1.00
C471   C     0.33141   0.87329   0.30032   0.00000  Uiso   1.00
H472   H     0.03317   0.90983   0.29835   0.00000  Uiso   1.00
O473   O     0.30350   0.85608   0.33628   0.00000  Uiso   1.00
C474   C     0.00238   0.79430   0.19927   0.00000  Uiso   1.00
H475   H     0.30075   0.75770   0.20065   0.00000  Uiso   1.00
O476   O     0.03016   0.81267   0.16367   0.00000  Uiso   1.00
C477   C     0.51511   0.93335   0.25133   0.00000  Uiso   1.00
C478   C     0.48493   0.73331   0.24857   0.00000  Uiso   1.00
C479   C     0.42497   0.80952   0.04129   0.00000  Uiso   1.00
C480   C     0.56770   0.88115   0.46396   0.00000  Uiso   1.00
C481   C     0.38174   0.79754   0.01554   0.00000  Uiso   1.00
C482   C     0.61049   0.89468   0.49003   0.00000  Uiso   1.00
C483   C     0.52338   0.98953   0.25200   0.00000  Uiso   1.00
C484   C     0.47674   0.67713   0.24777   0.00000  Uiso   1.00
C485   C     0.46160   0.82955   0.33307   0.00000  Uiso   1.00
C486   C     0.53841   0.83750   0.16700   0.00000  Uiso   1.00
C487   C     0.43830   0.82536   0.38085   0.00000  Uiso   1.00
C488   C     0.56163   0.84605   0.11978   0.00000  Uiso   1.00
C489   C     0.35585   0.79466   0.44500   0.00000  Uiso   1.00
C490   C     0.63924   0.89160   0.05884   0.00000  Uiso   1.00
C491   C     0.37527   0.80380   0.40004   0.00000  Uiso   1.00
C492   C     0.62219   0.87495   0.10226   0.00000  Uiso   1.00
C493   C     0.48111   0.84098   0.40722   0.00000  Uiso   1.00
C494   C     0.51935   0.83012   0.09318   0.00000  Uiso   1.00
C495   C     0.46307   0.83413   0.45265   0.00000  Uiso   1.00
C496   C     0.53356   0.84706   0.05014   0.00000  Uiso   1.00
C497   C     0.39988   0.80894   0.47123   0.00000  Uiso   1.00
C498   C     0.59479   0.87758   0.03285   0.00000  Uiso   1.00
C499   C     0.50674   0.84990   0.47967   0.00000  Uiso   1.00
C500   C     0.48839   0.83485   0.02407   0.00000  Uiso   1.00
Cu501  Cu    0.44071   0.82775   0.24517   0.00000  Uiso   1.00
Cu502  Cu    0.55929   0.83892   0.25484   0.00000  Uiso   1.00
H503   H     0.33374   0.77855   0.03064   0.00000  Uiso   1.00
H504   H     0.65634   0.91894   0.47624   0.00000  Uiso   1.00
H505   H     0.47521   0.80449   0.10736   0.00000  Uiso   1.00
H506   H     0.52915   0.85674   0.39112   0.00000  Uiso   1.00
H507   H     0.65551   0.88569   0.12263   0.00000  Uiso   1.00
H508   H     0.34137   0.79249   0.38011   0.00000  Uiso   1.00
H509   H     0.40610   0.79968   0.07511   0.00000  Uiso   1.00
H510   H     0.58351   0.89756   0.43191   0.00000  Uiso   1.00
H511   H     0.56809   0.68039   0.25605   0.00000  Uiso   1.00
H512   H     0.43203   0.98628   0.24368   0.00000  Uiso   1.00
N513   N     0.64839   0.84735   0.26212   0.00000  Uiso   1.00
N514   N     0.35161   0.81932   0.23788   0.00000  Uiso   1.00
O515   O     0.46148   0.90476   0.24686   0.00000  Uiso   1.00
O516   O     0.53852   0.76191   0.25314   0.00000  Uiso   1.00
O517   O     0.56163   0.91420   0.25503   0.00000  Uiso   1.00
O518   O     0.43837   0.75247   0.24498   0.00000  Uiso   1.00
O519   O     0.42185   0.82597   0.30855   0.00000  Uiso   1.00
O520   O     0.57815   0.84070   0.19146   0.00000  Uiso   1.00
O521   O     0.52199   0.83540   0.31671   0.00000  Uiso   1.00
O522   O     0.47801   0.83126   0.18329   0.00000  Uiso   1.00
O523   O     0.62621   0.77560   0.46395   0.00000  Uiso   1.00
C524   C     0.61052   0.72054   0.45530   0.00000  Uiso   1.00
H525   H     0.64034   0.69990   0.46785   0.00000  Uiso   1.00
H526   H     0.61585   0.71131   0.41952   0.00000  Uiso   1.00
C527   C     0.54225   0.69954   0.47853   0.00000  Uiso   1.00
H528   H     0.51117   0.71878   0.46620   0.00000  Uiso   1.00
H529   H     0.52907   0.98944   0.47236   0.00000  Uiso   1.00
H530   H     0.53551   0.70807   0.01439   0.00000  Uiso   1.00
O531   O     0.36707   0.91744   0.03987   0.00000  Uiso   1.00
C532   C     0.38802   0.96342   0.06457   0.00000  Uiso   1.00
H533   H     0.35160   0.97398   0.09313   0.00000  Uiso   1.00
H534   H     0.40309   0.99747   0.04265   0.00000  Uiso   1.00
C535   C     0.44478   0.95752   0.07998   0.00000  Uiso   1.00
H536   H     0.48260   0.95010   0.05138   0.00000  Uiso   1.00
H537   H     0.46285   0.99438   0.09781   0.00000  Uiso   1.00
H538   H     0.43173   0.92396   0.10220   0.00000  Uiso   1.00
C539   C     0.66475   0.87329   0.30032   0.00000  Uiso   1.00
H540   H     0.36650   0.90983   0.29835   0.00000  Uiso   1.00
O541   O     0.63683   0.85608   0.33628   0.00000  Uiso   1.00
C542   C     0.33571   0.79430   0.19927   0.00000  Uiso   1.00
H543   H     0.63408   0.75770   0.20065   0.00000  Uiso   1.00
O544   O     0.36350   0.81267   0.16367   0.00000  Uiso   1.00
C545   C     0.84845   0.93335   0.25133   0.00000  Uiso   1.00
C546   C     0.81827   0.73331   0.24857   0.00000  Uiso   1.00
C547   C     0.75830   0.80952   0.04129   0.00000  Uiso   1.00
C548   C     0.90104   0.88115   0.46396   0.00000  Uiso   1.00
C549   C     0.71507   0.79754   0.01554   0.00000  Uiso   1.00
C550   C     0.94382   0.89468   0.49003   0.00000  Uiso   1.00
C551   C     0.85671   0.98953   0.25200   0.00000  Uiso   1.00
C552   C     0.81007   0.67713   0.24777   0.00000  Uiso   1.00
C553   C     0.79494   0.82955   0.33307   0.00000  Uiso   1.00
C554   C     0.87174   0.83750   0.16700   0.00000  Uiso   1.00
C555   C     0.77163   0.82536   0.38085   0.00000  Uiso   1.00
C556   C     0.89496   0.84605   0.11978   0.00000  Uiso   1.00
C557   C     0.68918   0.79466   0.44500   0.00000  Uiso   1.00
C558   C     0.97257   0.89160   0.05884   0.00000  Uiso   1.00
C559   C     0.70861   0.80380   0.40004   0.00000  Uiso   1.00
C560   C     0.95552   0.87495   0.10226   0.00000  Uiso   1.00
C561   C     0.81445   0.84098   0.40722   0.00000  Uiso   1.00
C562   C     0.85269   0.83012   0.09318   0.00000  Uiso   1.00
C563   C     0.79640   0.83413   0.45265   0.00000  Uiso   1.00
C564   C     0.86689   0.84706   0.05014   0.00000  Uiso   1.00
C565   C     0.73321   0.80894   0.47123   0.00000  Uiso   1.00
C566   C     0.92812   0.87758   0.03285   0.00000  Uiso   1.00
C567   C     0.84008   0.84990   0.47967   0.00000  Uiso   1.00
C568   C     0.82172   0.83485   0.02407   0.00000  Uiso   1.00
Cu569  Cu    0.77404   0.82775   0.24517   0.00000  Uiso   1.00
Cu570  Cu    0.89263   0.83892   0.25484   0.00000  Uiso   1.00
H571   H     0.66707   0.77855   0.03064   0.00000  Uiso   1.00
H572   H     0.98967   0.91894   0.47624   0.00000  Uiso   1.00
H573   H     0.80854   0.80449   0.10736   0.00000  Uiso   1.00
H574   H     0.86248   0.85674   0.39112   0.00000  Uiso   1.00
H575   H     0.98884   0.88569   0.12263   0.00000  Uiso   1.00
H576   H     0.67470   0.79249   0.38011   0.00000  Uiso   1.00
H577   H     0.73944   0.79968   0.07511   0.00000  Uiso   1.00
H578   H     0.91684   0.89756   0.43191   0.00000  Uiso   1.00
H579   H     0.90143   0.68039   0.25605   0.00000  Uiso   1.00
H580   H     0.76537   0.98628   0.24368   0.00000  Uiso   1.00
N581   N     0.98173   0.84735   0.26212   0.00000  Uiso   1.00
N582   N     0.68494   0.81932   0.23788   0.00000  Uiso   1.00
O583   O     0.79482   0.90476   0.24686   0.00000  Uiso   1.00
O584   O     0.87185   0.76191   0.25314   0.00000  Uiso   1.00
O585   O     0.89496   0.91420   0.25503   0.00000  Uiso   1.00
O586   O     0.77171   0.75247   0.24498   0.00000  Uiso   1.00
O587   O     0.75518   0.82597   0.30855   0.00000  Uiso   1.00
O588   O     0.91149   0.84070   0.19146   0.00000  Uiso   1.00
O589   O     0.85532   0.83540   0.31671   0.00000  Uiso   1.00
O590   O     0.81134   0.83126   0.18329   0.00000  Uiso   1.00
O591   O     0.95955   0.77560   0.46395   0.00000  Uiso   1.00
C592   C     0.94386   0.72054   0.45530   0.00000  Uiso   1.00
H593   H     0.97367   0.69990   0.46785   0.00000  Uiso   1.00
H594   H     0.94919   0.71131   0.41952   0.00000  Uiso   1.00
C595   C     0.87559   0.69954   0.47853   0.00000  Uiso   1.00
H596   H     0.84450   0.71878   0.46620   0.00000  Uiso   1.00
H597   H     0.86241   0.98944   0.47236   0.00000  Uiso   1.00
H598   H     0.86885   0.70807   0.01439   0.00000  Uiso   1.00
O599   O     0.70041   0.91744   0.03987   0.00000  Uiso   1.00
C600   C     0.72136   0.96342   0.06457   0.00000  Uiso   1.00
H601   H     0.68494   0.97398   0.09313   0.00000  Uiso   1.00
H602   H     0.73642   0.99747   0.04265   0.00000  Uiso   1.00
C603   C     0.77811   0.95752   0.07998   0.00000  Uiso   1.00
H604   H     0.81593   0.95010   0.05138   0.00000  Uiso   1.00
H605   H     0.79618   0.99438   0.09781   0.00000  Uiso   1.00
H606   H     0.76507   0.92396   0.10220   0.00000  Uiso   1.00
C607   C     0.99808   0.87329   0.30032   0.00000  Uiso   1.00
H608   H     0.69983   0.90983   0.29835   0.00000  Uiso   1.00
O609   O     0.97016   0.85608   0.33628   0.00000  Uiso   1.00
C610   C     0.66905   0.79430   0.19927   0.00000  Uiso   1.00
H611   H     0.96741   0.75770   0.20065   0.00000  Uiso   1.00
O612   O     0.69683   0.81267   0.16367   0.00000  Uiso   1.00
C613   C     0.18178   0.26668   0.75133   0.00000  Uiso   1.00
C614   C     0.15160   0.06665   0.74857   0.00000  Uiso   1.00
C615   C     0.09164   0.14286   0.54129   0.00000  Uiso   1.00
C616   C     0.23437   0.21448   0.96396   0.00000  Uiso   1.00
C617   C     0.04841   0.13087   0.51554   0.00000  Uiso   1.00
C618   C     0.27715   0.22802   0.99003   0.00000  Uiso   1.00
C619   C     0.19004   0.32286   0.75200   0.00000  Uiso   1.00
C620   C     0.14340   0.01047   0.74777   0.00000  Uiso   1.00
C621   C     0.12827   0.16288   0.83307   0.00000  Uiso   1.00
C622   C     0.20508   0.17084   0.66700   0.00000  Uiso   1.00
C623   C     0.10496   0.15869   0.88085   0.00000  Uiso   1.00
C624   C     0.22830   0.17938   0.61978   0.00000  Uiso   1.00
C625   C     0.02252   0.12799   0.94500   0.00000  Uiso   1.00
C626   C     0.30591   0.22493   0.55884   0.00000  Uiso   1.00
C627   C     0.04194   0.13713   0.90004   0.00000  Uiso   1.00
C628   C     0.28886   0.20829   0.60226   0.00000  Uiso   1.00
C629   C     0.14778   0.17432   0.90722   0.00000  Uiso   1.00
C630   C     0.18602   0.16345   0.59318   0.00000  Uiso   1.00
C631   C     0.12973   0.16746   0.95265   0.00000  Uiso   1.00
C632   C     0.20022   0.18039   0.55014   0.00000  Uiso   1.00
C633   C     0.06654   0.14227   0.97123   0.00000  Uiso   1.00
C634   C     0.26145   0.21091   0.53285   0.00000  Uiso   1.00
C635   C     0.17341   0.18323   0.97967   0.00000  Uiso   1.00
C636   C     0.15505   0.16818   0.52407   0.00000  Uiso   1.00
Cu637  Cu    0.10737   0.16108   0.74517   0.00000  Uiso   1.00
Cu638  Cu    0.22596   0.17225   0.75484   0.00000  Uiso   1.00
H639   H     0.00041   0.11188   0.53064   0.00000  Uiso   1.00
H640   H     0.32301   0.25227   0.97624   0.00000  Uiso   1.00
H641   H     0.14188   0.13782   0.60736   0.00000  Uiso   1.00
H642   H     0.19582   0.19007   0.89112   0.00000  Uiso   1.00
H643   H     0.32218   0.21903   0.62263   0.00000  Uiso   1.00
H644   H     0.00803   0.12583   0.88011   0.00000  Uiso   1.00
H645   H     0.07277   0.13301   0.57511   0.00000  Uiso   1.00
H646   H     0.25018   0.23090   0.93191   0.00000  Uiso   1.00
H647   H     0.23476   0.01372   0.75605   0.00000  Uiso   1.00
H648   H     0.09870   0.31961   0.74368   0.00000  Uiso   1.00
N649   N     0.31506   0.18068   0.76212   0.00000  Uiso   1.00
N650   N     0.01827   0.15265   0.73788   0.00000  Uiso   1.00
O651   O     0.12815   0.23809   0.74686   0.00000  Uiso   1.00
O652   O     0.20518   0.09524   0.75314   0.00000  Uiso   1.00
O653   O     0.22829   0.24753   0.75503   0.00000  Uiso   1.00
O654   O     0.10504   0.08580   0.74498   0.00000  Uiso   1.00
O655   O     0.08851   0.15930   0.80855   0.00000  Uiso   1.00
O656   O     0.24482   0.17403   0.69146   0.00000  Uiso   1.00
O657   O     0.18866   0.16874   0.81671   0.00000  Uiso   1.00
O658   O     0.14468   0.16460   0.68329   0.00000  Uiso   1.00
O659   O     0.29288   0.10894   0.96395   0.00000  Uiso   1.00
C660   C     0.27719   0.05387   0.95530   0.00000  Uiso   1.00
H661   H     0.30700   0.03323   0.96785   0.00000  Uiso   1.00
H662   H     0.28252   0.04465   0.91952   0.00000  Uiso   1.00
C663   C     0.20892   0.03287   0.97853   0.00000  Uiso   1.00
H664   H     0.17784   0.05212   0.96620   0.00000  Uiso   1.00
H665   H     0.19574   0.32277   0.97236   0.00000  Uiso   1.00
H666   H     0.20218   0.04141   0.51439   0.00000  Uiso   1.00
O667   O     0.03374   0.25077   0.53987   0.00000  Uiso   1.00
C668   C     0.05469   0.29675   0.56457   0.00000  Uiso   1.00
H669   H     0.01827   0.30731   0.59313   0.00000  Uiso   1.00
H670   H     0.06975   0.33080   0.54265   0.00000  Uiso   1.00
C671   C     0.11145   0.29086   0.57998   0.00000  Uiso   1.00
H672   H     0.14926   0.28343   0.55138   0.00000  Uiso   1.00
H673   H     0.12952   0.32772   0.59781   0.00000  Uiso   1.00
H674   H     0.09840   0.25729   0.60220   0.00000  Uiso   1.00
C675   C     0.33141   0.20662   0.80032   0.00000  Uiso   1.00
H676   H     0.03317   0.24317   0.79835   0.00000  Uiso   1.00
O677   O     0.30350   0.18941   0.83628   0.00000  Uiso   1.00
C678   C     0.00238   0.12764   0.69927   0.00000  Uiso   1.00
H679   H     0.30075   0.09104   0.70065   0.00000  Uiso   1.00
O680   O     0.03016   0.14600   0.66367   0.00000  Uiso   1.00
C681   C     0.51511   0.26668   0.75133   0.00000  Uiso   1.00
C682   C     0.48493   0.06665   0.74857   0.00000  Uiso   1.00
C683   C     0.42497   0.14286   0.54129   0.00000  Uiso   1.00
C684   C     0.56770   0.21448   0.96396   0.00000  Uiso   1.00
C685   C     0.38174   0.13087   0.51554   0.00000  Uiso   1.00
C686   C     0.61049   0.22802   0.99003   0.00000  Uiso   1.00
C687   C     0.52338   0.32286   0.75200   0.00000  Uiso   1.00
C688   C     0.47674   0.01047   0.74777   0.00000  Uiso   1.00
C689   C     0.46160   0.16288   0.83307   0.00000  Uiso   1.00
C690   C     0.53841   0.17084   0.66700   0.00000  Uiso   1.00
C691   C     0.43830   0.15869   0.88085   0.00000  Uiso   1.00
C692   C     0.56163   0.17938   0.61978   0.00000  Uiso   1.00
C693   C     0.35585   0.12799   0.94500   0.00000  Uiso   1.00
C694   C     0.63924   0.22493   0.55884   0.00000  Uiso   1.00
C695   C     0.37527   0.13713   0.90004   0.00000  Uiso   1.00
C696   C     0.62219   0.20829   0.60226   0.00000  Uiso   1.00
C697   C     0.48111   0.17432   0.90722   0.00000  Uiso   1.00
C698   C     0.51935   0.16345   0.59318   0.00000  Uiso   1.00
C699   C     0.46307   0.16746   0.95265   0.00000  Uiso   1.00
C700   C     0.53356   0.18039   0.55014   0.00000  Uiso   1.00
C701   C     0.39988   0.14227   0.97123   0.00000  Uiso   1.00
C702   C     0.59479   0.21091   0.53285   0.00000  Uiso   1.00
C703   C     0.50674   0.18323   0.97967   0.00000  Uiso   1.00
C704   C     0.48839   0.16818   0.52407   0.00000  Uiso   1.00
Cu705  Cu    0.44071   0.16108   0.74517   0.00000  Uiso   1.00
Cu706  Cu    0.55929   0.17225   0.75484   0.00000  Uiso   1.00
H707   H     0.33374   0.11188   0.53064   0.00000  Uiso   1.00
H708   H     0.65634   0.25227   0.97624   0.00000  Uiso   1.00
H709   H     0.47521   0.13782   0.60736   0.00000  Uiso   1.00
H710   H     0.52915   0.19007   0.89112   0.00000  Uiso   1.00
H711   H     0.65551   0.21903   0.62263   0.00000  Uiso   1.00
H712   H     0.34137   0.12583   0.88011   0.00000  Uiso   1.00
H713   H     0.40610   0.13301   0.57511   0.00000  Uiso   1.00
H714   H     0.58351   0.23090   0.93191   0.00000  Uiso   1.00
H715   H     0.56809   0.01372   0.75605   0.00000  Uiso   1.00
H716   H     0.43203   0.31961   0.74368   0.00000  Uiso   1.00
N717   N     0.64839   0.18068   0.76212   0.00000  Uiso   1.00
N718   N     0.35161   0.15265   0.73788   0.00000  Uiso   1.00
O719   O     0.46148   0.23809   0.74686   0.00000  Uiso   1.00
O720   O     0.53852   0.09524   0.75314   0.00000  Uiso   1.00
O721   O     0.56163   0.24753   0.75503   0.00000  Uiso   1.00
O722   O     0.43837   0.08580   0.74498   0.00000  Uiso   1.00
O723   O     0.42185   0.15930   0.80855   0.00000  Uiso   1.00
O724   O     0.57815   0.17403   0.69146   0.00000  Uiso   1.00
O725   O     0.52199   0.16874   0.81671   0.00000  Uiso   1.00
O726   O     0.47801   0.16460   0.68329   0.00000  Uiso   1.00
O727   O     0.62621   0.10894   0.96395   0.00000  Uiso   1.00
C728   C     0.61052   0.05387   0.95530   0.00000  Uiso   1.00
H729   H     0.64034   0.03323   0.96785   0.00000  Uiso   1.00
H730   H     0.61585   0.04465   0.91952   0.00000  Uiso   1.00
C731   C     0.54225   0.03287   0.97853   0.00000  Uiso   1.00
H732   H     0.51117   0.05212   0.96620   0.00000  Uiso   1.00
H733   H     0.52907   0.32277   0.97236   0.00000  Uiso   1.00
H734   H     0.53551   0.04141   0.51439   0.00000  Uiso   1.00
O735   O     0.36707   0.25077   0.53987   0.00000  Uiso   1.00
C736   C     0.38802   0.29675   0.56457   0.00000  Uiso   1.00
H737   H     0.35160   0.30731   0.59313   0.00000  Uiso   1.00
H738   H     0.40309   0.33080   0.54265   0.00000  Uiso   1.00
C739   C     0.44478   0.29086   0.57998   0.00000  Uiso   1.00
H740   H     0.48260   0.28343   0.55138   0.00000  Uiso   1.00
H741   H     0.46285   0.32772   0.59781   0.00000  Uiso   1.00
H742   H     0.43173   0.25729   0.60220   0.00000  Uiso   1.00
C743   C     0.66475   0.20662   0.80032   0.00000  Uiso   1.00
H744   H     0.36650   0.24317   0.79835   0.00000  Uiso   1.00
O745   O     0.63683   0.18941   0.83628   0.00000  Uiso   1.00
C746   C     0.33571   0.12764   0.69927   0.00000  Uiso   1.00
H747   H     0.63408   0.09104   0.70065   0.00000  Uiso   1.00
O748   O     0.36350   0.14600   0.66367   0.00000  Uiso   1.00
C749   C     0.84845   0.26668   0.75133   0.00000  Uiso   1.00
C750   C     0.81827   0.06665   0.74857   0.00000  Uiso   1.00
C751   C     0.75830   0.14286   0.54129   0.00000  Uiso   1.00
C752   C     0.90104   0.21448   0.96396   0.00000  Uiso   1.00
C753   C     0.71507   0.13087   0.51554   0.00000  Uiso   1.00
C754   C     0.94382   0.22802   0.99003   0.00000  Uiso   1.00
C755   C     0.85671   0.32286   0.75200   0.00000  Uiso   1.00
C756   C     0.81007   0.01047   0.74777   0.00000  Uiso   1.00
C757   C     0.79494   0.16288   0.83307   0.00000  Uiso   1.00
C758   C     0.87174   0.17084   0.66700   0.00000  Uiso   1.00
C759   C     0.77163   0.15869   0.88085   0.00000  Uiso   1.00
C760   C     0.89496   0.17938   0.61978   0.00000  Uiso   1.00
C761   C     0.68918   0.12799   0.94500   0.00000  Uiso   1.00
C762   C     0.97257   0.22493   0.55884   0.00000  Uiso   1.00
C763   C     0.70861   0.13713   0.90004   0.00000  Uiso   1.00
C764   C     0.95552   0.20829   0.60226   0.00000  Uiso   1.00
C765   C     0.81445   0.17432   0.90722   0.00000  Uiso   1.00
C766   C     0.85269   0.16345   0.59318   0.00000  Uiso   1.00
C767   C     0.79640   0.16746   0.95265   0.00000  Uiso   1.00
C768   C     0.86689   0.18039   0.55014   0.00000  Uiso   1.00
C769   C     0.73321   0.14227   0.97123   0.00000  Uiso   1.00
C770   C     0.92812   0.21091   0.53285   0.00000  Uiso   1.00
C771   C     0.84008   0.18323   0.97967   0.00000  Uiso   1.00
C772   C     0.82172   0.16818   0.52407   0.00000  Uiso   1.00
Cu773  Cu    0.77404   0.16108   0.74517   0.00000  Uiso   1.00
Cu774  Cu    0.89263   0.17225   0.75484   0.00000  Uiso   1.00
H775   H     0.66707   0.11188   0.53064   0.00000  Uiso   1.00
H776   H     0.98967   0.25227   0.97624   0.00000  Uiso   1.00
H777   H     0.80854   0.13782   0.60736   0.00000  Uiso   1.00
H778   H     0.86248   0.19007   0.89112   0.00000  Uiso   1.00
H779   H     0.98884   0.21903   0.62263   0.00000  Uiso   1.00
H780   H     0.67470   0.12583   0.88011   0.00000  Uiso   1.00
H781   H     0.73944   0.13301   0.57511   0.00000  Uiso   1.00
H782   H     0.91684   0.23090   0.93191   0.00000  Uiso   1.00
H783   H     0.90143   0.01372   0.75605   0.00000  Uiso   1.00
H784   H     0.76537   0.31961   0.74368   0.00000  Uiso   1.00
N785   N     0.98173   0.18068   0.76212   0.00000  Uiso   1.00
N786   N     0.68494   0.15265   0.73788   0.00000  Uiso   1.00
O787   O     0.79482   0.23809   0.74686   0.00000  Uiso   1.00
O788   O     0.87185   0.09524   0.75314   0.00000  Uiso   1.00
O789   O     0.89496   0.24753   0.75503   0.00000  Uiso   1.00
O790   O     0.77171   0.08580   0.74498   0.00000  Uiso   1.00
O791   O     0.75518   0.15930   0.80855   0.00000  Uiso   1.00
O792   O     0.91149   0.17403   0.69146   0.00000  Uiso   1.00
O793   O     0.85532   0.16874   0.81671   0.00000  Uiso   1.00
O794   O     0.81134   0.16460   0.68329   0.00000  Uiso   1.00
O795   O     0.95955   0.10894   0.96395   0.00000  Uiso   1.00
C796   C     0.94386   0.05387   0.95530   0.00000  Uiso   1.00
H797   H     0.97367   0.03323   0.96785   0.00000  Uiso   1.00
H798   H     0.94919   0.04465   0.91952   0.00000  Uiso   1.00
C799   C     0.87559   0.03287   0.97853   0.00000  Uiso   1.00
H800   H     0.84450   0.05212   0.96620   0.00000  Uiso   1.00
H801   H     0.86241   0.32277   0.97236   0.00000  Uiso   1.00
H802   H     0.86885   0.04141   0.51439   0.00000  Uiso   1.00
O803   O     0.70041   0.25077   0.53987   0.00000  Uiso   1.00
C804   C     0.72136   0.29675   0.56457   0.00000  Uiso   1.00
H805   H     0.68494   0.30731   0.59313   0.00000  Uiso   1.00
H806   H     0.73642   0.33080   0.54265   0.00000  Uiso   1.00
C807   C     0.77811   0.29086   0.57998   0.00000  Uiso   1.00
H808   H     0.81593   0.28343   0.55138   0.00000  Uiso   1.00
H809   H     0.79618   0.32772   0.59781   0.00000  Uiso   1.00
H810   H     0.76507   0.25729   0.60220   0.00000  Uiso   1.00
C811   C     0.99808   0.20662   0.80032   0.00000  Uiso   1.00
H812   H     0.69983   0.24317   0.79835   0.00000  Uiso   1.00
O813   O     0.97016   0.18941   0.83628   0.00000  Uiso   1.00
C814   C     0.66905   0.12764   0.69927   0.00000  Uiso   1.00
H815   H     0.96741   0.09104   0.70065   0.00000  Uiso   1.00
O816   O     0.69683   0.14600   0.66367   0.00000  Uiso   1.00
C817   C     0.18178   0.60002   0.75133   0.00000  Uiso   1.00
C818   C     0.15160   0.39998   0.74857   0.00000  Uiso   1.00
C819   C     0.09164   0.47619   0.54129   0.00000  Uiso   1.00
C820   C     0.23437   0.54781   0.96396   0.00000  Uiso   1.00
C821   C     0.04841   0.46420   0.51554   0.00000  Uiso   1.00
C822   C     0.27715   0.56135   0.99003   0.00000  Uiso   1.00
C823   C     0.19004   0.65620   0.75200   0.00000  Uiso   1.00
C824   C     0.14340   0.34380   0.74777   0.00000  Uiso   1.00
C825   C     0.12827   0.49622   0.83307   0.00000  Uiso   1.00
C826   C     0.20508   0.50417   0.66700   0.00000  Uiso   1.00
C827   C     0.10496   0.49203   0.88085   0.00000  Uiso   1.00
C828   C     0.22830   0.51271   0.61978   0.00000  Uiso   1.00
C829   C     0.02252   0.46132   0.94500   0.00000  Uiso   1.00
C830   C     0.30591   0.55827   0.55884   0.00000  Uiso   1.00
C831   C     0.04194   0.47047   0.90004   0.00000  Uiso   1.00
C832   C     0.28886   0.54162   0.60226   0.00000  Uiso   1.00
C833   C     0.14778   0.50765   0.90722   0.00000  Uiso   1.00
C834   C     0.18602   0.49678   0.59318   0.00000  Uiso   1.00
C835   C     0.12973   0.50079   0.95265   0.00000  Uiso   1.00
C836   C     0.20022   0.51373   0.55014   0.00000  Uiso   1.00
C837   C     0.06654   0.47561   0.97123   0.00000  Uiso   1.00
C838   C     0.26145   0.54424   0.53285   0.00000  Uiso   1.00
C839   C     0.17341   0.51656   0.97967   0.00000  Uiso   1.00
C840   C     0.15505   0.50152   0.52407   0.00000  Uiso   1.00
Cu841  Cu    0.10737   0.49441   0.74517   0.00000  Uiso   1.00
Cu842  Cu    0.22596   0.50559   0.75484   0.00000  Uiso   1.00
H843   H     0.00041   0.44522   0.53064   0.00000  Uiso   1.00
H844   H     0.32301   0.58561   0.97624   0.00000  Uiso   1.00
H845   H     0.14188   0.47116   0.60736   0.00000  Uiso   1.00
H846   H     0.19582   0.52340   0.89112   0.00000  Uiso   1.00
H847   H     0.32218   0.55236   0.62263   0.00000  Uiso   1.00
H848   H     0.00803   0.45916   0.88011   0.00000  Uiso   1.00
H849   H     0.07277   0.46634   0.57511   0.00000  Uiso   1.00
H850   H     0.25018   0.56423   0.93191   0.00000  Uiso   1.00
H851   H     0.23476   0.34706   0.75605   0.00000  Uiso   1.00
H852   H     0.09870   0.65294   0.74368   0.00000  Uiso   1.00
N853   N     0.31506   0.51401   0.76212   0.00000  Uiso   1.00
N854   N     0.01827   0.48599   0.73788   0.00000  Uiso   1.00
O855   O     0.12815   0.57142   0.74686   0.00000  Uiso   1.00
O856   O     0.20518   0.42858   0.75314   0.00000  Uiso   1.00
O857   O     0.22829   0.58086   0.75503   0.00000  Uiso   1.00
O858   O     0.10504   0.41914   0.74498   0.00000  Uiso   1.00
O859   O     0.08851   0.49263   0.80855   0.00000  Uiso   1.00
O860   O     0.24482   0.50737   0.69146   0.00000  Uiso   1.00
O861   O     0.18866   0.50207   0.81671   0.00000  Uiso   1.00
O862   O     0.14468   0.49793   0.68329   0.00000  Uiso   1.00
O863   O     0.29288   0.44227   0.96395   0.00000  Uiso   1.00
C864   C     0.27719   0.38720   0.95530   0.00000  Uiso   1.00
H865   H     0.30700   0.36656   0.96785   0.00000  Uiso   1.00
H866   H     0.28252   0.37798   0.91952   0.00000  Uiso   1.00
C867   C     0.20892   0.36621   0.97853   0.00000  Uiso   1.00
H868   H     0.17784   0.38545   0.96620   0.00000  Uiso   1.00
H869   H     0.19574   0.65611   0.97236   0.00000  Uiso   1.00
H870   H     0.20218   0.37474   0.51439   0.00000  Uiso   1.00
O871   O     0.03374   0.58411   0.53987   0.00000  Uiso   1.00
C872   C     0.05469   0.63009   0.56457   0.00000  Uiso   1.00
H873   H     0.01827   0.64065   0.59313   0.00000  Uiso   1.00
H874   H     0.06975   0.66413   0.54265   0.00000  Uiso   1.00
C875   C     0.11145   0.62419   0.57998   0.00000  Uiso   1.00
H876   H     0.14926   0.61676   0.55138   0.00000  Uiso   1.00
H877   H     0.12952   0.66105   0.59781   0.00000  Uiso   1.00
H878   H     0.09840   0.59063   0.60220   0.00000  Uiso   1.00
C879   C     0.33141   0.53996   0.80032   0.00000  Uiso   1.00
H880   H     0.03317   0.57650   0.79835   0.00000  Uiso   1.00
O881   O     0.30350   0.52274   0.83628   0.00000  Uiso   1.00
C882   C     0.00238   0.46097   0.69927   0.00000  Uiso   1.00
H883   H     0.30075   0.42437   0.70065   0.00000  Uiso   1.00
O884   O     0.03016   0.47934   0.66367   0.00000  Uiso   1.00
C885   C     0.51511   0.60002   0.75133   0.00000  Uiso   1.00
C886   C     0.48493   0.39998   0.74857   0.00000  Uiso   1.00
C887   C     0.42497   0.47619   0.54129   0.00000  Uiso   1.00
C888   C     0.56770   0.54781   0.96396   0.00000  Uiso   1.00
C889   C     0.38174   0.46420   0.51554   0.00000  Uiso   1.00
C890   C     0.61049   0.56135   0.99003   0.00000  Uiso   1.00
C891   C     0.52338   0.65620   0.75200   0.00000  Uiso   1.00
C892   C     0.47674   0.34380   0.74777   0.00000  Uiso   1.00
C893   C     0.46160   0.49622   0.83307   0.00000  Uiso   1.00
C894   C     0.53841   0.50417   0.66700   0.00000  Uiso   1.00
C895   C     0.43830   0.49203   0.88085   0.00000  Uiso   1.00
C896   C     0.56163   0.51271   0.61978   0.00000  Uiso   1.00
C897   C     0.35585   0.46132   0.94500   0.00000  Uiso   1.00
C898   C     0.63924   0.55827   0.55884   0.00000  Uiso   1.00
C899   C     0.37527   0.47047   0.90004   0.00000  Uiso   1.00
C900   C     0.62219   0.54162   0.60226   0.00000  Uiso   1.00
C901   C     0.48111   0.50765   0.90722   0.00000  Uiso   1.00
C902   C     0.51935   0.49678   0.59318   0.00000  Uiso   1.00
C903   C     0.46307   0.50079   0.95265   0.00000  Uiso   1.00
C904   C     0.53356   0.51373   0.55014   0.00000  Uiso   1.00
C905   C     0.39988   0.47561   0.97123   0.00000  Uiso   1.00
C906   C     0.59479   0.54424   0.53285   0.00000  Uiso   1.00
C907   C     0.50674   0.51656   0.97967   0.00000  Uiso   1.00
C908   C     0.48839   0.50152   0.52407   0.00000  Uiso   1.00
Cu909  Cu    0.44071   0.49441   0.74517   0.00000  Uiso   1.00
Cu910  Cu    0.55929   0.50559   0.75484   0.00000  Uiso   1.00
H911   H     0.33374   0.44522   0.53064   0.00000  Uiso   1.00
H912   H     0.65634   0.58561   0.97624   0.00000  Uiso   1.00
H913   H     0.47521   0.47116   0.60736   0.00000  Uiso   1.00
H914   H     0.52915   0.52340   0.89112   0.00000  Uiso   1.00
H915   H     0.65551   0.55236   0.62263   0.00000  Uiso   1.00
H916   H     0.34137   0.45916   0.88011   0.00000  Uiso   1.00
H917   H     0.40610   0.46634   0.57511   0.00000  Uiso   1.00
H918   H     0.58351   0.56423   0.93191   0.00000  Uiso   1.00
H919   H     0.56809   0.34706   0.75605   0.00000  Uiso   1.00
H920   H     0.43203   0.65294   0.74368   0.00000  Uiso   1.00
N921   N     0.64839   0.51401   0.76212   0.00000  Uiso   1.00
N922   N     0.35161   0.48599   0.73788   0.00000  Uiso   1.00
O923   O     0.46148   0.57142   0.74686   0.00000  Uiso   1.00
O924   O     0.53852   0.42858   0.75314   0.00000  Uiso   1.00
O925   O     0.56163   0.58086   0.75503   0.00000  Uiso   1.00
O926   O     0.43837   0.41914   0.74498   0.00000  Uiso   1.00
O927   O     0.42185   0.49263   0.80855   0.00000  Uiso   1.00
O928   O     0.57815   0.50737   0.69146   0.00000  Uiso   1.00
O929   O     0.52199   0.50207   0.81671   0.00000  Uiso   1.00
O930   O     0.47801   0.49793   0.68329   0.00000  Uiso   1.00
O931   O     0.62621   0.44227   0.96395   0.00000  Uiso   1.00
C932   C     0.61052   0.38720   0.95530   0.00000  Uiso   1.00
H933   H     0.64034   0.36656   0.96785   0.00000  Uiso   1.00
H934   H     0.61585   0.37798   0.91952   0.00000  Uiso   1.00
C935   C     0.54225   0.36621   0.97853   0.00000  Uiso   1.00
H936   H     0.51117   0.38545   0.96620   0.00000  Uiso   1.00
H937   H     0.52907   0.65611   0.97236   0.00000  Uiso   1.00
H938   H     0.53551   0.37474   0.51439   0.00000  Uiso   1.00
O939   O     0.36707   0.58411   0.53987   0.00000  Uiso   1.00
C940   C     0.38802   0.63009   0.56457   0.00000  Uiso   1.00
H941   H     0.35160   0.64065   0.59313   0.00000  Uiso   1.00
H942   H     0.40309   0.66413   0.54265   0.00000  Uiso   1.00
C943   C     0.44478   0.62419   0.57998   0.00000  Uiso   1.00
H944   H     0.48260   0.61676   0.55138   0.00000  Uiso   1.00
H945   H     0.46285   0.66105   0.59781   0.00000  Uiso   1.00
H946   H     0.43173   0.59063   0.60220   0.00000  Uiso   1.00
C947   C     0.66475   0.53996   0.80032   0.00000  Uiso   1.00
H948   H     0.36650   0.57650   0.79835   0.00000  Uiso   1.00
O949   O     0.63683   0.52274   0.83628   0.00000  Uiso   1.00
C950   C     0.33571   0.46097   0.69927   0.00000  Uiso   1.00
H951   H     0.63408   0.42437   0.70065   0.00000  Uiso   1.00
O952   O     0.36350   0.47934   0.66367   0.00000  Uiso   1.00
C953   C     0.84845   0.60002   0.75133   0.00000  Uiso   1.00
C954   C     0.81827   0.39998   0.74857   0.00000  Uiso   1.00
C955   C     0.75830   0.47619   0.54129   0.00000  Uiso   1.00
C956   C     0.90104   0.54781   0.96396   0.00000  Uiso   1.00
C957   C     0.71507   0.46420   0.51554   0.00000  Uiso   1.00
C958   C     0.94382   0.56135   0.99003   0.00000  Uiso   1.00
C959   C     0.85671   0.65620   0.75200   0.00000  Uiso   1.00
C960   C     0.81007   0.34380   0.74777   0.00000  Uiso   1.00
C961   C     0.79494   0.49622   0.83307   0.00000  Uiso   1.00
C962   C     0.87174   0.50417   0.66700   0.00000  Uiso   1.00
C963   C     0.77163   0.49203   0.88085   0.00000  Uiso   1.00
C964   C     0.89496   0.51271   0.61978   0.00000  Uiso   1.00
C965   C     0.68918   0.46132   0.94500   0.00000  Uiso   1.00
C966   C     0.97257   0.55827   0.55884   0.00000  Uiso   1.00
C967   C     0.70861   0.47047   0.90004   0.00000  Uiso   1.00
C968   C     0.95552   0.54162   0.60226   0.00000  Uiso   1.00
C969   C     0.81445   0.50765   0.90722   0.00000  Uiso   1.00
C970   C     0.85269   0.49678   0.59318   0.00000  Uiso   1.00
C971   C     0.79640   0.50079   0.95265   0.00000  Uiso   1.00
C972   C     0.86689   0.51373   0.55014   0.00000  Uiso   1.00
C973   C     0.73321   0.47561   0.97123   0.00000  Uiso   1.00
C974   C     0.92812   0.54424   0.53285   0.00000  Uiso   1.00
C975   C     0.84008   0.51656   0.97967   0.00000  Uiso   1.00
C976   C     0.82172   0.50152   0.52407   0.00000  Uiso   1.00
Cu977  Cu    0.77404   0.49441   0.74517   0.00000  Uiso   1.00
Cu978  Cu    0.89263   0.50559   0.75484   0.00000  Uiso   1.00
H979   H     0.66707   0.44522   0.53064   0.00000  Uiso   1.00
H980   H     0.98967   0.58561   0.97624   0.00000  Uiso   1.00
H981   H     0.80854   0.47116   0.60736   0.00000  Uiso   1.00
H982   H     0.86248   0.52340   0.89112   0.00000  Uiso   1.00
H983   H     0.98884   0.55236   0.62263   0.00000  Uiso   1.00
H984   H     0.67470   0.45916   0.88011   0.00000  Uiso   1.00
H985   H     0.73944   0.46634   0.57511   0.00000  Uiso   1.00
H986   H     0.91684   0.56423   0.93191   0.00000  Uiso   1.00
H987   H     0.90143   0.34706   0.75605   0.00000  Uiso   1.00
H988   H     0.76537   0.65294   0.74368   0.00000  Uiso   1.00
N989   N     0.98173   0.51401   0.76212   0.00000  Uiso   1.00
N990   N     0.68494   0.48599   0.73788   0.00000  Uiso   1.00
O991   O     0.79482   0.57142   0.74686   0.00000  Uiso   1.00
O992   O     0.87185   0.42858   0.75314   0.00000  Uiso   1.00
O993   O     0.89496   0.58086   0.75503   0.00000  Uiso   1.00
O994   O     0.77171   0.41914   0.74498   0.00000  Uiso   1.00
O995   O     0.75518   0.49263   0.80855   0.00000  Uiso   1.00
O996   O     0.91149   0.50737   0.69146   0.00000  Uiso   1.00
O997   O     0.85532   0.50207   0.81671   0.00000  Uiso   1.00
O998   O     0.81134   0.49793   0.68329   0.00000  Uiso   1.00
O999   O     0.95955   0.44227   0.96395   0.00000  Uiso   1.00
C1000  C     0.94386   0.38720   0.95530   0.00000  Uiso   1.00
H1001  H     0.97367   0.36656   0.96785   0.00000  Uiso   1.00
H1002  H     0.94919   0.37798   0.91952   0.00000  Uiso   1.00
C1003  C     0.87559   0.36621   0.97853   0.00000  Uiso   1.00
H1004  H     0.84450   0.38545   0.96620   0.00000  Uiso   1.00
H1005  H     0.86241   0.65611   0.97236   0.00000  Uiso   1.00
H1006  H     0.86885   0.37474   0.51439   0.00000  Uiso   1.00
O1007  O     0.70041   0.58411   0.53987   0.00000  Uiso   1.00
C1008  C     0.72136   0.63009   0.56457   0.00000  Uiso   1.00
H1009  H     0.68494   0.64065   0.59313   0.00000  Uiso   1.00
H1010  H     0.73642   0.66413   0.54265   0.00000  Uiso   1.00
C1011  C     0.77811   0.62419   0.57998   0.00000  Uiso   1.00
H1012  H     0.81593   0.61676   0.55138   0.00000  Uiso   1.00
H1013  H     0.79618   0.66105   0.59781   0.00000  Uiso   1.00
H1014  H     0.76507   0.59063   0.60220   0.00000  Uiso   1.00
C1015  C     0.99808   0.53996   0.80032   0.00000  Uiso   1.00
H1016  H     0.69983   0.57650   0.79835   0.00000  Uiso   1.00
O1017  O     0.97016   0.52274   0.83628   0.00000  Uiso   1.00
C1018  C     0.66905   0.46097   0.69927   0.00000  Uiso   1.00
H1019  H     0.96741   0.42437   0.70065   0.00000  Uiso   1.00
O1020  O     0.69683   0.47934   0.66367   0.00000  Uiso   1.00
C1021  C     0.18178   0.93335   0.75133   0.00000  Uiso   1.00
C1022  C     0.15160   0.73331   0.74857   0.00000  Uiso   1.00
C1023  C     0.09164   0.80952   0.54129   0.00000  Uiso   1.00
C1024  C     0.23437   0.88115   0.96396   0.00000  Uiso   1.00
C1025  C     0.04841   0.79754   0.51554   0.00000  Uiso   1.00
C1026  C     0.27715   0.89468   0.99003   0.00000  Uiso   1.00
C1027  C     0.19004   0.98953   0.75200   0.00000  Uiso   1.00
C1028  C     0.14340   0.67713   0.74777   0.00000  Uiso   1.00
C1029  C     0.12827   0.82955   0.83307   0.00000  Uiso   1.00
C1030  C     0.20508   0.83750   0.66700   0.00000  Uiso   1.00
C1031  C     0.10496   0.82536   0.88085   0.00000  Uiso   1.00
C1032  C     0.22830   0.84605   0.61978   0.00000  Uiso   1.00
C1033  C     0.02252   0.79466   0.94500   0.00000  Uiso   1.00
C1034  C     0.30591   0.89160   0.55884   0.00000  Uiso   1.00
C1035  C     0.04194   0.80380   0.90004   0.00000  Uiso   1.00
C1036  C     0.28886   0.87495   0.60226   0.00000  Uiso   1.00
C1037  C     0.14778   0.84098   0.90722   0.00000  Uiso   1.00
C1038  C     0.18602   0.83012   0.59318   0.00000  Uiso   1.00
C1039  C     0.12973   0.83413   0.95265   0.00000  Uiso   1.00
C1040  C     0.20022   0.84706   0.55014   0.00000  Uiso   1.00
C1041  C     0.06654   0.80894   0.97123   0.00000  Uiso   1.00
C1042  C     0.26145   0.87758   0.53285   0.00000  Uiso   1.00
C1043  C     0.17341   0.84990   0.97967   0.00000  Uiso   1.00
C1044  C     0.15505   0.83485   0.52407   0.00000  Uiso   1.00
Cu1045 Cu    0.10737   0.82775   0.74517   0.00000  Uiso   1.00
Cu1046 Cu    0.22596   0.83892   0.75484   0.00000  Uiso   1.00
H1047  H     0.00041   0.77855   0.53064   0.00000  Uiso   1.00
H1048  H     0.32301   0.91894   0.97624   0.00000  Uiso   1.00
H1049  H     0.14188   0.80449   0.60736   0.00000  Uiso   1.00
H1050  H     0.19582   0.85674   0.89112   0.00000  Uiso   1.00
H1051  H     0.32218   0.88569   0.62263   0.00000  Uiso   1.00
H1052  H     0.00803   0.79249   0.88011   0.00000  Uiso   1.00
H1053  H     0.07277   0.79968   0.57511   0.00000  Uiso   1.00
H1054  H     0.25018   0.89756   0.93191   0.00000  Uiso   1.00
H1055  H     0.23476   0.68039   0.75605   0.00000  Uiso   1.00
H1056  H     0.09870   0.98628   0.74368   0.00000  Uiso   1.00
N1057  N     0.31506   0.84735   0.76212   0.00000  Uiso   1.00
N1058  N     0.01827   0.81932   0.73788   0.00000  Uiso   1.00
O1059  O     0.12815   0.90476   0.74686   0.00000  Uiso   1.00
O1060  O     0.20518   0.76191   0.75314   0.00000  Uiso   1.00
O1061  O     0.22829   0.91420   0.75503   0.00000  Uiso   1.00
O1062  O     0.10504   0.75247   0.74498   0.00000  Uiso   1.00
O1063  O     0.08851   0.82597   0.80855   0.00000  Uiso   1.00
O1064  O     0.24482   0.84070   0.69146   0.00000  Uiso   1.00
O1065  O     0.18866   0.83540   0.81671   0.00000  Uiso   1.00
O1066  O     0.14468   0.83126   0.68329   0.00000  Uiso   1.00
O1067  O     0.29288   0.77560   0.96395   0.00000  Uiso   1.00
C1068  C     0.27719   0.72054   0.95530   0.00000  Uiso   1.00
H1069  H     0.30700   0.69990   0.96785   0.00000  Uiso   1.00
H1070  H     0.28252   0.71131   0.91952   0.00000  Uiso   1.00
C1071  C     0.20892   0.69954   0.97853   0.00000  Uiso   1.00
H1072  H     0.17784   0.71878   0.96620   0.00000  Uiso   1.00
H1073  H     0.19574   0.98944   0.97236   0.00000  Uiso   1.00
H1074  H     0.20218   0.70807   0.51439   0.00000  Uiso   1.00
O1075  O     0.03374   0.91744   0.53987   0.00000  Uiso   1.00
C1076  C     0.05469   0.96342   0.56457   0.00000  Uiso   1.00
H1077  H     0.01827   0.97398   0.59313   0.00000  Uiso   1.00
H1078  H     0.06975   0.99747   0.54265   0.00000  Uiso   1.00
C1079  C     0.11145   0.95752   0.57998   0.00000  Uiso   1.00
H1080  H     0.14926   0.95010   0.55138   0.00000  Uiso   1.00
H1081  H     0.12952   0.99438   0.59781   0.00000  Uiso   1.00
H1082  H     0.09840   0.92396   0.60220   0.00000  Uiso   1.00
C1083  C     0.33141   0.87329   0.80032   0.00000  Uiso   1.00
H1084  H     0.03317   0.90983   0.79835   0.00000  Uiso   1.00
O1085  O     0.30350   0.85608   0.83628   0.00000  Uiso   1.00
C1086  C     0.00238   0.79430   0.69927   0.00000  Uiso   1.00
H1087  H     0.30075   0.75770   0.70065   0.00000  Uiso   1.00
O1088  O     0.03016   0.81267   0.66367   0.00000  Uiso   1.00
C1089  C     0.51511   0.93335   0.75133   0.00000  Uiso   1.00
C1090  C     0.48493   0.73331   0.74857   0.00000  Uiso   1.00
C1091  C     0.42497   0.80952   0.54129   0.00000  Uiso   1.00
C1092  C     0.56770   0.88115   0.96396   0.00000  Uiso   1.00
C1093  C     0.38174   0.79754   0.51554   0.00000  Uiso   1.00
C1094  C     0.61049   0.89468   0.99003   0.00000  Uiso   1.00
C1095  C     0.52338   0.98953   0.75200   0.00000  Uiso   1.00
C1096  C     0.47674   0.67713   0.74777   0.00000  Uiso   1.00
C1097  C     0.46160   0.82955   0.83307   0.00000  Uiso   1.00
C1098  C     0.53841   0.83750   0.66700   0.00000  Uiso   1.00
C1099  C     0.43830   0.82536   0.88085   0.00000  Uiso   1.00
C1100  C     0.56163   0.84605   0.61978   0.00000  Uiso   1.00
C1101  C     0.35585   0.79466   0.94500   0.00000  Uiso   1.00
C1102  C     0.63924   0.89160   0.55884   0.00000  Uiso   1.00
C1103  C     0.37527   0.80380   0.90004   0.00000  Uiso   1.00
C1104  C     0.62219   0.87495   0.60226   0.00000  Uiso   1.00
C1105  C     0.48111   0.84098   0.90722   0.00000  Uiso   1.00
C1106  C     0.51935   0.83012   0.59318   0.00000  Uiso   1.00
C1107  C     0.46307   0.83413   0.95265   0.00000  Uiso   1.00
C1108  C     0.53356   0.84706   0.55014   0.00000  Uiso   1.00
C1109  C     0.39988   0.80894   0.97123   0.00000  Uiso   1.00
C1110  C     0.59479   0.87758   0.53285   0.00000  Uiso   1.00
C1111  C     0.50674   0.84990   0.97967   0.00000  Uiso   1.00
C1112  C     0.48839   0.83485   0.52407   0.00000  Uiso   1.00
Cu1113 Cu    0.44071   0.82775   0.74517   0.00000  Uiso   1.00
Cu1114 Cu    0.55929   0.83892   0.75484   0.00000  Uiso   1.00
H1115  H     0.33374   0.77855   0.53064   0.00000  Uiso   1.00
H1116  H     0.65634   0.91894   0.97624   0.00000  Uiso   1.00
H1117  H     0.47521   0.80449   0.60736   0.00000  Uiso   1.00
H1118  H     0.52915   0.85674   0.89112   0.00000  Uiso   1.00
H1119  H     0.65551   0.88569   0.62263   0.00000  Uiso   1.00
H1120  H     0.34137   0.79249   0.88011   0.00000  Uiso   1.00
H1121  H     0.40610   0.79968   0.57511   0.00000  Uiso   1.00
H1122  H     0.58351   0.89756   0.93191   0.00000  Uiso   1.00
H1123  H     0.56809   0.68039   0.75605   0.00000  Uiso   1.00
H1124  H     0.43203   0.98628   0.74368   0.00000  Uiso   1.00
N1125  N     0.64839   0.84735   0.76212   0.00000  Uiso   1.00
N1126  N     0.35161   0.81932   0.73788   0.00000  Uiso   1.00
O1127  O     0.46148   0.90476   0.74686   0.00000  Uiso   1.00
O1128  O     0.53852   0.76191   0.75314   0.00000  Uiso   1.00
O1129  O     0.56163   0.91420   0.75503   0.00000  Uiso   1.00
O1130  O     0.43837   0.75247   0.74498   0.00000  Uiso   1.00
O1131  O     0.42185   0.82597   0.80855   0.00000  Uiso   1.00
O1132  O     0.57815   0.84070   0.69146   0.00000  Uiso   1.00
O1133  O     0.52199   0.83540   0.81671   0.00000  Uiso   1.00
O1134  O     0.47801   0.83126   0.68329   0.00000  Uiso   1.00
O1135  O     0.62621   0.77560   0.96395   0.00000  Uiso   1.00
C1136  C     0.61052   0.72054   0.95530   0.00000  Uiso   1.00
H1137  H     0.64034   0.69990   0.96785   0.00000  Uiso   1.00
H1138  H     0.61585   0.71131   0.91952   0.00000  Uiso   1.00
C1139  C     0.54225   0.69954   0.97853   0.00000  Uiso   1.00
H1140  H     0.51117   0.71878   0.96620   0.00000  Uiso   1.00
H1141  H     0.52907   0.98944   0.97236   0.00000  Uiso   1.00
H1142  H     0.53551   0.70807   0.51439   0.00000  Uiso   1.00
O1143  O     0.36707   0.91744   0.53987   0.00000  Uiso   1.00
C1144  C     0.38802   0.96342   0.56457   0.00000  Uiso   1.00
H1145  H     0.35160   0.97398   0.59313   0.00000  Uiso   1.00
H1146  H     0.40309   0.99747   0.54265   0.00000  Uiso   1.00
C1147  C     0.44478   0.95752   0.57998   0.00000  Uiso   1.00
H1148  H     0.48260   0.95010   0.55138   0.00000  Uiso   1.00
H1149  H     0.46285   0.99438   0.59781   0.00000  Uiso   1.00
H1150  H     0.43173   0.92396   0.60220   0.00000  Uiso   1.00
C1151  C     0.66475   0.87329   0.80032   0.00000  Uiso   1.00
H1152  H     0.36650   0.90983   0.79835   0.00000  Uiso   1.00
O1153  O     0.63683   0.85608   0.83628   0.00000  Uiso   1.00
C1154  C     0.33571   0.79430   0.69927   0.00000  Uiso   1.00
H1155  H     0.63408   0.75770   0.70065   0.00000  Uiso   1.00
O1156  O     0.36350   0.81267   0.66367   0.00000  Uiso   1.00
C1157  C     0.84845   0.93335   0.75133   0.00000  Uiso   1.00
C1158  C     0.81827   0.73331   0.74857   0.00000  Uiso   1.00
C1159  C     0.75830   0.80952   0.54129   0.00000  Uiso   1.00
C1160  C     0.90104   0.88115   0.96396   0.00000  Uiso   1.00
C1161  C     0.71507   0.79754   0.51554   0.00000  Uiso   1.00
C1162  C     0.94382   0.89468   0.99003   0.00000  Uiso   1.00
C1163  C     0.85671   0.98953   0.75200   0.00000  Uiso   1.00
C1164  C     0.81007   0.67713   0.74777   0.00000  Uiso   1.00
C1165  C     0.79494   0.82955   0.83307   0.00000  Uiso   1.00
C1166  C     0.87174   0.83750   0.66700   0.00000  Uiso   1.00
C1167  C     0.77163   0.82536   0.88085   0.00000  Uiso   1.00
C1168  C     0.89496   0.84605   0.61978   0.00000  Uiso   1.00
C1169  C     0.68918   0.79466   0.94500   0.00000  Uiso   1.00
C1170  C     0.97257   0.89160   0.55884   0.00000  Uiso   1.00
C1171  C     0.70861   0.80380   0.90004   0.00000  Uiso   1.00
C1172  C     0.95552   0.87495   0.60226   0.00000  Uiso   1.00
C1173  C     0.81445   0.84098   0.90722   0.00000  Uiso   1.00
C1174  C     0.85269   0.83012   0.59318   0.00000  Uiso   1.00
C1175  C     0.79640   0.83413   0.95265   0.00000  Uiso   1.00
C1176  C     0.86689   0.84706   0.55014   0.00000  Uiso   1.00
C1177  C     0.73321   0.80894   0.97123   0.00000  Uiso   1.00
C1178  C     0.92812   0.87758   0.53285   0.00000  Uiso   1.00
C1179  C     0.84008   0.84990   0.97967   0.00000  Uiso   1.00
C1180  C     0.82172   0.83485   0.52407   0.00000  Uiso   1.00
Cu1181 Cu    0.77404   0.82775   0.74517   0.00000  Uiso   1.00
Cu1182 Cu    0.89263   0.83892   0.75484   0.00000  Uiso   1.00
H1183  H     0.66707   0.77855   0.53064   0.00000  Uiso   1.00
H1184  H     0.98967   0.91894   0.97624   0.00000  Uiso   1.00
H1185  H     0.80854   0.80449   0.60736   0.00000  Uiso   1.00
H1186  H     0.86248   0.85674   0.89112   0.00000  Uiso   1.00
H1187  H     0.98884   0.88569   0.62263   0.00000  Uiso   1.00
H1188  H     0.67470   0.79249   0.88011   0.00000  Uiso   1.00
H1189  H     0.73944   0.79968   0.57511   0.00000  Uiso   1.00
H1190  H     0.91684   0.89756   0.93191   0.00000  Uiso   1.00
H1191  H     0.90143   0.68039   0.75605   0.00000  Uiso   1.00
H1192  H     0.76537   0.98628   0.74368   0.00000  Uiso   1.00
N1193  N     0.98173   0.84735   0.76212   0.00000  Uiso   1.00
N1194  N     0.68494   0.81932   0.73788   0.00000  Uiso   1.00
O1195  O     0.79482   0.90476   0.74686   0.00000  Uiso   1.00
O1196  O     0.87185   0.76191   0.75314   0.00000  Uiso   1.00
O1197  O     0.89496   0.91420   0.75503   0.00000  Uiso   1.00
O1198  O     0.77171   0.75247   0.74498   0.00000  Uiso   1.00
O1199  O     0.75518   0.82597   0.80855   0.00000  Uiso   1.00
O1200  O     0.91149   0.84070   0.69146   0.00000  Uiso   1.00
O1201  O     0.85532   0.83540   0.81671   0.00000  Uiso   1.00
O1202  O     0.81134   0.83126   0.68329   0.00000  Uiso   1.00
O1203  O     0.95955   0.77560   0.96395   0.00000  Uiso   1.00
C1204  C     0.94386   0.72054   0.95530   0.00000  Uiso   1.00
H1205  H     0.97367   0.69990   0.96785   0.00000  Uiso   1.00
H1206  H     0.94919   0.71131   0.91952   0.00000  Uiso   1.00
C1207  C     0.87559   0.69954   0.97853   0.00000  Uiso   1.00
H1208  H     0.84450   0.71878   0.96620   0.00000  Uiso   1.00
H1209  H     0.86241   0.98944   0.97236   0.00000  Uiso   1.00
H1210  H     0.86885   0.70807   0.51439   0.00000  Uiso   1.00
O1211  O     0.70041   0.91744   0.53987   0.00000  Uiso   1.00
C1212  C     0.72136   0.96342   0.56457   0.00000  Uiso   1.00
H1213  H     0.68494   0.97398   0.59313   0.00000  Uiso   1.00
H1214  H     0.73642   0.99747   0.54265   0.00000  Uiso   1.00
C1215  C     0.77811   0.95752   0.57998   0.00000  Uiso   1.00
H1216  H     0.81593   0.95010   0.55138   0.00000  Uiso   1.00
H1217  H     0.79618   0.99438   0.59781   0.00000  Uiso   1.00
H1218  H     0.76507   0.92396   0.60220   0.00000  Uiso   1.00
C1219  C     0.99808   0.87329   0.80032   0.00000  Uiso   1.00
H1220  H     0.69983   0.90983   0.79835   0.00000  Uiso   1.00
O1221  O     0.97016   0.85608   0.83628   0.00000  Uiso   1.00
C1222  C     0.66905   0.79430   0.69927   0.00000  Uiso   1.00
H1223  H     0.96741   0.75770   0.70065   0.00000  Uiso   1.00
O1224  O     0.69683   0.81267   0.66367   0.00000  Uiso   1.00
loop_
_geom_bond_atom_site_label_1
_geom_bond_atom_site_label_2
_geom_bond_distance
_geom_bond_site_symmetry_2
_ccdc_geom_bond_type
C1     C7      1.428   .     S
C1     O41     1.297   .     A
C1     O39     1.297   .     A
C2     O42     1.297   .     A
C2     O40     1.297   .     A
C2     C8      1.428   .     S
C3     C24     1.416   .     A
C3     H33     1.075   .     S
C3     C5      1.386   .     A
C4     H34     1.077   .     S
C4     C6      1.386   .     A
C4     C23     1.415   .     A
C5     H27     1.084   .     S
C5     C633    1.393   1_554 S
C6     H28     1.084   .     S
C6     C634    1.395   .     S
C7     C212    1.333   .     S
C7     H239    1.087   .     S
C8     C415    1.333   1_545 S
C8     H444    1.087   1_545 S
C9     O45     1.306   .     A
C9     C11     1.471   .     S
C9     O43     1.309   .     A
C10    O46     1.305   .     A
C10    C12     1.468   .     S
C10    O44     1.308   .     A
C11    C17     1.397   .     A
C11    C15     1.398   .     A
C12    C18     1.393   .     A
C12    C16     1.396   .     A
C13    C21     1.413   .     A
C13    C15     1.400   .     A
C13    O183    1.384   1_455 S
C14    C16     1.407   .     A
C14    C22     1.415   .     A
C14    O123    1.391   .     S
C15    H32     1.082   .     S
C16    H31     1.081   .     S
C17    H30     1.073   .     S
C17    C19     1.404   .     A
C18    H29     1.075   .     S
C18    C20     1.403   .     A
C19    C23     1.427   .     A
C19    C21     1.419   .     A
C20    C22     1.421   .     A
C20    C24     1.428   .     A
C21    C617    1.393   .     S
C22    C618    1.395   1_554 S
C23    C636    1.422   .     S
C24    C635    1.422   1_554 S
Cu25   O42     1.947   .     S
Cu25   N38     2.040   .     S
Cu25   O43     1.939   .     S
Cu25   O39     1.947   .     S
Cu25   Cu26    2.714   .     S
Cu25   O46     1.921   .     S
Cu26   N37     2.040   .     S
Cu26   O40     1.947   .     S
Cu26   O44     1.939   .     S
Cu26   O45     1.921   .     S
Cu26   O41     1.947   .     S
H35    C415    1.087   1_545 S
H36    C212    1.087   .     S
N37    C63     1.414   .     S
N37    N106    1.285   .     S
N38    C66     1.414   .     S
N38    N173    1.285   1_455 S
O47    C48     1.410   .     S
O47    C81     1.384   .     S
C48    H50     1.113   .     S
C48    H49     1.115   .     S
C48    C51     1.521   .     S
C51    H52     1.111   .     S
C51    H461    1.111   1_545 S
C51    H666    1.111   .     S
H53    C255    1.111   .     S
H54    C663    1.111   1_554 S
O55    C56     1.417   .     S
O55    C150    1.391   1_455 S
C56    C59     1.524   .     S
C56    H57     1.116   .     S
C56    H58     1.111   .     S
C59    H61     1.110   .     S
C59    H60     1.110   .     S
C59    H62     1.110   .     S
C63    O65     1.219   .     D
C63    H132    1.080   .     S
H64    C199    1.080   1_455 S
C66    O68     1.219   .     D
C66    H203    1.081   1_455 S
H67    C134    1.081   .     S
C69    C75     1.428   .     S
C69    O109    1.297   .     A
C69    O107    1.297   .     A
C70    O110    1.297   .     A
C70    O108    1.297   .     A
C70    C76     1.428   .     S
C71    C92     1.416   .     A
C71    H101    1.075   .     S
C71    C73     1.386   .     A
C72    H102    1.077   .     S
C72    C74     1.386   .     A
C72    C91     1.415   .     A
C73    H95     1.084   .     S
C73    C701    1.393   1_554 S
C74    H96     1.084   .     S
C74    C702    1.395   .     S
C75    C280    1.333   .     S
C75    H307    1.087   .     S
C76    C483    1.333   1_545 S
C76    H512    1.087   1_545 S
C77    O113    1.306   .     A
C77    C79     1.471   .     S
C77    O111    1.309   .     A
C78    O114    1.305   .     A
C78    C80     1.468   .     S
C78    O112    1.308   .     A
C79    C85     1.397   .     A
C79    C83     1.398   .     A
C80    C86     1.393   .     A
C80    C84     1.396   .     A
C81    C89     1.413   .     A
C81    C83     1.400   .     A
C82    C84     1.407   .     A
C82    C90     1.415   .     A
C82    O191    1.391   .     S
C83    H100    1.082   .     S
C84    H99     1.081   .     S
C85    H98     1.073   .     S
C85    C87     1.404   .     A
C86    H97     1.075   .     S
C86    C88     1.403   .     A
C87    C91     1.427   .     A
C87    C89     1.419   .     A
C88    C90     1.421   .     A
C88    C92     1.428   .     A
C89    C685    1.393   .     S
C90    C686    1.395   1_554 S
C91    C704    1.422   .     S
C92    C703    1.422   1_554 S
Cu93   O110    1.947   .     S
Cu93   N106    2.040   .     S
Cu93   O111    1.939   .     S
Cu93   O107    1.947   .     S
Cu93   Cu94    2.714   .     S
Cu93   O114    1.921   .     S
Cu94   N105    2.040   .     S
Cu94   O108    1.947   .     S
Cu94   O112    1.939   .     S
Cu94   O113    1.921   .     S
Cu94   O109    1.947   .     S
H103   C483    1.087   1_545 S
H104   C280    1.087   .     S
N105   C131    1.414   .     S
N105   N174    1.285   .     S
N106   C134    1.414   .     S
O115   C116    1.410   .     S
O115   C149    1.384   .     S
C116   H118    1.113   .     S
C116   H117    1.115   .     S
C116   C119    1.521   .     S
C119   H120    1.111   .     S
C119   H529    1.111   1_545 S
C119   H734    1.111   .     S
H121   C323    1.111   .     S
H122   C731    1.111   1_554 S
O123   C124    1.417   .     S
C124   C127    1.524   .     S
C124   H125    1.116   .     S
C124   H126    1.111   .     S
C127   H129    1.110   .     S
C127   H128    1.110   .     S
C127   H130    1.110   .     S
C131   O133    1.219   .     D
C131   H200    1.080   .     S
C134   O136    1.219   .     D
H135   C202    1.081   .     S
C137   C143    1.428   .     S
C137   O177    1.297   .     A
C137   O175    1.297   .     A
C138   O178    1.297   .     A
C138   O176    1.297   .     A
C138   C144    1.428   .     S
C139   C160    1.416   .     A
C139   H169    1.075   .     S
C139   C141    1.386   .     A
C140   H170    1.077   .     S
C140   C142    1.386   .     A
C140   C159    1.415   .     A
C141   H163    1.084   .     S
C141   C769    1.393   1_554 S
C142   H164    1.084   .     S
C142   C770    1.395   .     S
C143   C348    1.333   .     S
C143   H375    1.087   .     S
C144   C551    1.333   1_545 S
C144   H580    1.087   1_545 S
C145   O181    1.306   .     A
C145   C147    1.471   .     S
C145   O179    1.309   .     A
C146   O182    1.305   .     A
C146   C148    1.468   .     S
C146   O180    1.308   .     A
C147   C153    1.397   .     A
C147   C151    1.398   .     A
C148   C154    1.393   .     A
C148   C152    1.396   .     A
C149   C157    1.413   .     A
C149   C151    1.400   .     A
C150   C152    1.407   .     A
C150   C158    1.415   .     A
C150   O55     1.391   1_655 S
C151   H168    1.082   .     S
C152   H167    1.081   .     S
C153   H166    1.073   .     S
C153   C155    1.404   .     A
C154   H165    1.075   .     S
C154   C156    1.403   .     A
C155   C159    1.427   .     A
C155   C157    1.419   .     A
C156   C158    1.421   .     A
C156   C160    1.428   .     A
C157   C753    1.393   .     S
C158   C754    1.395   1_554 S
C159   C772    1.422   .     S
C160   C771    1.422   1_554 S
Cu161  O178    1.947   .     S
Cu161  N174    2.040   .     S
Cu161  O179    1.939   .     S
Cu161  O175    1.947   .     S
Cu161  Cu162   2.714   .     S
Cu161  O182    1.921   .     S
Cu162  N173    2.040   .     S
Cu162  O176    1.947   .     S
Cu162  O180    1.939   .     S
Cu162  O181    1.921   .     S
Cu162  O177    1.947   .     S
H171   C551    1.087   1_545 S
H172   C348    1.087   .     S
N173   C199    1.414   .     S
N173   N38     1.285   1_655 S
N174   C202    1.414   .     S
O183   C184    1.410   .     S
O183   C13     1.384   1_655 S
C184   H186    1.113   .     S
C184   H185    1.115   .     S
C184   C187    1.521   .     S
C187   H188    1.111   .     S
C187   H597    1.111   1_545 S
C187   H802    1.111   .     S
H189   C391    1.111   .     S
H190   C799    1.111   1_554 S
O191   C192    1.417   .     S
C192   C195    1.524   .     S
C192   H193    1.116   .     S
C192   H194    1.111   .     S
C195   H197    1.110   .     S
C195   H196    1.110   .     S
C195   H198    1.110   .     S
C199   O201    1.219   .     D
C199   H64     1.080   1_655 S
C202   O204    1.219   .     D
H203   C66     1.081   1_655 S
C205   C211    1.428   .     S
C205   O245    1.297   .     A
C205   O243    1.297   .     A
C206   O246    1.297   .     A
C206   O244    1.297   .     A
C206   C212    1.428   .     S
C207   C228    1.416   .     A
C207   H237    1.075   .     S
C207   C209    1.386   .     A
C208   H238    1.077   .     S
C208   C210    1.386   .     A
C208   C227    1.415   .     A
C209   H231    1.084   .     S
C209   C837    1.393   1_554 S
C210   H232    1.084   .     S
C210   C838    1.395   .     S
C211   C416    1.333   .     S
C211   H443    1.087   .     S
C213   O249    1.306   .     A
C213   C215    1.471   .     S
C213   O247    1.309   .     A
C214   O250    1.305   .     A
C214   C216    1.468   .     S
C214   O248    1.308   .     A
C215   C221    1.397   .     A
C215   C219    1.398   .     A
C216   C222    1.393   .     A
C216   C220    1.396   .     A
C217   C225    1.413   .     A
C217   C219    1.400   .     A
C217   O387    1.384   1_455 S
C218   C220    1.407   .     A
C218   C226    1.415   .     A
C218   O327    1.391   .     S
C219   H236    1.082   .     S
C220   H235    1.081   .     S
C221   H234    1.073   .     S
C221   C223    1.404   .     A
C222   H233    1.075   .     S
C222   C224    1.403   .     A
C223   C227    1.427   .     A
C223   C225    1.419   .     A
C224   C226    1.421   .     A
C224   C228    1.428   .     A
C225   C821    1.393   .     S
C226   C822    1.395   1_554 S
C227   C840    1.422   .     S
C228   C839    1.422   1_554 S
Cu229  O246    1.947   .     S
Cu229  N242    2.040   .     S
Cu229  O247    1.939   .     S
Cu229  O243    1.947   .     S
Cu229  Cu230   2.714   .     S
Cu229  O250    1.921   .     S
Cu230  N241    2.040   .     S
Cu230  O244    1.947   .     S
Cu230  O248    1.939   .     S
Cu230  O249    1.921   .     S
Cu230  O245    1.947   .     S
H240   C416    1.087   .     S
N241   C267    1.414   .     S
N241   N310    1.285   .     S
N242   C270    1.414   .     S
N242   N377    1.285   1_455 S
O251   C252    1.410   .     S
O251   C285    1.384   .     S
C252   H254    1.113   .     S
C252   H253    1.115   .     S
C252   C255    1.521   .     S
C255   H256    1.111   .     S
C255   H870    1.111   .     S
H257   C459    1.111   .     S
H258   C867    1.111   1_554 S
O259   C260    1.417   .     S
O259   C354    1.391   1_455 S
C260   C263    1.524   .     S
C260   H261    1.116   .     S
C260   H262    1.111   .     S
C263   H265    1.110   .     S
C263   H264    1.110   .     S
C263   H266    1.110   .     S
C267   O269    1.219   .     D
C267   H336    1.080   .     S
H268   C403    1.080   1_455 S
C270   O272    1.219   .     D
C270   H407    1.081   1_455 S
H271   C338    1.081   .     S
C273   C279    1.428   .     S
C273   O313    1.297   .     A
C273   O311    1.297   .     A
C274   O314    1.297   .     A
C274   O312    1.297   .     A
C274   C280    1.428   .     S
C275   C296    1.416   .     A
C275   H305    1.075   .     S
C275   C277    1.386   .     A
C276   H306    1.077   .     S
C276   C278    1.386   .     A
C276   C295    1.415   .     A
C277   H299    1.084   .     S
C277   C905    1.393   1_554 S
C278   H300    1.084   .     S
C278   C906    1.395   .     S
C279   C484    1.333   .     S
C279   H511    1.087   .     S
C281   O317    1.306   .     A
C281   C283    1.471   .     S
C281   O315    1.309   .     A
C282   O318    1.305   .     A
C282   C284    1.468   .     S
C282   O316    1.308   .     A
C283   C289    1.397   .     A
C283   C287    1.398   .     A
C284   C290    1.393   .     A
C284   C288    1.396   .     A
C285   C293    1.413   .     A
C285   C287    1.400   .     A
C286   C288    1.407   .     A
C286   C294    1.415   .     A
C286   O395    1.391   .     S
C287   H304    1.082   .     S
C288   H303    1.081   .     S
C289   H302    1.073   .     S
C289   C291    1.404   .     A
C290   H301    1.075   .     S
C290   C292    1.403   .     A
C291   C295    1.427   .     A
C291   C293    1.419   .     A
C292   C294    1.421   .     A
C292   C296    1.428   .     A
C293   C889    1.393   .     S
C294   C890    1.395   1_554 S
C295   C908    1.422   .     S
C296   C907    1.422   1_554 S
Cu297  O314    1.947   .     S
Cu297  N310    2.040   .     S
Cu297  O315    1.939   .     S
Cu297  O311    1.947   .     S
Cu297  Cu298   2.714   .     S
Cu297  O318    1.921   .     S
Cu298  N309    2.040   .     S
Cu298  O312    1.947   .     S
Cu298  O316    1.939   .     S
Cu298  O317    1.921   .     S
Cu298  O313    1.947   .     S
H308   C484    1.087   .     S
N309   C335    1.414   .     S
N309   N378    1.285   .     S
N310   C338    1.414   .     S
O319   C320    1.410   .     S
O319   C353    1.384   .     S
C320   H322    1.113   .     S
C320   H321    1.115   .     S
C320   C323    1.521   .     S
C323   H324    1.111   .     S
C323   H938    1.111   .     S
H325   C527    1.111   .     S
H326   C935    1.111   1_554 S
O327   C328    1.417   .     S
C328   C331    1.524   .     S
C328   H329    1.116   .     S
C328   H330    1.111   .     S
C331   H333    1.110   .     S
C331   H332    1.110   .     S
C331   H334    1.110   .     S
C335   O337    1.219   .     D
C335   H404    1.080   .     S
C338   O340    1.219   .     D
H339   C406    1.081   .     S
C341   C347    1.428   .     S
C341   O381    1.297   .     A
C341   O379    1.297   .     A
C342   O382    1.297   .     A
C342   O380    1.297   .     A
C342   C348    1.428   .     S
C343   C364    1.416   .     A
C343   H373    1.075   .     S
C343   C345    1.386   .     A
C344   H374    1.077   .     S
C344   C346    1.386   .     A
C344   C363    1.415   .     A
C345   H367    1.084   .     S
C345   C973    1.393   1_554 S
C346   H368    1.084   .     S
C346   C974    1.395   .     S
C347   C552    1.333   .     S
C347   H579    1.087   .     S
C349   O385    1.306   .     A
C349   C351    1.471   .     S
C349   O383    1.309   .     A
C350   O386    1.305   .     A
C350   C352    1.468   .     S
C350   O384    1.308   .     A
C351   C357    1.397   .     A
C351   C355    1.398   .     A
C352   C358    1.393   .     A
C352   C356    1.396   .     A
C353   C361    1.413   .     A
C353   C355    1.400   .     A
C354   C356    1.407   .     A
C354   C362    1.415   .     A
C354   O259    1.391   1_655 S
C355   H372    1.082   .     S
C356   H371    1.081   .     S
C357   H370    1.073   .     S
C357   C359    1.404   .     A
C358   H369    1.075   .     S
C358   C360    1.403   .     A
C359   C363    1.427   .     A
C359   C361    1.419   .     A
C360   C362    1.421   .     A
C360   C364    1.428   .     A
C361   C957    1.393   .     S
C362   C958    1.395   1_554 S
C363   C976    1.422   .     S
C364   C975    1.422   1_554 S
Cu365  O382    1.947   .     S
Cu365  N378    2.040   .     S
Cu365  O383    1.939   .     S
Cu365  O379    1.947   .     S
Cu365  Cu366   2.714   .     S
Cu365  O386    1.921   .     S
Cu366  N377    2.040   .     S
Cu366  O380    1.947   .     S
Cu366  O384    1.939   .     S
Cu366  O385    1.921   .     S
Cu366  O381    1.947   .     S
H376   C552    1.087   .     S
N377   C403    1.414   .     S
N377   N242    1.285   1_655 S
N378   C406    1.414   .     S
O387   C388    1.410   .     S
O387   C217    1.384   1_655 S
C388   H390    1.113   .     S
C388   H389    1.115   .     S
C388   C391    1.521   .     S
C391   H392    1.111   .     S
C391   H1006   1.111   .     S
H393   C595    1.111   .     S
H394   C1003   1.111   1_554 S
O395   C396    1.417   .     S
C396   C399    1.524   .     S
C396   H397    1.116   .     S
C396   H398    1.111   .     S
C399   H401    1.110   .     S
C399   H400    1.110   .     S
C399   H402    1.110   .     S
C403   O405    1.219   .     D
C403   H268    1.080   1_655 S
C406   O408    1.219   .     D
H407   C270    1.081   1_655 S
C409   C415    1.428   .     S
C409   O449    1.297   .     A
C409   O447    1.297   .     A
C410   O450    1.297   .     A
C410   O448    1.297   .     A
C410   C416    1.428   .     S
C411   C432    1.416   .     A
C411   H441    1.075   .     S
C411   C413    1.386   .     A
C412   H442    1.077   .     S
C412   C414    1.386   .     A
C412   C431    1.415   .     A
C413   H435    1.084   .     S
C413   C1041   1.393   1_554 S
C414   H436    1.084   .     S
C414   C1042   1.395   .     S
C415   C8      1.333   1_565 S
C415   H35     1.087   1_565 S
C417   O453    1.306   .     A
C417   C419    1.471   .     S
C417   O451    1.309   .     A
C418   O454    1.305   .     A
C418   C420    1.468   .     S
C418   O452    1.308   .     A
C419   C425    1.397   .     A
C419   C423    1.398   .     A
C420   C426    1.393   .     A
C420   C424    1.396   .     A
C421   C429    1.413   .     A
C421   C423    1.400   .     A
C421   O591    1.384   1_455 S
C422   C424    1.407   .     A
C422   C430    1.415   .     A
C422   O531    1.391   .     S
C423   H440    1.082   .     S
C424   H439    1.081   .     S
C425   H438    1.073   .     S
C425   C427    1.404   .     A
C426   H437    1.075   .     S
C426   C428    1.403   .     A
C427   C431    1.427   .     A
C427   C429    1.419   .     A
C428   C430    1.421   .     A
C428   C432    1.428   .     A
C429   C1025   1.393   .     S
C430   C1026   1.395   1_554 S
C431   C1044   1.422   .     S
C432   C1043   1.422   1_554 S
Cu433  O450    1.947   .     S
Cu433  N446    2.040   .     S
Cu433  O451    1.939   .     S
Cu433  O447    1.947   .     S
Cu433  Cu434   2.714   .     S
Cu433  O454    1.921   .     S
Cu434  N445    2.040   .     S
Cu434  O448    1.947   .     S
Cu434  O452    1.939   .     S
Cu434  O453    1.921   .     S
Cu434  O449    1.947   .     S
H444   C8      1.087   1_565 S
N445   C471    1.414   .     S
N445   N514    1.285   .     S
N446   C474    1.414   .     S
N446   N581    1.285   1_455 S
O455   C456    1.410   .     S
O455   C489    1.384   .     S
C456   H458    1.113   .     S
C456   H457    1.115   .     S
C456   C459    1.521   .     S
C459   H460    1.111   .     S
C459   H1074   1.111   .     S
H461   C51     1.111   1_565 S
H462   C1071   1.111   1_554 S
O463   C464    1.417   .     S
O463   C558    1.391   1_455 S
C464   C467    1.524   .     S
C464   H465    1.116   .     S
C464   H466    1.111   .     S
C467   H469    1.110   .     S
C467   H468    1.110   .     S
C467   H470    1.110   .     S
C471   O473    1.219   .     D
C471   H540    1.080   .     S
H472   C607    1.080   1_455 S
C474   O476    1.219   .     D
C474   H611    1.081   1_455 S
H475   C542    1.081   .     S
C477   C483    1.428   .     S
C477   O517    1.297   .     A
C477   O515    1.297   .     A
C478   O518    1.297   .     A
C478   O516    1.297   .     A
C478   C484    1.428   .     S
C479   C500    1.416   .     A
C479   H509    1.075   .     S
C479   C481    1.386   .     A
C480   H510    1.077   .     S
C480   C482    1.386   .     A
C480   C499    1.415   .     A
C481   H503    1.084   .     S
C481   C1109   1.393   1_554 S
C482   H504    1.084   .     S
C482   C1110   1.395   .     S
C483   C76     1.333   1_565 S
C483   H103    1.087   1_565 S
C485   O521    1.306   .     A
C485   C487    1.471   .     S
C485   O519    1.309   .     A
C486   O522    1.305   .     A
C486   C488    1.468   .     S
C486   O520    1.308   .     A
C487   C493    1.397   .     A
C487   C491    1.398   .     A
C488   C494    1.393   .     A
C488   C492    1.396   .     A
C489   C497    1.413   .     A
C489   C491    1.400   .     A
C490   C492    1.407   .     A
C490   C498    1.415   .     A
C490   O599    1.391   .     S
C491   H508    1.082   .     S
C492   H507    1.081   .     S
C493   H506    1.073   .     S
C493   C495    1.404   .     A
C494   H505    1.075   .     S
C494   C496    1.403   .     A
C495   C499    1.427   .     A
C495   C497    1.419   .     A
C496   C498    1.421   .     A
C496   C500    1.428   .     A
C497   C1093   1.393   .     S
C498   C1094   1.395   1_554 S
C499   C1112   1.422   .     S
C500   C1111   1.422   1_554 S
Cu501  O518    1.947   .     S
Cu501  N514    2.040   .     S
Cu501  O519    1.939   .     S
Cu501  O515    1.947   .     S
Cu501  Cu502   2.714   .     S
Cu501  O522    1.921   .     S
Cu502  N513    2.040   .     S
Cu502  O516    1.947   .     S
Cu502  O520    1.939   .     S
Cu502  O521    1.921   .     S
Cu502  O517    1.947   .     S
H512   C76     1.087   1_565 S
N513   C539    1.414   .     S
N513   N582    1.285   .     S
N514   C542    1.414   .     S
O523   C524    1.410   .     S
O523   C557    1.384   .     S
C524   H526    1.113   .     S
C524   H525    1.115   .     S
C524   C527    1.521   .     S
C527   H528    1.111   .     S
C527   H1142   1.111   .     S
H529   C119    1.111   1_565 S
H530   C1139   1.111   1_554 S
O531   C532    1.417   .     S
C532   C535    1.524   .     S
C532   H533    1.116   .     S
C532   H534    1.111   .     S
C535   H537    1.110   .     S
C535   H536    1.110   .     S
C535   H538    1.110   .     S
C539   O541    1.219   .     D
C539   H608    1.080   .     S
C542   O544    1.219   .     D
H543   C610    1.081   .     S
C545   C551    1.428   .     S
C545   O585    1.297   .     A
C545   O583    1.297   .     A
C546   O586    1.297   .     A
C546   O584    1.297   .     A
C546   C552    1.428   .     S
C547   C568    1.416   .     A
C547   H577    1.075   .     S
C547   C549    1.386   .     A
C548   H578    1.077   .     S
C548   C550    1.386   .     A
C548   C567    1.415   .     A
C549   H571    1.084   .     S
C549   C1177   1.393   1_554 S
C550   H572    1.084   .     S
C550   C1178   1.395   .     S
C551   C144    1.333   1_565 S
C551   H171    1.087   1_565 S
C553   O589    1.306   .     A
C553   C555    1.471   .     S
C553   O587    1.309   .     A
C554   O590    1.305   .     A
C554   C556    1.468   .     S
C554   O588    1.308   .     A
C555   C561    1.397   .     A
C555   C559    1.398   .     A
C556   C562    1.393   .     A
C556   C560    1.396   .     A
C557   C565    1.413   .     A
C557   C559    1.400   .     A
C558   C560    1.407   .     A
C558   C566    1.415   .     A
C558   O463    1.391   1_655 S
C559   H576    1.082   .     S
C560   H575    1.081   .     S
C561   H574    1.073   .     S
C561   C563    1.404   .     A
C562   H573    1.075   .     S
C562   C564    1.403   .     A
C563   C567    1.427   .     A
C563   C565    1.419   .     A
C564   C566    1.421   .     A
C564   C568    1.428   .     A
C565   C1161   1.393   .     S
C566   C1162   1.395   1_554 S
C567   C1180   1.422   .     S
C568   C1179   1.422   1_554 S
Cu569  O586    1.947   .     S
Cu569  N582    2.040   .     S
Cu569  O587    1.939   .     S
Cu569  O583    1.947   .     S
Cu569  Cu570   2.714   .     S
Cu569  O590    1.921   .     S
Cu570  N581    2.040   .     S
Cu570  O584    1.947   .     S
Cu570  O588    1.939   .     S
Cu570  O589    1.921   .     S
Cu570  O585    1.947   .     S
H580   C144    1.087   1_565 S
N581   C607    1.414   .     S
N581   N446    1.285   1_655 S
N582   C610    1.414   .     S
O591   C592    1.410   .     S
O591   C421    1.384   1_655 S
C592   H594    1.113   .     S
C592   H593    1.115   .     S
C592   C595    1.521   .     S
C595   H596    1.111   .     S
C595   H1210   1.111   .     S
H597   C187    1.111   1_565 S
H598   C1207   1.111   1_554 S
O599   C600    1.417   .     S
C600   C603    1.524   .     S
C600   H601    1.116   .     S
C600   H602    1.111   .     S
C603   H605    1.110   .     S
C603   H604    1.110   .     S
C603   H606    1.110   .     S
C607   O609    1.219   .     D
C607   H472    1.080   1_655 S
C610   O612    1.219   .     D
H611   C474    1.081   1_655 S
C613   C619    1.428   .     S
C613   O653    1.297   .     A
C613   O651    1.297   .     A
C614   O654    1.297   .     A
C614   O652    1.297   .     A
C614   C620    1.428   .     S
C615   C636    1.416   .     A
C615   H645    1.075   .     S
C615   C617    1.386   .     A
C616   H646    1.077   .     S
C616   C618    1.386   .     A
C616   C635    1.415   .     A
C617   H639    1.084   .     S
C618   H640    1.084   .     S
C618   C22     1.395   1_556 S
C619   C824    1.333   .     S
C619   H851    1.087   .     S
C620   C1027   1.333   1_545 S
C620   H1056   1.087   1_545 S
C621   O657    1.306   .     A
C621   C623    1.471   .     S
C621   O655    1.309   .     A
C622   O658    1.305   .     A
C622   C624    1.468   .     S
C622   O656    1.308   .     A
C623   C629    1.397   .     A
C623   C627    1.398   .     A
C624   C630    1.393   .     A
C624   C628    1.396   .     A
C625   C633    1.413   .     A
C625   C627    1.400   .     A
C625   O795    1.384   1_455 S
C626   C628    1.407   .     A
C626   C634    1.415   .     A
C626   O735    1.391   .     S
C627   H644    1.082   .     S
C628   H643    1.081   .     S
C629   H642    1.073   .     S
C629   C631    1.404   .     A
C630   H641    1.075   .     S
C630   C632    1.403   .     A
C631   C635    1.427   .     A
C631   C633    1.419   .     A
C632   C634    1.421   .     A
C632   C636    1.428   .     A
C633   C5      1.393   1_556 S
C635   C24     1.422   1_556 S
Cu637  O654    1.947   .     S
Cu637  N650    2.040   .     S
Cu637  O655    1.939   .     S
Cu637  O651    1.947   .     S
Cu637  Cu638   2.714   .     S
Cu637  O658    1.921   .     S
Cu638  N649    2.040   .     S
Cu638  O652    1.947   .     S
Cu638  O656    1.939   .     S
Cu638  O657    1.921   .     S
Cu638  O653    1.947   .     S
H647   C1027   1.087   1_545 S
H648   C824    1.087   .     S
N649   C675    1.414   .     S
N649   N718    1.285   .     S
N650   C678    1.414   .     S
N650   N785    1.285   1_455 S
O659   C660    1.410   .     S
O659   C693    1.384   .     S
C660   H662    1.113   .     S
C660   H661    1.115   .     S
C660   C663    1.521   .     S
C663   H664    1.111   .     S
C663   H1073   1.111   1_545 S
C663   H54     1.111   1_556 S
H665   C867    1.111   .     S
O667   C668    1.417   .     S
O667   C762    1.391   1_455 S
C668   C671    1.524   .     S
C668   H669    1.116   .     S
C668   H670    1.111   .     S
C671   H673    1.110   .     S
C671   H672    1.110   .     S
C671   H674    1.110   .     S
C675   O677    1.219   .     D
C675   H744    1.080   .     S
H676   C811    1.080   1_455 S
C678   O680    1.219   .     D
C678   H815    1.081   1_455 S
H679   C746    1.081   .     S
C681   C687    1.428   .     S
C681   O721    1.297   .     A
C681   O719    1.297   .     A
C682   O722    1.297   .     A
C682   O720    1.297   .     A
C682   C688    1.428   .     S
C683   C704    1.416   .     A
C683   H713    1.075   .     S
C683   C685    1.386   .     A
C684   H714    1.077   .     S
C684   C686    1.386   .     A
C684   C703    1.415   .     A
C685   H707    1.084   .     S
C686   H708    1.084   .     S
C686   C90     1.395   1_556 S
C687   C892    1.333   .     S
C687   H919    1.087   .     S
C688   C1095   1.333   1_545 S
C688   H1124   1.087   1_545 S
C689   O725    1.306   .     A
C689   C691    1.471   .     S
C689   O723    1.309   .     A
C690   O726    1.305   .     A
C690   C692    1.468   .     S
C690   O724    1.308   .     A
C691   C697    1.397   .     A
C691   C695    1.398   .     A
C692   C698    1.393   .     A
C692   C696    1.396   .     A
C693   C701    1.413   .     A
C693   C695    1.400   .     A
C694   C696    1.407   .     A
C694   C702    1.415   .     A
C694   O803    1.391   .     S
C695   H712    1.082   .     S
C696   H711    1.081   .     S
C697   H710    1.073   .     S
C697   C699    1.404   .     A
C698   H709    1.075   .     S
C698   C700    1.403   .     A
C699   C703    1.427   .     A
C699   C701    1.419   .     A
C700   C702    1.421   .     A
C700   C704    1.428   .     A
C701   C73     1.393   1_556 S
C703   C92     1.422   1_556 S
Cu705  O722    1.947   .     S
Cu705  N718    2.040   .     S
Cu705  O723    1.939   .     S
Cu705  O719    1.947   .     S
Cu705  Cu706   2.714   .     S
Cu705  O726    1.921   .     S
Cu706  N717    2.040   .     S
Cu706  O720    1.947   .     S
Cu706  O724    1.939   .     S
Cu706  O725    1.921   .     S
Cu706  O721    1.947   .     S
H715   C1095   1.087   1_545 S
H716   C892    1.087   .     S
N717   C743    1.414   .     S
N717   N786    1.285   .     S
N718   C746    1.414   .     S
O727   C728    1.410   .     S
O727   C761    1.384   .     S
C728   H730    1.113   .     S
C728   H729    1.115   .     S
C728   C731    1.521   .     S
C731   H732    1.111   .     S
C731   H1141   1.111   1_545 S
C731   H122    1.111   1_556 S
H733   C935    1.111   .     S
O735   C736    1.417   .     S
C736   C739    1.524   .     S
C736   H737    1.116   .     S
C736   H738    1.111   .     S
C739   H741    1.110   .     S
C739   H740    1.110   .     S
C739   H742    1.110   .     S
C743   O745    1.219   .     D
C743   H812    1.080   .     S
C746   O748    1.219   .     D
H747   C814    1.081   .     S
C749   C755    1.428   .     S
C749   O789    1.297   .     A
C749   O787    1.297   .     A
C750   O790    1.297   .     A
C750   O788    1.297   .     A
C750   C756    1.428   .     S
C751   C772    1.416   .     A
C751   H781    1.075   .     S
C751   C753    1.386   .     A
C752   H782    1.077   .     S
C752   C754    1.386   .     A
C752   C771    1.415   .     A
C753   H775    1.084   .     S
C754   H776    1.084   .     S
C754   C158    1.395   1_556 S
C755   C960    1.333   .     S
C755   H987    1.087   .     S
C756   C1163   1.333   1_545 S
C756   H1192   1.087   1_545 S
C757   O793    1.306   .     A
C757   C759    1.471   .     S
C757   O791    1.309   .     A
C758   O794    1.305   .     A
C758   C760    1.468   .     S
C758   O792    1.308   .     A
C759   C765    1.397   .     A
C759   C763    1.398   .     A
C760   C766    1.393   .     A
C760   C764    1.396   .     A
C761   C769    1.413   .     A
C761   C763    1.400   .     A
C762   C764    1.407   .     A
C762   C770    1.415   .     A
C762   O667    1.391   1_655 S
C763   H780    1.082   .     S
C764   H779    1.081   .     S
C765   H778    1.073   .     S
C765   C767    1.404   .     A
C766   H777    1.075   .     S
C766   C768    1.403   .     A
C767   C771    1.427   .     A
C767   C769    1.419   .     A
C768   C770    1.421   .     A
C768   C772    1.428   .     A
C769   C141    1.393   1_556 S
C771   C160    1.422   1_556 S
Cu773  O790    1.947   .     S
Cu773  N786    2.040   .     S
Cu773  O791    1.939   .     S
Cu773  O787    1.947   .     S
Cu773  Cu774   2.714   .     S
Cu773  O794    1.921   .     S
Cu774  N785    2.040   .     S
Cu774  O788    1.947   .     S
Cu774  O792    1.939   .     S
Cu774  O793    1.921   .     S
Cu774  O789    1.947   .     S
H783   C1163   1.087   1_545 S
H784   C960    1.087   .     S
N785   C811    1.414   .     S
N785   N650    1.285   1_655 S
N786   C814    1.414   .     S
O795   C796    1.410   .     S
O795   C625    1.384   1_655 S
C796   H798    1.113   .     S
C796   H797    1.115   .     S
C796   C799    1.521   .     S
C799   H800    1.111   .     S
C799   H1209   1.111   1_545 S
C799   H190    1.111   1_556 S
H801   C1003   1.111   .     S
O803   C804    1.417   .     S
C804   C807    1.524   .     S
C804   H805    1.116   .     S
C804   H806    1.111   .     S
C807   H809    1.110   .     S
C807   H808    1.110   .     S
C807   H810    1.110   .     S
C811   O813    1.219   .     D
C811   H676    1.080   1_655 S
C814   O816    1.219   .     D
H815   C678    1.081   1_655 S
C817   C823    1.428   .     S
C817   O857    1.297   .     A
C817   O855    1.297   .     A
C818   O858    1.297   .     A
C818   O856    1.297   .     A
C818   C824    1.428   .     S
C819   C840    1.416   .     A
C819   H849    1.075   .     S
C819   C821    1.386   .     A
C820   H850    1.077   .     S
C820   C822    1.386   .     A
C820   C839    1.415   .     A
C821   H843    1.084   .     S
C822   H844    1.084   .     S
C822   C226    1.395   1_556 S
C823   C1028   1.333   .     S
C823   H1055   1.087   .     S
C825   O861    1.306   .     A
C825   C827    1.471   .     S
C825   O859    1.309   .     A
C826   O862    1.305   .     A
C826   C828    1.468   .     S
C826   O860    1.308   .     A
C827   C833    1.397   .     A
C827   C831    1.398   .     A
C828   C834    1.393   .     A
C828   C832    1.396   .     A
C829   C837    1.413   .     A
C829   C831    1.400   .     A
C829   O999    1.384   1_455 S
C830   C832    1.407   .     A
C830   C838    1.415   .     A
C830   O939    1.391   .     S
C831   H848    1.082   .     S
C832   H847    1.081   .     S
C833   H846    1.073   .     S
C833   C835    1.404   .     A
C834   H845    1.075   .     S
C834   C836    1.403   .     A
C835   C839    1.427   .     A
C835   C837    1.419   .     A
C836   C838    1.421   .     A
C836   C840    1.428   .     A
C837   C209    1.393   1_556 S
C839   C228    1.422   1_556 S
Cu841  O858    1.947   .     S
Cu841  N854    2.040   .     S
Cu841  O859    1.939   .     S
Cu841  O855    1.947   .     S
Cu841  Cu842   2.714   .     S
Cu841  O862    1.921   .     S
Cu842  N853    2.040   .     S
Cu842  O856    1.947   .     S
Cu842  O860    1.939   .     S
Cu842  O861    1.921   .     S
Cu842  O857    1.947   .     S
H852   C1028   1.087   .     S
N853   C879    1.414   .     S
N853   N922    1.285   .     S
N854   C882    1.414   .     S
N854   N989    1.285   1_455 S
O863   C864    1.410   .     S
O863   C897    1.384   .     S
C864   H866    1.113   .     S
C864   H865    1.115   .     S
C864   C867    1.521   .     S
C867   H868    1.111   .     S
C867   H258    1.111   1_556 S
H869   C1071   1.111   .     S
O871   C872    1.417   .     S
O871   C966    1.391   1_455 S
C872   C875    1.524   .     S
C872   H873    1.116   .     S
C872   H874    1.111   .     S
C875   H877    1.110   .     S
C875   H876    1.110   .     S
C875   H878    1.110   .     S
C879   O881    1.219   .     D
C879   H948    1.080   .     S
H880   C1015   1.080   1_455 S
C882   O884    1.219   .     D
C882   H1019   1.081   1_455 S
H883   C950    1.081   .     S
C885   C891    1.428   .     S
C885   O925    1.297   .     A
C885   O923    1.297   .     A
C886   O926    1.297   .     A
C886   O924    1.297   .     A
C886   C892    1.428   .     S
C887   C908    1.416   .     A
C887   H917    1.075   .     S
C887   C889    1.386   .     A
C888   H918    1.077   .     S
C888   C890    1.386   .     A
C888   C907    1.415   .     A
C889   H911    1.084   .     S
C890   H912    1.084   .     S
C890   C294    1.395   1_556 S
C891   C1096   1.333   .     S
C891   H1123   1.087   .     S
C893   O929    1.306   .     A
C893   C895    1.471   .     S
C893   O927    1.309   .     A
C894   O930    1.305   .     A
C894   C896    1.468   .     S
C894   O928    1.308   .     A
C895   C901    1.397   .     A
C895   C899    1.398   .     A
C896   C902    1.393   .     A
C896   C900    1.396   .     A
C897   C905    1.413   .     A
C897   C899    1.400   .     A
C898   C900    1.407   .     A
C898   C906    1.415   .     A
C898   O1007   1.391   .     S
C899   H916    1.082   .     S
C900   H915    1.081   .     S
C901   H914    1.073   .     S
C901   C903    1.404   .     A
C902   H913    1.075   .     S
C902   C904    1.403   .     A
C903   C907    1.427   .     A
C903   C905    1.419   .     A
C904   C906    1.421   .     A
C904   C908    1.428   .     A
C905   C277    1.393   1_556 S
C907   C296    1.422   1_556 S
Cu909  O926    1.947   .     S
Cu909  N922    2.040   .     S
Cu909  O927    1.939   .     S
Cu909  O923    1.947   .     S
Cu909  Cu910   2.714   .     S
Cu909  O930    1.921   .     S
Cu910  N921    2.040   .     S
Cu910  O924    1.947   .     S
Cu910  O928    1.939   .     S
Cu910  O929    1.921   .     S
Cu910  O925    1.947   .     S
H920   C1096   1.087   .     S
N921   C947    1.414   .     S
N921   N990    1.285   .     S
N922   C950    1.414   .     S
O931   C932    1.410   .     S
O931   C965    1.384   .     S
C932   H934    1.113   .     S
C932   H933    1.115   .     S
C932   C935    1.521   .     S
C935   H936    1.111   .     S
C935   H326    1.111   1_556 S
H937   C1139   1.111   .     S
O939   C940    1.417   .     S
C940   C943    1.524   .     S
C940   H941    1.116   .     S
C940   H942    1.111   .     S
C943   H945    1.110   .     S
C943   H944    1.110   .     S
C943   H946    1.110   .     S
C947   O949    1.219   .     D
C947   H1016   1.080   .     S
C950   O952    1.219   .     D
H951   C1018   1.081   .     S
C953   C959    1.428   .     S
C953   O993    1.297   .     A
C953   O991    1.297   .     A
C954   O994    1.297   .     A
C954   O992    1.297   .     A
C954   C960    1.428   .     S
C955   C976    1.416   .     A
C955   H985    1.075   .     S
C955   C957    1.386   .     A
C956   H986    1.077   .     S
C956   C958    1.386   .     A
C956   C975    1.415   .     A
C957   H979    1.084   .     S
C958   H980    1.084   .     S
C958   C362    1.395   1_556 S
C959   C1164   1.333   .     S
C959   H1191   1.087   .     S
C961   O997    1.306   .     A
C961   C963    1.471   .     S
C961   O995    1.309   .     A
C962   O998    1.305   .     A
C962   C964    1.468   .     S
C962   O996    1.308   .     A
C963   C969    1.397   .     A
C963   C967    1.398   .     A
C964   C970    1.393   .     A
C964   C968    1.396   .     A
C965   C973    1.413   .     A
C965   C967    1.400   .     A
C966   C968    1.407   .     A
C966   C974    1.415   .     A
C966   O871    1.391   1_655 S
C967   H984    1.082   .     S
C968   H983    1.081   .     S
C969   H982    1.073   .     S
C969   C971    1.404   .     A
C970   H981    1.075   .     S
C970   C972    1.403   .     A
C971   C975    1.427   .     A
C971   C973    1.419   .     A
C972   C974    1.421   .     A
C972   C976    1.428   .     A
C973   C345    1.393   1_556 S
C975   C364    1.422   1_556 S
Cu977  O994    1.947   .     S
Cu977  N990    2.040   .     S
Cu977  O995    1.939   .     S
Cu977  O991    1.947   .     S
Cu977  Cu978   2.714   .     S
Cu977  O998    1.921   .     S
Cu978  N989    2.040   .     S
Cu978  O992    1.947   .     S
Cu978  O996    1.939   .     S
Cu978  O997    1.921   .     S
Cu978  O993    1.947   .     S
H988   C1164   1.087   .     S
N989   C1015   1.414   .     S
N989   N854    1.285   1_655 S
N990   C1018   1.414   .     S
O999   C1000   1.410   .     S
O999   C829    1.384   1_655 S
C1000  H1002   1.113   .     S
C1000  H1001   1.115   .     S
C1000  C1003   1.521   .     S
C1003  H1004   1.111   .     S
C1003  H394    1.111   1_556 S
H1005  C1207   1.111   .     S
O1007  C1008   1.417   .     S
C1008  C1011   1.524   .     S
C1008  H1009   1.116   .     S
C1008  H1010   1.111   .     S
C1011  H1013   1.110   .     S
C1011  H1012   1.110   .     S
C1011  H1014   1.110   .     S
C1015  O1017   1.219   .     D
C1015  H880    1.080   1_655 S
C1018  O1020   1.219   .     D
H1019  C882    1.081   1_655 S
C1021  C1027   1.428   .     S
C1021  O1061   1.297   .     A
C1021  O1059   1.297   .     A
C1022  O1062   1.297   .     A
C1022  O1060   1.297   .     A
C1022  C1028   1.428   .     S
C1023  C1044   1.416   .     A
C1023  H1053   1.075   .     S
C1023  C1025   1.386   .     A
C1024  H1054   1.077   .     S
C1024  C1026   1.386   .     A
C1024  C1043   1.415   .     A
C1025  H1047   1.084   .     S
C1026  H1048   1.084   .     S
C1026  C430    1.395   1_556 S
C1027  C620    1.333   1_565 S
C1027  H647    1.087   1_565 S
C1029  O1065   1.306   .     A
C1029  C1031   1.471   .     S
C1029  O1063   1.309   .     A
C1030  O1066   1.305   .     A
C1030  C1032   1.468   .     S
C1030  O1064   1.308   .     A
C1031  C1037   1.397   .     A
C1031  C1035   1.398   .     A
C1032  C1038   1.393   .     A
C1032  C1036   1.396   .     A
C1033  C1041   1.413   .     A
C1033  C1035   1.400   .     A
C1033  O1203   1.384   1_455 S
C1034  C1036   1.407   .     A
C1034  C1042   1.415   .     A
C1034  O1143   1.391   .     S
C1035  H1052   1.082   .     S
C1036  H1051   1.081   .     S
C1037  H1050   1.073   .     S
C1037  C1039   1.404   .     A
C1038  H1049   1.075   .     S
C1038  C1040   1.403   .     A
C1039  C1043   1.427   .     A
C1039  C1041   1.419   .     A
C1040  C1042   1.421   .     A
C1040  C1044   1.428   .     A
C1041  C413    1.393   1_556 S
C1043  C432    1.422   1_556 S
Cu1045 O1062   1.947   .     S
Cu1045 N1058   2.040   .     S
Cu1045 O1063   1.939   .     S
Cu1045 O1059   1.947   .     S
Cu1045 Cu1046  2.714   .     S
Cu1045 O1066   1.921   .     S
Cu1046 N1057   2.040   .     S
Cu1046 O1060   1.947   .     S
Cu1046 O1064   1.939   .     S
Cu1046 O1065   1.921   .     S
Cu1046 O1061   1.947   .     S
H1056  C620    1.087   1_565 S
N1057  C1083   1.414   .     S
N1057  N1126   1.285   .     S
N1058  C1086   1.414   .     S
N1058  N1193   1.285   1_455 S
O1067  C1068   1.410   .     S
O1067  C1101   1.384   .     S
C1068  H1070   1.113   .     S
C1068  H1069   1.115   .     S
C1068  C1071   1.521   .     S
C1071  H1072   1.111   .     S
C1071  H462    1.111   1_556 S
H1073  C663    1.111   1_565 S
O1075  C1076   1.417   .     S
O1075  C1170   1.391   1_455 S
C1076  C1079   1.524   .     S
C1076  H1077   1.116   .     S
C1076  H1078   1.111   .     S
C1079  H1081   1.110   .     S
C1079  H1080   1.110   .     S
C1079  H1082   1.110   .     S
C1083  O1085   1.219   .     D
C1083  H1152   1.080   .     S
H1084  C1219   1.080   1_455 S
C1086  O1088   1.219   .     D
C1086  H1223   1.081   1_455 S
H1087  C1154   1.081   .     S
C1089  C1095   1.428   .     S
C1089  O1129   1.297   .     A
C1089  O1127   1.297   .     A
C1090  O1130   1.297   .     A
C1090  O1128   1.297   .     A
C1090  C1096   1.428   .     S
C1091  C1112   1.416   .     A
C1091  H1121   1.075   .     S
C1091  C1093   1.386   .     A
C1092  H1122   1.077   .     S
C1092  C1094   1.386   .     A
C1092  C1111   1.415   .     A
C1093  H1115   1.084   .     S
C1094  H1116   1.084   .     S
C1094  C498    1.395   1_556 S
C1095  C688    1.333   1_565 S
C1095  H715    1.087   1_565 S
C1097  O1133   1.306   .     A
C1097  C1099   1.471   .     S
C1097  O1131   1.309   .     A
C1098  O1134   1.305   .     A
C1098  C1100   1.468   .     S
C1098  O1132   1.308   .     A
C1099  C1105   1.397   .     A
C1099  C1103   1.398   .     A
C1100  C1106   1.393   .     A
C1100  C1104   1.396   .     A
C1101  C1109   1.413   .     A
C1101  C1103   1.400   .     A
C1102  C1104   1.407   .     A
C1102  C1110   1.415   .     A
C1102  O1211   1.391   .     S
C1103  H1120   1.082   .     S
C1104  H1119   1.081   .     S
C1105  H1118   1.073   .     S
C1105  C1107   1.404   .     A
C1106  H1117   1.075   .     S
C1106  C1108   1.403   .     A
C1107  C1111   1.427   .     A
C1107  C1109   1.419   .     A
C1108  C1110   1.421   .     A
C1108  C1112   1.428   .     A
C1109  C481    1.393   1_556 S
C1111  C500    1.422   1_556 S
Cu1113 O1130   1.947   .     S
Cu1113 N1126   2.040   .     S
Cu1113 O1131   1.939   .     S
Cu1113 O1127   1.947   .     S
Cu1113 Cu1114  2.714   .     S
Cu1113 O1134   1.921   .     S
Cu1114 N1125   2.040   .     S
Cu1114 O1128   1.947   .     S
Cu1114 O1132   1.939   .     S
Cu1114 O1133   1.921   .     S
Cu1114 O1129   1.947   .     S
H1124  C688    1.087   1_565 S
N1125  C1151   1.414   .     S
N1125  N1194   1.285   .     S
N1126  C1154   1.414   .     S
O1135  C1136   1.410   .     S
O1135  C1169   1.384   .     S
C1136  H1138   1.113   .     S
C1136  H1137   1.115   .     S
C1136  C1139   1.521   .     S
C1139  H1140   1.111   .     S
C1139  H530    1.111   1_556 S
H1141  C731    1.111   1_565 S
O1143  C1144   1.417   .     S
C1144  C1147   1.524   .     S
C1144  H1145   1.116   .     S
C1144  H1146   1.111   .     S
C1147  H1149   1.110   .     S
C1147  H1148   1.110   .     S
C1147  H1150   1.110   .     S
C1151  O1153   1.219   .     D
C1151  H1220   1.080   .     S
C1154  O1156   1.219   .     D
H1155  C1222   1.081   .     S
C1157  C1163   1.428   .     S
C1157  O1197   1.297   .     A
C1157  O1195   1.297   .     A
C1158  O1198   1.297   .     A
C1158  O1196   1.297   .     A
C1158  C1164   1.428   .     S
C1159  C1180   1.416   .     A
C1159  H1189   1.075   .     S
C1159  C1161   1.386   .     A
C1160  H1190   1.077   .     S
C1160  C1162   1.386   .     A
C1160  C1179   1.415   .     A
C1161  H1183   1.084   .     S
C1162  H1184   1.084   .     S
C1162  C566    1.395   1_556 S
C1163  C756    1.333   1_565 S
C1163  H783    1.087   1_565 S
C1165  O1201   1.306   .     A
C1165  C1167   1.471   .     S
C1165  O1199   1.309   .     A
C1166  O1202   1.305   .     A
C1166  C1168   1.468   .     S
C1166  O1200   1.308   .     A
C1167  C1173   1.397   .     A
C1167  C1171   1.398   .     A
C1168  C1174   1.393   .     A
C1168  C1172   1.396   .     A
C1169  C1177   1.413   .     A
C1169  C1171   1.400   .     A
C1170  C1172   1.407   .     A
C1170  C1178   1.415   .     A
C1170  O1075   1.391   1_655 S
C1171  H1188   1.082   .     S
C1172  H1187   1.081   .     S
C1173  H1186   1.073   .     S
C1173  C1175   1.404   .     A
C1174  H1185   1.075   .     S
C1174  C1176   1.403   .     A
C1175  C1179   1.427   .     A
C1175  C1177   1.419   .     A
C1176  C1178   1.421   .     A
C1176  C1180   1.428   .     A
C1177  C549    1.393   1_556 S
C1179  C568    1.422   1_556 S
Cu1181 O1198   1.947   .     S
Cu1181 N1194   2.040   .     S
Cu1181 O1199   1.939   .     S
Cu1181 O1195   1.947   .     S
Cu1181 Cu1182  2.714   .     S
Cu1181 O1202   1.921   .     S
Cu1182 N1193   2.040   .     S
Cu1182 O1196   1.947   .     S
Cu1182 O1200   1.939   .     S
Cu1182 O1201   1.921   .     S
Cu1182 O1197   1.947   .     S
H1192  C756    1.087   1_565 S
N1193  C1219   1.414   .     S
N1193  N1058   1.285   1_655 S
N1194  C1222   1.414   .     S
O1203  C1204   1.410   .     S
O1203  C1033   1.384   1_655 S
C1204  H1206   1.113   .     S
C1204  H1205   1.115   .     S
C1204  C1207   1.521   .     S
C1207  H1208   1.111   .     S
C1207  H598    1.111   1_556 S
H1209  C799    1.111   1_565 S
O1211  C1212   1.417   .     S
C1212  C1215   1.524   .     S
C1212  H1213   1.116   .     S
C1212  H1214   1.111   .     S
C1215  H1217   1.110   .     S
C1215  H1216   1.110   .     S
C1215  H1218   1.110   .     S
C1219  O1221   1.219   .     D
C1219  H1084   1.080   1_655 S
C1222  O1224   1.219   .     D
H1223  C1086   1.081   1_655 S
