data_str_m2_o2_o10_pcu_sym.68
_audit_creation_date              2020-01-03
_audit_creation_method            'Materials Studio'
_symmetry_space_group_name_H-M    'P1'
_symmetry_Int_Tables_number       1
_symmetry_cell_setting            triclinic
loop_
_symmetry_equiv_pos_as_xyz
  x,y,z
_cell_length_a                    26.0811
_cell_length_b                    30.2209
_cell_length_c                    27.7899
_cell_angle_alpha                 89.9235
_cell_angle_beta                  97.6838
_cell_angle_gamma                 91.0321
loop_
_atom_site_label
_atom_site_type_symbol
_atom_site_fract_x
_atom_site_fract_y
_atom_site_fract_z
_atom_site_U_iso_or_equiv
_atom_site_adp_type
_atom_site_occupancy
C1     C     0.16696   0.16490   0.25002   0.00000  Uiso   1.00
C2     C     0.19082   0.28469   0.44879   0.00000  Uiso   1.00
C3     C     0.16495   0.25134   0.02705   0.00000  Uiso   1.00
C4     C     0.16499   0.25137   0.47244   0.00000  Uiso   1.00
C5     C     0.06794   0.25006   0.23762   0.00000  Uiso   1.00
C6     C     0.26539   0.25065   0.26237   0.00000  Uiso   1.00
C7     C     0.01267   0.24966   0.23075   0.00000  Uiso   1.00
C8     C     0.32064   0.25227   0.26914   0.00000  Uiso   1.00
C9     C     0.16272   0.04637   0.29047   0.00000  Uiso   1.00
C10    C     0.14686   0.45259   0.21074   0.00000  Uiso   1.00
C11    C     0.16050   0.09225   0.29104   0.00000  Uiso   1.00
C12    C     0.16713   0.33499   0.25001   0.00000  Uiso   1.00
C13    C     0.14467   0.40666   0.21060   0.00000  Uiso   1.00
C14    C     0.16919   0.11660   0.24993   0.00000  Uiso   1.00
C15    C     0.16952   0.38314   0.25008   0.00000  Uiso   1.00
C16    C     0.18068   0.09457   0.20846   0.00000  Uiso   1.00
C17    C     0.19753   0.40573   0.28927   0.00000  Uiso   1.00
C18    C     0.18536   0.04876   0.20818   0.00000  Uiso   1.00
C19    C     0.20247   0.45175   0.28865   0.00000  Uiso   1.00
C20    C     0.17521   0.02419   0.24936   0.00000  Uiso   1.00
C21    C     0.17560   0.47557   0.24946   0.00000  Uiso   1.00
C22    C     0.24768   0.01627   0.16940   0.00000  Uiso   1.00
C23    C     0.20568   0.27124   0.05830   0.00000  Uiso   1.00
C24    C     0.28426   0.05618   0.16569   0.00000  Uiso   1.00
C25    C     0.00611   0.04140   0.16278   0.00000  Uiso   1.00
C26    C     0.27845   0.48840   0.31803   0.00000  Uiso   1.00
C27    C     0.31751   0.45089   0.31850   0.00000  Uiso   1.00
C28    C     0.03758   0.46866   0.31052   0.00000  Uiso   1.00
C29    C     0.24835   0.33593   0.13405   0.00000  Uiso   1.00
C30    C     0.28775   0.35500   0.17479   0.00000  Uiso   1.00
C31    C     0.28956   0.40539   0.17339   0.00000  Uiso   1.00
C32    C     0.06251   0.18060   0.36585   0.00000  Uiso   1.00
C33    C     0.04779   0.13458   0.38306   0.00000  Uiso   1.00
C34    C     0.13987   0.21751   0.44309   0.00000  Uiso   1.00
C35    C     0.32251   0.12875   0.38025   0.00000  Uiso   1.00
C36    C     0.20537   0.27150   0.10912   0.00000  Uiso   1.00
C37    C     0.13961   0.21786   0.39214   0.00000  Uiso   1.00
C38    C     0.12681   0.23013   0.09989   0.00000  Uiso   1.00
C39    C     0.19164   0.28313   0.39826   0.00000  Uiso   1.00
C40    C     0.12492   0.23082   0.04899   0.00000  Uiso   1.00
Cu41   Cu    0.16667   0.24999   0.29822   0.00000  Uiso   1.00
Cu42   Cu    0.16667   0.25000   0.20179   0.00000  Uiso   1.00
H43    H     0.32616   0.24666   0.19391   0.00000  Uiso   1.00
H44    H     0.12123   0.19013   0.45934   0.00000  Uiso   1.00
H45    H     0.09593   0.21370   0.11575   0.00000  Uiso   1.00
H46    H     0.21217   0.30883   0.38110   0.00000  Uiso   1.00
H47    H     0.09190   0.21553   0.02718   0.00000  Uiso   1.00
H48    H     0.21013   0.31223   0.46892   0.00000  Uiso   1.00
H49    H     0.25101   0.49376   0.13847   0.00000  Uiso   1.00
H50    H     0.25994   0.49701   0.20285   0.00000  Uiso   1.00
H51    H     0.27038   0.07575   0.13277   0.00000  Uiso   1.00
H52    H     0.28477   0.07775   0.19810   0.00000  Uiso   1.00
H53    H     0.02087   0.02196   0.19548   0.00000  Uiso   1.00
H54    H     0.00715   0.25574   0.30593   0.00000  Uiso   1.00
H55    H     0.03177   0.07088   0.16077   0.00000  Uiso   1.00
H56    H     0.00732   0.02079   0.12990   0.00000  Uiso   1.00
H57    H     0.29350   0.01258   0.34679   0.00000  Uiso   1.00
H58    H     0.27548   0.00700   0.28336   0.00000  Uiso   1.00
H59    H     0.32058   0.43345   0.35396   0.00000  Uiso   1.00
H60    H     0.30411   0.42666   0.28931   0.00000  Uiso   1.00
H61    H     0.03552   0.48556   0.27485   0.00000  Uiso   1.00
H62    H     0.06487   0.44083   0.31092   0.00000  Uiso   1.00
H63    H     0.05269   0.49236   0.33975   0.00000  Uiso   1.00
H64    H     0.20975   0.35028   0.13690   0.00000  Uiso   1.00
H65    H     0.15387   0.02811   0.32198   0.00000  Uiso   1.00
H66    H     0.26063   0.34542   0.09856   0.00000  Uiso   1.00
H67    H     0.27725   0.34420   0.21052   0.00000  Uiso   1.00
H68    H     0.32678   0.34225   0.17118   0.00000  Uiso   1.00
H69    H     0.29947   0.41718   0.13784   0.00000  Uiso   1.00
H70    H     0.31944   0.41814   0.20252   0.00000  Uiso   1.00
H71    H     0.25142   0.41847   0.17933   0.00000  Uiso   1.00
H72    H     0.04296   0.18501   0.32822   0.00000  Uiso   1.00
H73    H     0.04740   0.20646   0.38870   0.00000  Uiso   1.00
H74    H     0.06255   0.10901   0.35994   0.00000  Uiso   1.00
H75    H     0.06584   0.12954   0.42115   0.00000  Uiso   1.00
H76    H     0.12529   0.47023   0.18090   0.00000  Uiso   1.00
H77    H     0.30683   0.15355   0.40360   0.00000  Uiso   1.00
H78    H     0.31310   0.09511   0.39301   0.00000  Uiso   1.00
H79    H     0.30373   0.13262   0.34219   0.00000  Uiso   1.00
H80    H     0.15117   0.10854   0.32334   0.00000  Uiso   1.00
H81    H     0.12249   0.38952   0.18025   0.00000  Uiso   1.00
H82    H     0.18715   0.11290   0.17621   0.00000  Uiso   1.00
H83    H     0.21690   0.38758   0.31991   0.00000  Uiso   1.00
H84    H     0.23864   0.28565   0.04381   0.00000  Uiso   1.00
N85    N     0.16667   0.25001   0.12935   0.00000  Uiso   1.00
N86    N     0.16667   0.24999   0.37066   0.00000  Uiso   1.00
O87    O     0.16667   0.18572   0.29072   0.00000  Uiso   1.00
O88    O     0.22978   0.47264   0.32878   0.00000  Uiso   1.00
O89    O     0.24711   0.28946   0.13892   0.00000  Uiso   1.00
O90    O     0.11655   0.18318   0.36429   0.00000  Uiso   1.00
O91    O     0.16666   0.31427   0.20928   0.00000  Uiso   1.00
O92    O     0.16667   0.18573   0.20928   0.00000  Uiso   1.00
O93    O     0.16666   0.31427   0.29072   0.00000  Uiso   1.00
O94    O     0.09161   0.25000   0.28132   0.00000  Uiso   1.00
O95    O     0.24172   0.25000   0.21868   0.00000  Uiso   1.00
O96    O     0.09161   0.25000   0.19988   0.00000  Uiso   1.00
O97    O     0.24172   0.25000   0.30012   0.00000  Uiso   1.00
O98    O     0.19524   0.02872   0.16565   0.00000  Uiso   1.00
C99    C     0.50030   0.16490   0.25002   0.00000  Uiso   1.00
C100   C     0.52416   0.28469   0.44879   0.00000  Uiso   1.00
C101   C     0.49829   0.25134   0.02705   0.00000  Uiso   1.00
C102   C     0.49832   0.25137   0.47244   0.00000  Uiso   1.00
C103   C     0.40128   0.25006   0.23762   0.00000  Uiso   1.00
C104   C     0.59872   0.25065   0.26237   0.00000  Uiso   1.00
C105   C     0.34601   0.24966   0.23075   0.00000  Uiso   1.00
C106   C     0.65397   0.25227   0.26914   0.00000  Uiso   1.00
C107   C     0.49605   0.04637   0.29047   0.00000  Uiso   1.00
C108   C     0.48019   0.45259   0.21074   0.00000  Uiso   1.00
C109   C     0.49383   0.09225   0.29104   0.00000  Uiso   1.00
C110   C     0.50047   0.33499   0.25001   0.00000  Uiso   1.00
C111   C     0.47800   0.40666   0.21060   0.00000  Uiso   1.00
C112   C     0.50253   0.11660   0.24993   0.00000  Uiso   1.00
C113   C     0.50285   0.38314   0.25008   0.00000  Uiso   1.00
C114   C     0.51401   0.09457   0.20846   0.00000  Uiso   1.00
C115   C     0.53086   0.40573   0.28927   0.00000  Uiso   1.00
C116   C     0.51870   0.04876   0.20818   0.00000  Uiso   1.00
C117   C     0.53580   0.45175   0.28865   0.00000  Uiso   1.00
C118   C     0.50855   0.02419   0.24936   0.00000  Uiso   1.00
C119   C     0.50893   0.47557   0.24946   0.00000  Uiso   1.00
C120   C     0.58101   0.01627   0.16940   0.00000  Uiso   1.00
C121   C     0.53901   0.27124   0.05830   0.00000  Uiso   1.00
C122   C     0.61759   0.05618   0.16569   0.00000  Uiso   1.00
C123   C     0.33944   0.04140   0.16278   0.00000  Uiso   1.00
C124   C     0.61179   0.48840   0.31803   0.00000  Uiso   1.00
C125   C     0.65084   0.45089   0.31850   0.00000  Uiso   1.00
C126   C     0.37091   0.46866   0.31052   0.00000  Uiso   1.00
C127   C     0.58168   0.33593   0.13405   0.00000  Uiso   1.00
C128   C     0.62108   0.35500   0.17479   0.00000  Uiso   1.00
C129   C     0.62289   0.40539   0.17339   0.00000  Uiso   1.00
C130   C     0.39585   0.18060   0.36585   0.00000  Uiso   1.00
C131   C     0.38112   0.13458   0.38306   0.00000  Uiso   1.00
C132   C     0.47320   0.21751   0.44309   0.00000  Uiso   1.00
C133   C     0.65584   0.12875   0.38025   0.00000  Uiso   1.00
C134   C     0.53871   0.27150   0.10912   0.00000  Uiso   1.00
C135   C     0.47295   0.21786   0.39214   0.00000  Uiso   1.00
C136   C     0.46014   0.23013   0.09989   0.00000  Uiso   1.00
C137   C     0.52497   0.28313   0.39826   0.00000  Uiso   1.00
C138   C     0.45826   0.23082   0.04899   0.00000  Uiso   1.00
Cu139  Cu    0.50000   0.24999   0.29822   0.00000  Uiso   1.00
Cu140  Cu    0.50000   0.25000   0.20179   0.00000  Uiso   1.00
H141   H     0.65949   0.24666   0.19391   0.00000  Uiso   1.00
H142   H     0.45457   0.19013   0.45934   0.00000  Uiso   1.00
H143   H     0.42926   0.21370   0.11575   0.00000  Uiso   1.00
H144   H     0.54551   0.30883   0.38110   0.00000  Uiso   1.00
H145   H     0.42523   0.21553   0.02718   0.00000  Uiso   1.00
H146   H     0.54346   0.31223   0.46892   0.00000  Uiso   1.00
H147   H     0.58434   0.49376   0.13847   0.00000  Uiso   1.00
H148   H     0.59328   0.49701   0.20285   0.00000  Uiso   1.00
H149   H     0.60371   0.07575   0.13277   0.00000  Uiso   1.00
H150   H     0.61810   0.07775   0.19810   0.00000  Uiso   1.00
H151   H     0.35420   0.02196   0.19548   0.00000  Uiso   1.00
H152   H     0.34048   0.25574   0.30593   0.00000  Uiso   1.00
H153   H     0.36510   0.07088   0.16077   0.00000  Uiso   1.00
H154   H     0.34065   0.02079   0.12990   0.00000  Uiso   1.00
H155   H     0.62684   0.01258   0.34679   0.00000  Uiso   1.00
H156   H     0.60881   0.00700   0.28336   0.00000  Uiso   1.00
H157   H     0.65391   0.43345   0.35396   0.00000  Uiso   1.00
H158   H     0.63745   0.42666   0.28931   0.00000  Uiso   1.00
H159   H     0.36885   0.48556   0.27485   0.00000  Uiso   1.00
H160   H     0.39821   0.44083   0.31092   0.00000  Uiso   1.00
H161   H     0.38602   0.49236   0.33975   0.00000  Uiso   1.00
H162   H     0.54309   0.35028   0.13690   0.00000  Uiso   1.00
H163   H     0.48720   0.02811   0.32198   0.00000  Uiso   1.00
H164   H     0.59396   0.34542   0.09856   0.00000  Uiso   1.00
H165   H     0.61058   0.34420   0.21052   0.00000  Uiso   1.00
H166   H     0.66011   0.34225   0.17118   0.00000  Uiso   1.00
H167   H     0.63280   0.41718   0.13784   0.00000  Uiso   1.00
H168   H     0.65277   0.41814   0.20252   0.00000  Uiso   1.00
H169   H     0.58475   0.41847   0.17933   0.00000  Uiso   1.00
H170   H     0.37630   0.18501   0.32822   0.00000  Uiso   1.00
H171   H     0.38073   0.20646   0.38870   0.00000  Uiso   1.00
H172   H     0.39589   0.10901   0.35994   0.00000  Uiso   1.00
H173   H     0.39917   0.12954   0.42115   0.00000  Uiso   1.00
H174   H     0.45862   0.47023   0.18090   0.00000  Uiso   1.00
H175   H     0.64016   0.15355   0.40360   0.00000  Uiso   1.00
H176   H     0.64643   0.09511   0.39301   0.00000  Uiso   1.00
H177   H     0.63706   0.13262   0.34219   0.00000  Uiso   1.00
H178   H     0.48450   0.10854   0.32334   0.00000  Uiso   1.00
H179   H     0.45583   0.38952   0.18025   0.00000  Uiso   1.00
H180   H     0.52049   0.11290   0.17621   0.00000  Uiso   1.00
H181   H     0.55023   0.38758   0.31991   0.00000  Uiso   1.00
H182   H     0.57197   0.28565   0.04381   0.00000  Uiso   1.00
N183   N     0.50000   0.25001   0.12935   0.00000  Uiso   1.00
N184   N     0.50000   0.24999   0.37066   0.00000  Uiso   1.00
O185   O     0.50000   0.18572   0.29072   0.00000  Uiso   1.00
O186   O     0.56312   0.47264   0.32878   0.00000  Uiso   1.00
O187   O     0.58044   0.28946   0.13892   0.00000  Uiso   1.00
O188   O     0.44988   0.18318   0.36429   0.00000  Uiso   1.00
O189   O     0.50000   0.31427   0.20928   0.00000  Uiso   1.00
O190   O     0.50000   0.18573   0.20928   0.00000  Uiso   1.00
O191   O     0.50000   0.31427   0.29072   0.00000  Uiso   1.00
O192   O     0.42495   0.25000   0.28132   0.00000  Uiso   1.00
O193   O     0.57505   0.25000   0.21868   0.00000  Uiso   1.00
O194   O     0.42495   0.25000   0.19988   0.00000  Uiso   1.00
O195   O     0.57505   0.25000   0.30012   0.00000  Uiso   1.00
O196   O     0.52857   0.02872   0.16565   0.00000  Uiso   1.00
C197   C     0.83363   0.16490   0.25002   0.00000  Uiso   1.00
C198   C     0.85749   0.28469   0.44879   0.00000  Uiso   1.00
C199   C     0.83162   0.25134   0.02705   0.00000  Uiso   1.00
C200   C     0.83166   0.25137   0.47244   0.00000  Uiso   1.00
C201   C     0.73461   0.25006   0.23762   0.00000  Uiso   1.00
C202   C     0.93205   0.25065   0.26237   0.00000  Uiso   1.00
C203   C     0.67934   0.24966   0.23075   0.00000  Uiso   1.00
C204   C     0.98730   0.25227   0.26914   0.00000  Uiso   1.00
C205   C     0.82938   0.04637   0.29047   0.00000  Uiso   1.00
C206   C     0.81352   0.45259   0.21074   0.00000  Uiso   1.00
C207   C     0.82717   0.09225   0.29104   0.00000  Uiso   1.00
C208   C     0.83380   0.33499   0.25001   0.00000  Uiso   1.00
C209   C     0.81133   0.40666   0.21060   0.00000  Uiso   1.00
C210   C     0.83586   0.11660   0.24993   0.00000  Uiso   1.00
C211   C     0.83619   0.38314   0.25008   0.00000  Uiso   1.00
C212   C     0.84735   0.09457   0.20846   0.00000  Uiso   1.00
C213   C     0.86420   0.40573   0.28927   0.00000  Uiso   1.00
C214   C     0.85203   0.04876   0.20818   0.00000  Uiso   1.00
C215   C     0.86913   0.45175   0.28865   0.00000  Uiso   1.00
C216   C     0.84188   0.02419   0.24936   0.00000  Uiso   1.00
C217   C     0.84227   0.47557   0.24946   0.00000  Uiso   1.00
C218   C     0.91434   0.01627   0.16940   0.00000  Uiso   1.00
C219   C     0.87235   0.27124   0.05830   0.00000  Uiso   1.00
C220   C     0.95093   0.05618   0.16569   0.00000  Uiso   1.00
C221   C     0.67277   0.04140   0.16278   0.00000  Uiso   1.00
C222   C     0.94512   0.48840   0.31803   0.00000  Uiso   1.00
C223   C     0.98418   0.45089   0.31850   0.00000  Uiso   1.00
C224   C     0.70425   0.46866   0.31052   0.00000  Uiso   1.00
C225   C     0.91501   0.33593   0.13405   0.00000  Uiso   1.00
C226   C     0.95442   0.35500   0.17479   0.00000  Uiso   1.00
C227   C     0.95622   0.40539   0.17339   0.00000  Uiso   1.00
C228   C     0.72918   0.18060   0.36585   0.00000  Uiso   1.00
C229   C     0.71445   0.13458   0.38306   0.00000  Uiso   1.00
C230   C     0.80653   0.21751   0.44309   0.00000  Uiso   1.00
C231   C     0.98918   0.12875   0.38025   0.00000  Uiso   1.00
C232   C     0.87204   0.27150   0.10912   0.00000  Uiso   1.00
C233   C     0.80628   0.21786   0.39214   0.00000  Uiso   1.00
C234   C     0.79348   0.23013   0.09989   0.00000  Uiso   1.00
C235   C     0.85830   0.28313   0.39826   0.00000  Uiso   1.00
C236   C     0.79159   0.23082   0.04899   0.00000  Uiso   1.00
Cu237  Cu    0.83333   0.24999   0.29822   0.00000  Uiso   1.00
Cu238  Cu    0.83333   0.25000   0.20179   0.00000  Uiso   1.00
H239   H     0.99283   0.24666   0.19391   0.00000  Uiso   1.00
H240   H     0.78790   0.19013   0.45934   0.00000  Uiso   1.00
H241   H     0.76260   0.21370   0.11575   0.00000  Uiso   1.00
H242   H     0.87884   0.30883   0.38110   0.00000  Uiso   1.00
H243   H     0.75857   0.21553   0.02718   0.00000  Uiso   1.00
H244   H     0.87680   0.31223   0.46892   0.00000  Uiso   1.00
H245   H     0.91767   0.49376   0.13847   0.00000  Uiso   1.00
H246   H     0.92661   0.49701   0.20285   0.00000  Uiso   1.00
H247   H     0.93705   0.07575   0.13277   0.00000  Uiso   1.00
H248   H     0.95144   0.07775   0.19810   0.00000  Uiso   1.00
H249   H     0.68754   0.02196   0.19548   0.00000  Uiso   1.00
H250   H     0.67381   0.25574   0.30593   0.00000  Uiso   1.00
H251   H     0.69844   0.07088   0.16077   0.00000  Uiso   1.00
H252   H     0.67399   0.02079   0.12990   0.00000  Uiso   1.00
H253   H     0.96017   0.01258   0.34679   0.00000  Uiso   1.00
H254   H     0.94214   0.00700   0.28336   0.00000  Uiso   1.00
H255   H     0.98725   0.43345   0.35396   0.00000  Uiso   1.00
H256   H     0.97078   0.42666   0.28931   0.00000  Uiso   1.00
H257   H     0.70218   0.48556   0.27485   0.00000  Uiso   1.00
H258   H     0.73154   0.44083   0.31092   0.00000  Uiso   1.00
H259   H     0.71935   0.49236   0.33975   0.00000  Uiso   1.00
H260   H     0.87642   0.35028   0.13690   0.00000  Uiso   1.00
H261   H     0.82053   0.02811   0.32198   0.00000  Uiso   1.00
H262   H     0.92729   0.34542   0.09856   0.00000  Uiso   1.00
H263   H     0.94391   0.34420   0.21052   0.00000  Uiso   1.00
H264   H     0.99345   0.34225   0.17118   0.00000  Uiso   1.00
H265   H     0.96613   0.41718   0.13784   0.00000  Uiso   1.00
H266   H     0.98610   0.41814   0.20252   0.00000  Uiso   1.00
H267   H     0.91809   0.41847   0.17933   0.00000  Uiso   1.00
H268   H     0.70963   0.18501   0.32822   0.00000  Uiso   1.00
H269   H     0.71406   0.20646   0.38870   0.00000  Uiso   1.00
H270   H     0.72922   0.10901   0.35994   0.00000  Uiso   1.00
H271   H     0.73251   0.12954   0.42115   0.00000  Uiso   1.00
H272   H     0.79195   0.47023   0.18090   0.00000  Uiso   1.00
H273   H     0.97349   0.15355   0.40360   0.00000  Uiso   1.00
H274   H     0.97976   0.09511   0.39301   0.00000  Uiso   1.00
H275   H     0.97040   0.13262   0.34219   0.00000  Uiso   1.00
H276   H     0.81783   0.10854   0.32334   0.00000  Uiso   1.00
H277   H     0.78916   0.38952   0.18025   0.00000  Uiso   1.00
H278   H     0.85382   0.11290   0.17621   0.00000  Uiso   1.00
H279   H     0.88357   0.38758   0.31991   0.00000  Uiso   1.00
H280   H     0.90530   0.28565   0.04381   0.00000  Uiso   1.00
N281   N     0.83333   0.25001   0.12935   0.00000  Uiso   1.00
N282   N     0.83333   0.24999   0.37066   0.00000  Uiso   1.00
O283   O     0.83334   0.18572   0.29072   0.00000  Uiso   1.00
O284   O     0.89645   0.47264   0.32878   0.00000  Uiso   1.00
O285   O     0.91378   0.28946   0.13892   0.00000  Uiso   1.00
O286   O     0.78322   0.18318   0.36429   0.00000  Uiso   1.00
O287   O     0.83333   0.31427   0.20928   0.00000  Uiso   1.00
O288   O     0.83334   0.18573   0.20928   0.00000  Uiso   1.00
O289   O     0.83333   0.31427   0.29072   0.00000  Uiso   1.00
O290   O     0.75828   0.25000   0.28132   0.00000  Uiso   1.00
O291   O     0.90839   0.25000   0.21868   0.00000  Uiso   1.00
O292   O     0.75828   0.25000   0.19988   0.00000  Uiso   1.00
O293   O     0.90839   0.25000   0.30012   0.00000  Uiso   1.00
O294   O     0.86191   0.02872   0.16565   0.00000  Uiso   1.00
C295   C     0.16696   0.66490   0.25002   0.00000  Uiso   1.00
C296   C     0.19082   0.78469   0.44879   0.00000  Uiso   1.00
C297   C     0.16495   0.75134   0.02705   0.00000  Uiso   1.00
C298   C     0.16499   0.75137   0.47244   0.00000  Uiso   1.00
C299   C     0.06794   0.75006   0.23762   0.00000  Uiso   1.00
C300   C     0.26539   0.75065   0.26237   0.00000  Uiso   1.00
C301   C     0.01267   0.74966   0.23075   0.00000  Uiso   1.00
C302   C     0.32064   0.75227   0.26914   0.00000  Uiso   1.00
C303   C     0.16272   0.54637   0.29047   0.00000  Uiso   1.00
C304   C     0.14686   0.95259   0.21074   0.00000  Uiso   1.00
C305   C     0.16050   0.59225   0.29104   0.00000  Uiso   1.00
C306   C     0.16713   0.83499   0.25001   0.00000  Uiso   1.00
C307   C     0.14467   0.90666   0.21060   0.00000  Uiso   1.00
C308   C     0.16919   0.61660   0.24993   0.00000  Uiso   1.00
C309   C     0.16952   0.88314   0.25008   0.00000  Uiso   1.00
C310   C     0.18068   0.59457   0.20846   0.00000  Uiso   1.00
C311   C     0.19753   0.90573   0.28927   0.00000  Uiso   1.00
C312   C     0.18536   0.54876   0.20818   0.00000  Uiso   1.00
C313   C     0.20247   0.95175   0.28865   0.00000  Uiso   1.00
C314   C     0.17521   0.52419   0.24936   0.00000  Uiso   1.00
C315   C     0.17560   0.97557   0.24946   0.00000  Uiso   1.00
C316   C     0.24768   0.51627   0.16940   0.00000  Uiso   1.00
C317   C     0.20568   0.77124   0.05830   0.00000  Uiso   1.00
C318   C     0.28426   0.55618   0.16569   0.00000  Uiso   1.00
C319   C     0.00611   0.54140   0.16278   0.00000  Uiso   1.00
C320   C     0.27845   0.98840   0.31803   0.00000  Uiso   1.00
C321   C     0.31751   0.95089   0.31850   0.00000  Uiso   1.00
C322   C     0.03758   0.96866   0.31052   0.00000  Uiso   1.00
C323   C     0.24835   0.83593   0.13405   0.00000  Uiso   1.00
C324   C     0.28775   0.85500   0.17479   0.00000  Uiso   1.00
C325   C     0.28956   0.90539   0.17339   0.00000  Uiso   1.00
C326   C     0.06251   0.68060   0.36585   0.00000  Uiso   1.00
C327   C     0.04779   0.63458   0.38306   0.00000  Uiso   1.00
C328   C     0.13987   0.71751   0.44309   0.00000  Uiso   1.00
C329   C     0.32251   0.62875   0.38025   0.00000  Uiso   1.00
C330   C     0.20537   0.77150   0.10912   0.00000  Uiso   1.00
C331   C     0.13961   0.71786   0.39214   0.00000  Uiso   1.00
C332   C     0.12681   0.73013   0.09989   0.00000  Uiso   1.00
C333   C     0.19164   0.78313   0.39826   0.00000  Uiso   1.00
C334   C     0.12492   0.73082   0.04899   0.00000  Uiso   1.00
Cu335  Cu    0.16667   0.74999   0.29822   0.00000  Uiso   1.00
Cu336  Cu    0.16667   0.75000   0.20179   0.00000  Uiso   1.00
H337   H     0.32616   0.74666   0.19391   0.00000  Uiso   1.00
H338   H     0.12123   0.69013   0.45934   0.00000  Uiso   1.00
H339   H     0.09593   0.71370   0.11575   0.00000  Uiso   1.00
H340   H     0.21217   0.80883   0.38110   0.00000  Uiso   1.00
H341   H     0.09190   0.71553   0.02718   0.00000  Uiso   1.00
H342   H     0.21013   0.81223   0.46892   0.00000  Uiso   1.00
H343   H     0.25101   0.99376   0.13847   0.00000  Uiso   1.00
H344   H     0.25994   0.99701   0.20285   0.00000  Uiso   1.00
H345   H     0.27038   0.57575   0.13277   0.00000  Uiso   1.00
H346   H     0.28477   0.57775   0.19810   0.00000  Uiso   1.00
H347   H     0.02087   0.52196   0.19548   0.00000  Uiso   1.00
H348   H     0.00715   0.75574   0.30593   0.00000  Uiso   1.00
H349   H     0.03177   0.57088   0.16077   0.00000  Uiso   1.00
H350   H     0.00732   0.52079   0.12990   0.00000  Uiso   1.00
H351   H     0.29350   0.51258   0.34679   0.00000  Uiso   1.00
H352   H     0.27548   0.50700   0.28336   0.00000  Uiso   1.00
H353   H     0.32058   0.93345   0.35396   0.00000  Uiso   1.00
H354   H     0.30411   0.92666   0.28931   0.00000  Uiso   1.00
H355   H     0.03552   0.98556   0.27485   0.00000  Uiso   1.00
H356   H     0.06487   0.94083   0.31092   0.00000  Uiso   1.00
H357   H     0.05269   0.99236   0.33975   0.00000  Uiso   1.00
H358   H     0.20975   0.85028   0.13690   0.00000  Uiso   1.00
H359   H     0.15387   0.52811   0.32198   0.00000  Uiso   1.00
H360   H     0.26063   0.84542   0.09856   0.00000  Uiso   1.00
H361   H     0.27725   0.84420   0.21052   0.00000  Uiso   1.00
H362   H     0.32678   0.84225   0.17118   0.00000  Uiso   1.00
H363   H     0.29947   0.91718   0.13784   0.00000  Uiso   1.00
H364   H     0.31944   0.91814   0.20252   0.00000  Uiso   1.00
H365   H     0.25142   0.91847   0.17933   0.00000  Uiso   1.00
H366   H     0.04296   0.68501   0.32822   0.00000  Uiso   1.00
H367   H     0.04740   0.70646   0.38870   0.00000  Uiso   1.00
H368   H     0.06255   0.60901   0.35994   0.00000  Uiso   1.00
H369   H     0.06584   0.62954   0.42115   0.00000  Uiso   1.00
H370   H     0.12529   0.97023   0.18090   0.00000  Uiso   1.00
H371   H     0.30683   0.65355   0.40360   0.00000  Uiso   1.00
H372   H     0.31310   0.59511   0.39301   0.00000  Uiso   1.00
H373   H     0.30373   0.63262   0.34219   0.00000  Uiso   1.00
H374   H     0.15117   0.60854   0.32334   0.00000  Uiso   1.00
H375   H     0.12249   0.88952   0.18025   0.00000  Uiso   1.00
H376   H     0.18715   0.61290   0.17621   0.00000  Uiso   1.00
H377   H     0.21690   0.88758   0.31991   0.00000  Uiso   1.00
H378   H     0.23864   0.78565   0.04381   0.00000  Uiso   1.00
N379   N     0.16667   0.75001   0.12935   0.00000  Uiso   1.00
N380   N     0.16667   0.74999   0.37066   0.00000  Uiso   1.00
O381   O     0.16667   0.68572   0.29072   0.00000  Uiso   1.00
O382   O     0.22978   0.97264   0.32878   0.00000  Uiso   1.00
O383   O     0.24711   0.78946   0.13892   0.00000  Uiso   1.00
O384   O     0.11655   0.68318   0.36429   0.00000  Uiso   1.00
O385   O     0.16666   0.81427   0.20928   0.00000  Uiso   1.00
O386   O     0.16667   0.68573   0.20928   0.00000  Uiso   1.00
O387   O     0.16666   0.81427   0.29072   0.00000  Uiso   1.00
O388   O     0.09161   0.75000   0.28132   0.00000  Uiso   1.00
O389   O     0.24172   0.75000   0.21868   0.00000  Uiso   1.00
O390   O     0.09161   0.75000   0.19988   0.00000  Uiso   1.00
O391   O     0.24172   0.75000   0.30012   0.00000  Uiso   1.00
O392   O     0.19524   0.52872   0.16565   0.00000  Uiso   1.00
C393   C     0.50030   0.66490   0.25002   0.00000  Uiso   1.00
C394   C     0.52416   0.78469   0.44879   0.00000  Uiso   1.00
C395   C     0.49829   0.75134   0.02705   0.00000  Uiso   1.00
C396   C     0.49832   0.75137   0.47244   0.00000  Uiso   1.00
C397   C     0.40128   0.75006   0.23762   0.00000  Uiso   1.00
C398   C     0.59872   0.75065   0.26237   0.00000  Uiso   1.00
C399   C     0.34601   0.74966   0.23075   0.00000  Uiso   1.00
C400   C     0.65397   0.75227   0.26914   0.00000  Uiso   1.00
C401   C     0.49605   0.54637   0.29047   0.00000  Uiso   1.00
C402   C     0.48019   0.95259   0.21074   0.00000  Uiso   1.00
C403   C     0.49383   0.59225   0.29104   0.00000  Uiso   1.00
C404   C     0.50047   0.83499   0.25001   0.00000  Uiso   1.00
C405   C     0.47800   0.90666   0.21060   0.00000  Uiso   1.00
C406   C     0.50253   0.61660   0.24993   0.00000  Uiso   1.00
C407   C     0.50285   0.88314   0.25008   0.00000  Uiso   1.00
C408   C     0.51401   0.59457   0.20846   0.00000  Uiso   1.00
C409   C     0.53086   0.90573   0.28927   0.00000  Uiso   1.00
C410   C     0.51870   0.54876   0.20818   0.00000  Uiso   1.00
C411   C     0.53580   0.95175   0.28865   0.00000  Uiso   1.00
C412   C     0.50855   0.52419   0.24936   0.00000  Uiso   1.00
C413   C     0.50893   0.97557   0.24946   0.00000  Uiso   1.00
C414   C     0.58101   0.51627   0.16940   0.00000  Uiso   1.00
C415   C     0.53901   0.77124   0.05830   0.00000  Uiso   1.00
C416   C     0.61759   0.55618   0.16569   0.00000  Uiso   1.00
C417   C     0.33944   0.54140   0.16278   0.00000  Uiso   1.00
C418   C     0.61179   0.98840   0.31803   0.00000  Uiso   1.00
C419   C     0.65084   0.95089   0.31850   0.00000  Uiso   1.00
C420   C     0.37091   0.96866   0.31052   0.00000  Uiso   1.00
C421   C     0.58168   0.83593   0.13405   0.00000  Uiso   1.00
C422   C     0.62108   0.85500   0.17479   0.00000  Uiso   1.00
C423   C     0.62289   0.90539   0.17339   0.00000  Uiso   1.00
C424   C     0.39585   0.68060   0.36585   0.00000  Uiso   1.00
C425   C     0.38112   0.63458   0.38306   0.00000  Uiso   1.00
C426   C     0.47320   0.71751   0.44309   0.00000  Uiso   1.00
C427   C     0.65584   0.62875   0.38025   0.00000  Uiso   1.00
C428   C     0.53871   0.77150   0.10912   0.00000  Uiso   1.00
C429   C     0.47295   0.71786   0.39214   0.00000  Uiso   1.00
C430   C     0.46014   0.73013   0.09989   0.00000  Uiso   1.00
C431   C     0.52497   0.78313   0.39826   0.00000  Uiso   1.00
C432   C     0.45826   0.73082   0.04899   0.00000  Uiso   1.00
Cu433  Cu    0.50000   0.74999   0.29822   0.00000  Uiso   1.00
Cu434  Cu    0.50000   0.75000   0.20179   0.00000  Uiso   1.00
H435   H     0.65949   0.74666   0.19391   0.00000  Uiso   1.00
H436   H     0.45457   0.69013   0.45934   0.00000  Uiso   1.00
H437   H     0.42926   0.71370   0.11575   0.00000  Uiso   1.00
H438   H     0.54551   0.80883   0.38110   0.00000  Uiso   1.00
H439   H     0.42523   0.71553   0.02718   0.00000  Uiso   1.00
H440   H     0.54346   0.81223   0.46892   0.00000  Uiso   1.00
H441   H     0.58434   0.99376   0.13847   0.00000  Uiso   1.00
H442   H     0.59328   0.99701   0.20285   0.00000  Uiso   1.00
H443   H     0.60371   0.57575   0.13277   0.00000  Uiso   1.00
H444   H     0.61810   0.57775   0.19810   0.00000  Uiso   1.00
H445   H     0.35420   0.52196   0.19548   0.00000  Uiso   1.00
H446   H     0.34048   0.75574   0.30593   0.00000  Uiso   1.00
H447   H     0.36510   0.57088   0.16077   0.00000  Uiso   1.00
H448   H     0.34065   0.52079   0.12990   0.00000  Uiso   1.00
H449   H     0.62684   0.51258   0.34679   0.00000  Uiso   1.00
H450   H     0.60881   0.50700   0.28336   0.00000  Uiso   1.00
H451   H     0.65391   0.93345   0.35396   0.00000  Uiso   1.00
H452   H     0.63745   0.92666   0.28931   0.00000  Uiso   1.00
H453   H     0.36885   0.98556   0.27485   0.00000  Uiso   1.00
H454   H     0.39821   0.94083   0.31092   0.00000  Uiso   1.00
H455   H     0.38602   0.99236   0.33975   0.00000  Uiso   1.00
H456   H     0.54309   0.85028   0.13690   0.00000  Uiso   1.00
H457   H     0.48720   0.52811   0.32198   0.00000  Uiso   1.00
H458   H     0.59396   0.84542   0.09856   0.00000  Uiso   1.00
H459   H     0.61058   0.84420   0.21052   0.00000  Uiso   1.00
H460   H     0.66011   0.84225   0.17118   0.00000  Uiso   1.00
H461   H     0.63280   0.91718   0.13784   0.00000  Uiso   1.00
H462   H     0.65277   0.91814   0.20252   0.00000  Uiso   1.00
H463   H     0.58475   0.91847   0.17933   0.00000  Uiso   1.00
H464   H     0.37630   0.68501   0.32822   0.00000  Uiso   1.00
H465   H     0.38073   0.70646   0.38870   0.00000  Uiso   1.00
H466   H     0.39589   0.60901   0.35994   0.00000  Uiso   1.00
H467   H     0.39917   0.62954   0.42115   0.00000  Uiso   1.00
H468   H     0.45862   0.97023   0.18090   0.00000  Uiso   1.00
H469   H     0.64016   0.65355   0.40360   0.00000  Uiso   1.00
H470   H     0.64643   0.59511   0.39301   0.00000  Uiso   1.00
H471   H     0.63706   0.63262   0.34219   0.00000  Uiso   1.00
H472   H     0.48450   0.60854   0.32334   0.00000  Uiso   1.00
H473   H     0.45583   0.88952   0.18025   0.00000  Uiso   1.00
H474   H     0.52049   0.61290   0.17621   0.00000  Uiso   1.00
H475   H     0.55023   0.88758   0.31991   0.00000  Uiso   1.00
H476   H     0.57197   0.78565   0.04381   0.00000  Uiso   1.00
N477   N     0.50000   0.75001   0.12935   0.00000  Uiso   1.00
N478   N     0.50000   0.74999   0.37066   0.00000  Uiso   1.00
O479   O     0.50000   0.68572   0.29072   0.00000  Uiso   1.00
O480   O     0.56312   0.97264   0.32878   0.00000  Uiso   1.00
O481   O     0.58044   0.78946   0.13892   0.00000  Uiso   1.00
O482   O     0.44988   0.68318   0.36429   0.00000  Uiso   1.00
O483   O     0.50000   0.81427   0.20928   0.00000  Uiso   1.00
O484   O     0.50000   0.68573   0.20928   0.00000  Uiso   1.00
O485   O     0.50000   0.81427   0.29072   0.00000  Uiso   1.00
O486   O     0.42495   0.75000   0.28132   0.00000  Uiso   1.00
O487   O     0.57505   0.75000   0.21868   0.00000  Uiso   1.00
O488   O     0.42495   0.75000   0.19988   0.00000  Uiso   1.00
O489   O     0.57505   0.75000   0.30012   0.00000  Uiso   1.00
O490   O     0.52857   0.52872   0.16565   0.00000  Uiso   1.00
C491   C     0.83363   0.66490   0.25002   0.00000  Uiso   1.00
C492   C     0.85749   0.78469   0.44879   0.00000  Uiso   1.00
C493   C     0.83162   0.75134   0.02705   0.00000  Uiso   1.00
C494   C     0.83166   0.75137   0.47244   0.00000  Uiso   1.00
C495   C     0.73461   0.75006   0.23762   0.00000  Uiso   1.00
C496   C     0.93205   0.75065   0.26237   0.00000  Uiso   1.00
C497   C     0.67934   0.74966   0.23075   0.00000  Uiso   1.00
C498   C     0.98730   0.75227   0.26914   0.00000  Uiso   1.00
C499   C     0.82938   0.54637   0.29047   0.00000  Uiso   1.00
C500   C     0.81352   0.95259   0.21074   0.00000  Uiso   1.00
C501   C     0.82717   0.59225   0.29104   0.00000  Uiso   1.00
C502   C     0.83380   0.83499   0.25001   0.00000  Uiso   1.00
C503   C     0.81133   0.90666   0.21060   0.00000  Uiso   1.00
C504   C     0.83586   0.61660   0.24993   0.00000  Uiso   1.00
C505   C     0.83619   0.88314   0.25008   0.00000  Uiso   1.00
C506   C     0.84735   0.59457   0.20846   0.00000  Uiso   1.00
C507   C     0.86420   0.90573   0.28927   0.00000  Uiso   1.00
C508   C     0.85203   0.54876   0.20818   0.00000  Uiso   1.00
C509   C     0.86913   0.95175   0.28865   0.00000  Uiso   1.00
C510   C     0.84188   0.52419   0.24936   0.00000  Uiso   1.00
C511   C     0.84227   0.97557   0.24946   0.00000  Uiso   1.00
C512   C     0.91434   0.51627   0.16940   0.00000  Uiso   1.00
C513   C     0.87235   0.77124   0.05830   0.00000  Uiso   1.00
C514   C     0.95093   0.55618   0.16569   0.00000  Uiso   1.00
C515   C     0.67277   0.54140   0.16278   0.00000  Uiso   1.00
C516   C     0.94512   0.98840   0.31803   0.00000  Uiso   1.00
C517   C     0.98418   0.95089   0.31850   0.00000  Uiso   1.00
C518   C     0.70425   0.96866   0.31052   0.00000  Uiso   1.00
C519   C     0.91501   0.83593   0.13405   0.00000  Uiso   1.00
C520   C     0.95442   0.85500   0.17479   0.00000  Uiso   1.00
C521   C     0.95622   0.90539   0.17339   0.00000  Uiso   1.00
C522   C     0.72918   0.68060   0.36585   0.00000  Uiso   1.00
C523   C     0.71445   0.63458   0.38306   0.00000  Uiso   1.00
C524   C     0.80653   0.71751   0.44309   0.00000  Uiso   1.00
C525   C     0.98918   0.62875   0.38025   0.00000  Uiso   1.00
C526   C     0.87204   0.77150   0.10912   0.00000  Uiso   1.00
C527   C     0.80628   0.71786   0.39214   0.00000  Uiso   1.00
C528   C     0.79348   0.73013   0.09989   0.00000  Uiso   1.00
C529   C     0.85830   0.78313   0.39826   0.00000  Uiso   1.00
C530   C     0.79159   0.73082   0.04899   0.00000  Uiso   1.00
Cu531  Cu    0.83333   0.74999   0.29822   0.00000  Uiso   1.00
Cu532  Cu    0.83333   0.75000   0.20179   0.00000  Uiso   1.00
H533   H     0.99283   0.74666   0.19391   0.00000  Uiso   1.00
H534   H     0.78790   0.69013   0.45934   0.00000  Uiso   1.00
H535   H     0.76260   0.71370   0.11575   0.00000  Uiso   1.00
H536   H     0.87884   0.80883   0.38110   0.00000  Uiso   1.00
H537   H     0.75857   0.71553   0.02718   0.00000  Uiso   1.00
H538   H     0.87680   0.81223   0.46892   0.00000  Uiso   1.00
H539   H     0.91767   0.99376   0.13847   0.00000  Uiso   1.00
H540   H     0.92661   0.99701   0.20285   0.00000  Uiso   1.00
H541   H     0.93705   0.57575   0.13277   0.00000  Uiso   1.00
H542   H     0.95144   0.57775   0.19810   0.00000  Uiso   1.00
H543   H     0.68754   0.52196   0.19548   0.00000  Uiso   1.00
H544   H     0.67381   0.75574   0.30593   0.00000  Uiso   1.00
H545   H     0.69844   0.57088   0.16077   0.00000  Uiso   1.00
H546   H     0.67399   0.52079   0.12990   0.00000  Uiso   1.00
H547   H     0.96017   0.51258   0.34679   0.00000  Uiso   1.00
H548   H     0.94214   0.50700   0.28336   0.00000  Uiso   1.00
H549   H     0.98725   0.93345   0.35396   0.00000  Uiso   1.00
H550   H     0.97078   0.92666   0.28931   0.00000  Uiso   1.00
H551   H     0.70218   0.98556   0.27485   0.00000  Uiso   1.00
H552   H     0.73154   0.94083   0.31092   0.00000  Uiso   1.00
H553   H     0.71935   0.99236   0.33975   0.00000  Uiso   1.00
H554   H     0.87642   0.85028   0.13690   0.00000  Uiso   1.00
H555   H     0.82053   0.52811   0.32198   0.00000  Uiso   1.00
H556   H     0.92729   0.84542   0.09856   0.00000  Uiso   1.00
H557   H     0.94391   0.84420   0.21052   0.00000  Uiso   1.00
H558   H     0.99345   0.84225   0.17118   0.00000  Uiso   1.00
H559   H     0.96613   0.91718   0.13784   0.00000  Uiso   1.00
H560   H     0.98610   0.91814   0.20252   0.00000  Uiso   1.00
H561   H     0.91809   0.91847   0.17933   0.00000  Uiso   1.00
H562   H     0.70963   0.68501   0.32822   0.00000  Uiso   1.00
H563   H     0.71406   0.70646   0.38870   0.00000  Uiso   1.00
H564   H     0.72922   0.60901   0.35994   0.00000  Uiso   1.00
H565   H     0.73251   0.62954   0.42115   0.00000  Uiso   1.00
H566   H     0.79195   0.97023   0.18090   0.00000  Uiso   1.00
H567   H     0.97349   0.65355   0.40360   0.00000  Uiso   1.00
H568   H     0.97976   0.59511   0.39301   0.00000  Uiso   1.00
H569   H     0.97040   0.63262   0.34219   0.00000  Uiso   1.00
H570   H     0.81783   0.60854   0.32334   0.00000  Uiso   1.00
H571   H     0.78916   0.88952   0.18025   0.00000  Uiso   1.00
H572   H     0.85382   0.61290   0.17621   0.00000  Uiso   1.00
H573   H     0.88357   0.88758   0.31991   0.00000  Uiso   1.00
H574   H     0.90530   0.78565   0.04381   0.00000  Uiso   1.00
N575   N     0.83333   0.75001   0.12935   0.00000  Uiso   1.00
N576   N     0.83333   0.74999   0.37066   0.00000  Uiso   1.00
O577   O     0.83334   0.68572   0.29072   0.00000  Uiso   1.00
O578   O     0.89645   0.97264   0.32878   0.00000  Uiso   1.00
O579   O     0.91378   0.78946   0.13892   0.00000  Uiso   1.00
O580   O     0.78322   0.68318   0.36429   0.00000  Uiso   1.00
O581   O     0.83333   0.81427   0.20928   0.00000  Uiso   1.00
O582   O     0.83334   0.68573   0.20928   0.00000  Uiso   1.00
O583   O     0.83333   0.81427   0.29072   0.00000  Uiso   1.00
O584   O     0.75828   0.75000   0.28132   0.00000  Uiso   1.00
O585   O     0.90839   0.75000   0.21868   0.00000  Uiso   1.00
O586   O     0.75828   0.75000   0.19988   0.00000  Uiso   1.00
O587   O     0.90839   0.75000   0.30012   0.00000  Uiso   1.00
O588   O     0.86191   0.52872   0.16565   0.00000  Uiso   1.00
C589   C     0.16696   0.16490   0.75002   0.00000  Uiso   1.00
C590   C     0.19082   0.28469   0.94879   0.00000  Uiso   1.00
C591   C     0.16495   0.25134   0.52705   0.00000  Uiso   1.00
C592   C     0.16499   0.25137   0.97244   0.00000  Uiso   1.00
C593   C     0.06794   0.25006   0.73762   0.00000  Uiso   1.00
C594   C     0.26539   0.25065   0.76237   0.00000  Uiso   1.00
C595   C     0.01267   0.24966   0.73075   0.00000  Uiso   1.00
C596   C     0.32064   0.25227   0.76914   0.00000  Uiso   1.00
C597   C     0.16272   0.04637   0.79047   0.00000  Uiso   1.00
C598   C     0.14686   0.45259   0.71074   0.00000  Uiso   1.00
C599   C     0.16050   0.09225   0.79104   0.00000  Uiso   1.00
C600   C     0.16713   0.33499   0.75001   0.00000  Uiso   1.00
C601   C     0.14467   0.40666   0.71060   0.00000  Uiso   1.00
C602   C     0.16919   0.11660   0.74993   0.00000  Uiso   1.00
C603   C     0.16952   0.38314   0.75008   0.00000  Uiso   1.00
C604   C     0.18068   0.09457   0.70846   0.00000  Uiso   1.00
C605   C     0.19753   0.40573   0.78927   0.00000  Uiso   1.00
C606   C     0.18536   0.04876   0.70818   0.00000  Uiso   1.00
C607   C     0.20247   0.45175   0.78865   0.00000  Uiso   1.00
C608   C     0.17521   0.02419   0.74936   0.00000  Uiso   1.00
C609   C     0.17560   0.47557   0.74946   0.00000  Uiso   1.00
C610   C     0.24768   0.01627   0.66940   0.00000  Uiso   1.00
C611   C     0.20568   0.27124   0.55830   0.00000  Uiso   1.00
C612   C     0.28426   0.05618   0.66569   0.00000  Uiso   1.00
C613   C     0.00611   0.04140   0.66278   0.00000  Uiso   1.00
C614   C     0.27845   0.48840   0.81803   0.00000  Uiso   1.00
C615   C     0.31751   0.45089   0.81850   0.00000  Uiso   1.00
C616   C     0.03758   0.46866   0.81052   0.00000  Uiso   1.00
C617   C     0.24835   0.33593   0.63405   0.00000  Uiso   1.00
C618   C     0.28775   0.35500   0.67479   0.00000  Uiso   1.00
C619   C     0.28956   0.40539   0.67339   0.00000  Uiso   1.00
C620   C     0.06251   0.18060   0.86585   0.00000  Uiso   1.00
C621   C     0.04779   0.13458   0.88306   0.00000  Uiso   1.00
C622   C     0.13987   0.21751   0.94309   0.00000  Uiso   1.00
C623   C     0.32251   0.12875   0.88025   0.00000  Uiso   1.00
C624   C     0.20537   0.27150   0.60912   0.00000  Uiso   1.00
C625   C     0.13961   0.21786   0.89214   0.00000  Uiso   1.00
C626   C     0.12681   0.23013   0.59989   0.00000  Uiso   1.00
C627   C     0.19164   0.28313   0.89826   0.00000  Uiso   1.00
C628   C     0.12492   0.23082   0.54899   0.00000  Uiso   1.00
Cu629  Cu    0.16667   0.24999   0.79822   0.00000  Uiso   1.00
Cu630  Cu    0.16667   0.25000   0.70179   0.00000  Uiso   1.00
H631   H     0.32616   0.24666   0.69391   0.00000  Uiso   1.00
H632   H     0.12123   0.19013   0.95934   0.00000  Uiso   1.00
H633   H     0.09593   0.21370   0.61575   0.00000  Uiso   1.00
H634   H     0.21217   0.30883   0.88110   0.00000  Uiso   1.00
H635   H     0.09190   0.21553   0.52718   0.00000  Uiso   1.00
H636   H     0.21013   0.31223   0.96892   0.00000  Uiso   1.00
H637   H     0.25101   0.49376   0.63847   0.00000  Uiso   1.00
H638   H     0.25994   0.49701   0.70285   0.00000  Uiso   1.00
H639   H     0.27038   0.07575   0.63277   0.00000  Uiso   1.00
H640   H     0.28477   0.07775   0.69810   0.00000  Uiso   1.00
H641   H     0.02087   0.02196   0.69548   0.00000  Uiso   1.00
H642   H     0.00715   0.25574   0.80593   0.00000  Uiso   1.00
H643   H     0.03177   0.07088   0.66077   0.00000  Uiso   1.00
H644   H     0.00732   0.02079   0.62990   0.00000  Uiso   1.00
H645   H     0.29350   0.01258   0.84679   0.00000  Uiso   1.00
H646   H     0.27548   0.00700   0.78336   0.00000  Uiso   1.00
H647   H     0.32058   0.43345   0.85396   0.00000  Uiso   1.00
H648   H     0.30411   0.42666   0.78931   0.00000  Uiso   1.00
H649   H     0.03552   0.48556   0.77485   0.00000  Uiso   1.00
H650   H     0.06487   0.44083   0.81092   0.00000  Uiso   1.00
H651   H     0.05269   0.49236   0.83975   0.00000  Uiso   1.00
H652   H     0.20975   0.35028   0.63690   0.00000  Uiso   1.00
H653   H     0.15387   0.02811   0.82198   0.00000  Uiso   1.00
H654   H     0.26063   0.34542   0.59856   0.00000  Uiso   1.00
H655   H     0.27725   0.34420   0.71052   0.00000  Uiso   1.00
H656   H     0.32678   0.34225   0.67118   0.00000  Uiso   1.00
H657   H     0.29947   0.41718   0.63784   0.00000  Uiso   1.00
H658   H     0.31944   0.41814   0.70252   0.00000  Uiso   1.00
H659   H     0.25142   0.41847   0.67933   0.00000  Uiso   1.00
H660   H     0.04296   0.18501   0.82822   0.00000  Uiso   1.00
H661   H     0.04740   0.20646   0.88870   0.00000  Uiso   1.00
H662   H     0.06255   0.10901   0.85994   0.00000  Uiso   1.00
H663   H     0.06584   0.12954   0.92115   0.00000  Uiso   1.00
H664   H     0.12529   0.47023   0.68090   0.00000  Uiso   1.00
H665   H     0.30683   0.15355   0.90360   0.00000  Uiso   1.00
H666   H     0.31310   0.09511   0.89301   0.00000  Uiso   1.00
H667   H     0.30373   0.13262   0.84219   0.00000  Uiso   1.00
H668   H     0.15117   0.10854   0.82334   0.00000  Uiso   1.00
H669   H     0.12249   0.38952   0.68025   0.00000  Uiso   1.00
H670   H     0.18715   0.11290   0.67621   0.00000  Uiso   1.00
H671   H     0.21690   0.38758   0.81991   0.00000  Uiso   1.00
H672   H     0.23864   0.28565   0.54381   0.00000  Uiso   1.00
N673   N     0.16667   0.25001   0.62935   0.00000  Uiso   1.00
N674   N     0.16667   0.24999   0.87066   0.00000  Uiso   1.00
O675   O     0.16667   0.18572   0.79072   0.00000  Uiso   1.00
O676   O     0.22978   0.47264   0.82878   0.00000  Uiso   1.00
O677   O     0.24711   0.28946   0.63892   0.00000  Uiso   1.00
O678   O     0.11655   0.18318   0.86429   0.00000  Uiso   1.00
O679   O     0.16666   0.31427   0.70928   0.00000  Uiso   1.00
O680   O     0.16667   0.18573   0.70928   0.00000  Uiso   1.00
O681   O     0.16666   0.31427   0.79072   0.00000  Uiso   1.00
O682   O     0.09161   0.25000   0.78132   0.00000  Uiso   1.00
O683   O     0.24172   0.25000   0.71868   0.00000  Uiso   1.00
O684   O     0.09161   0.25000   0.69988   0.00000  Uiso   1.00
O685   O     0.24172   0.25000   0.80012   0.00000  Uiso   1.00
O686   O     0.19524   0.02872   0.66565   0.00000  Uiso   1.00
C687   C     0.50030   0.16490   0.75002   0.00000  Uiso   1.00
C688   C     0.52416   0.28469   0.94879   0.00000  Uiso   1.00
C689   C     0.49829   0.25134   0.52705   0.00000  Uiso   1.00
C690   C     0.49832   0.25137   0.97244   0.00000  Uiso   1.00
C691   C     0.40128   0.25006   0.73762   0.00000  Uiso   1.00
C692   C     0.59872   0.25065   0.76237   0.00000  Uiso   1.00
C693   C     0.34601   0.24966   0.73075   0.00000  Uiso   1.00
C694   C     0.65397   0.25227   0.76914   0.00000  Uiso   1.00
C695   C     0.49605   0.04637   0.79047   0.00000  Uiso   1.00
C696   C     0.48019   0.45259   0.71074   0.00000  Uiso   1.00
C697   C     0.49383   0.09225   0.79104   0.00000  Uiso   1.00
C698   C     0.50047   0.33499   0.75001   0.00000  Uiso   1.00
C699   C     0.47800   0.40666   0.71060   0.00000  Uiso   1.00
C700   C     0.50253   0.11660   0.74993   0.00000  Uiso   1.00
C701   C     0.50285   0.38314   0.75008   0.00000  Uiso   1.00
C702   C     0.51401   0.09457   0.70846   0.00000  Uiso   1.00
C703   C     0.53086   0.40573   0.78927   0.00000  Uiso   1.00
C704   C     0.51870   0.04876   0.70818   0.00000  Uiso   1.00
C705   C     0.53580   0.45175   0.78865   0.00000  Uiso   1.00
C706   C     0.50855   0.02419   0.74936   0.00000  Uiso   1.00
C707   C     0.50893   0.47557   0.74946   0.00000  Uiso   1.00
C708   C     0.58101   0.01627   0.66940   0.00000  Uiso   1.00
C709   C     0.53901   0.27124   0.55830   0.00000  Uiso   1.00
C710   C     0.61759   0.05618   0.66569   0.00000  Uiso   1.00
C711   C     0.33944   0.04140   0.66278   0.00000  Uiso   1.00
C712   C     0.61179   0.48840   0.81803   0.00000  Uiso   1.00
C713   C     0.65084   0.45089   0.81850   0.00000  Uiso   1.00
C714   C     0.37091   0.46866   0.81052   0.00000  Uiso   1.00
C715   C     0.58168   0.33593   0.63405   0.00000  Uiso   1.00
C716   C     0.62108   0.35500   0.67479   0.00000  Uiso   1.00
C717   C     0.62289   0.40539   0.67339   0.00000  Uiso   1.00
C718   C     0.39585   0.18060   0.86585   0.00000  Uiso   1.00
C719   C     0.38112   0.13458   0.88306   0.00000  Uiso   1.00
C720   C     0.47320   0.21751   0.94309   0.00000  Uiso   1.00
C721   C     0.65584   0.12875   0.88025   0.00000  Uiso   1.00
C722   C     0.53871   0.27150   0.60912   0.00000  Uiso   1.00
C723   C     0.47295   0.21786   0.89214   0.00000  Uiso   1.00
C724   C     0.46014   0.23013   0.59989   0.00000  Uiso   1.00
C725   C     0.52497   0.28313   0.89826   0.00000  Uiso   1.00
C726   C     0.45826   0.23082   0.54899   0.00000  Uiso   1.00
Cu727  Cu    0.50000   0.24999   0.79822   0.00000  Uiso   1.00
Cu728  Cu    0.50000   0.25000   0.70179   0.00000  Uiso   1.00
H729   H     0.65949   0.24666   0.69391   0.00000  Uiso   1.00
H730   H     0.45457   0.19013   0.95934   0.00000  Uiso   1.00
H731   H     0.42926   0.21370   0.61575   0.00000  Uiso   1.00
H732   H     0.54551   0.30883   0.88110   0.00000  Uiso   1.00
H733   H     0.42523   0.21553   0.52718   0.00000  Uiso   1.00
H734   H     0.54346   0.31223   0.96892   0.00000  Uiso   1.00
H735   H     0.58434   0.49376   0.63847   0.00000  Uiso   1.00
H736   H     0.59328   0.49701   0.70285   0.00000  Uiso   1.00
H737   H     0.60371   0.07575   0.63277   0.00000  Uiso   1.00
H738   H     0.61810   0.07775   0.69810   0.00000  Uiso   1.00
H739   H     0.35420   0.02196   0.69548   0.00000  Uiso   1.00
H740   H     0.34048   0.25574   0.80593   0.00000  Uiso   1.00
H741   H     0.36510   0.07088   0.66077   0.00000  Uiso   1.00
H742   H     0.34065   0.02079   0.62990   0.00000  Uiso   1.00
H743   H     0.62684   0.01258   0.84679   0.00000  Uiso   1.00
H744   H     0.60881   0.00700   0.78336   0.00000  Uiso   1.00
H745   H     0.65391   0.43345   0.85396   0.00000  Uiso   1.00
H746   H     0.63745   0.42666   0.78931   0.00000  Uiso   1.00
H747   H     0.36885   0.48556   0.77485   0.00000  Uiso   1.00
H748   H     0.39821   0.44083   0.81092   0.00000  Uiso   1.00
H749   H     0.38602   0.49236   0.83975   0.00000  Uiso   1.00
H750   H     0.54309   0.35028   0.63690   0.00000  Uiso   1.00
H751   H     0.48720   0.02811   0.82198   0.00000  Uiso   1.00
H752   H     0.59396   0.34542   0.59856   0.00000  Uiso   1.00
H753   H     0.61058   0.34420   0.71052   0.00000  Uiso   1.00
H754   H     0.66011   0.34225   0.67118   0.00000  Uiso   1.00
H755   H     0.63280   0.41718   0.63784   0.00000  Uiso   1.00
H756   H     0.65277   0.41814   0.70252   0.00000  Uiso   1.00
H757   H     0.58475   0.41847   0.67933   0.00000  Uiso   1.00
H758   H     0.37630   0.18501   0.82822   0.00000  Uiso   1.00
H759   H     0.38073   0.20646   0.88870   0.00000  Uiso   1.00
H760   H     0.39589   0.10901   0.85994   0.00000  Uiso   1.00
H761   H     0.39917   0.12954   0.92115   0.00000  Uiso   1.00
H762   H     0.45862   0.47023   0.68090   0.00000  Uiso   1.00
H763   H     0.64016   0.15355   0.90360   0.00000  Uiso   1.00
H764   H     0.64643   0.09511   0.89301   0.00000  Uiso   1.00
H765   H     0.63706   0.13262   0.84219   0.00000  Uiso   1.00
H766   H     0.48450   0.10854   0.82334   0.00000  Uiso   1.00
H767   H     0.45583   0.38952   0.68025   0.00000  Uiso   1.00
H768   H     0.52049   0.11290   0.67621   0.00000  Uiso   1.00
H769   H     0.55023   0.38758   0.81991   0.00000  Uiso   1.00
H770   H     0.57197   0.28565   0.54381   0.00000  Uiso   1.00
N771   N     0.50000   0.25001   0.62935   0.00000  Uiso   1.00
N772   N     0.50000   0.24999   0.87066   0.00000  Uiso   1.00
O773   O     0.50000   0.18572   0.79072   0.00000  Uiso   1.00
O774   O     0.56312   0.47264   0.82878   0.00000  Uiso   1.00
O775   O     0.58044   0.28946   0.63892   0.00000  Uiso   1.00
O776   O     0.44988   0.18318   0.86429   0.00000  Uiso   1.00
O777   O     0.50000   0.31427   0.70928   0.00000  Uiso   1.00
O778   O     0.50000   0.18573   0.70928   0.00000  Uiso   1.00
O779   O     0.50000   0.31427   0.79072   0.00000  Uiso   1.00
O780   O     0.42495   0.25000   0.78132   0.00000  Uiso   1.00
O781   O     0.57505   0.25000   0.71868   0.00000  Uiso   1.00
O782   O     0.42495   0.25000   0.69988   0.00000  Uiso   1.00
O783   O     0.57505   0.25000   0.80012   0.00000  Uiso   1.00
O784   O     0.52857   0.02872   0.66565   0.00000  Uiso   1.00
C785   C     0.83363   0.16490   0.75002   0.00000  Uiso   1.00
C786   C     0.85749   0.28469   0.94879   0.00000  Uiso   1.00
C787   C     0.83162   0.25134   0.52705   0.00000  Uiso   1.00
C788   C     0.83166   0.25137   0.97244   0.00000  Uiso   1.00
C789   C     0.73461   0.25006   0.73762   0.00000  Uiso   1.00
C790   C     0.93205   0.25065   0.76237   0.00000  Uiso   1.00
C791   C     0.67934   0.24966   0.73075   0.00000  Uiso   1.00
C792   C     0.98730   0.25227   0.76914   0.00000  Uiso   1.00
C793   C     0.82938   0.04637   0.79047   0.00000  Uiso   1.00
C794   C     0.81352   0.45259   0.71074   0.00000  Uiso   1.00
C795   C     0.82717   0.09225   0.79104   0.00000  Uiso   1.00
C796   C     0.83380   0.33499   0.75001   0.00000  Uiso   1.00
C797   C     0.81133   0.40666   0.71060   0.00000  Uiso   1.00
C798   C     0.83586   0.11660   0.74993   0.00000  Uiso   1.00
C799   C     0.83619   0.38314   0.75008   0.00000  Uiso   1.00
C800   C     0.84735   0.09457   0.70846   0.00000  Uiso   1.00
C801   C     0.86420   0.40573   0.78927   0.00000  Uiso   1.00
C802   C     0.85203   0.04876   0.70818   0.00000  Uiso   1.00
C803   C     0.86913   0.45175   0.78865   0.00000  Uiso   1.00
C804   C     0.84188   0.02419   0.74936   0.00000  Uiso   1.00
C805   C     0.84227   0.47557   0.74946   0.00000  Uiso   1.00
C806   C     0.91434   0.01627   0.66940   0.00000  Uiso   1.00
C807   C     0.87235   0.27124   0.55830   0.00000  Uiso   1.00
C808   C     0.95093   0.05618   0.66569   0.00000  Uiso   1.00
C809   C     0.67277   0.04140   0.66278   0.00000  Uiso   1.00
C810   C     0.94512   0.48840   0.81803   0.00000  Uiso   1.00
C811   C     0.98418   0.45089   0.81850   0.00000  Uiso   1.00
C812   C     0.70425   0.46866   0.81052   0.00000  Uiso   1.00
C813   C     0.91501   0.33593   0.63405   0.00000  Uiso   1.00
C814   C     0.95442   0.35500   0.67479   0.00000  Uiso   1.00
C815   C     0.95622   0.40539   0.67339   0.00000  Uiso   1.00
C816   C     0.72918   0.18060   0.86585   0.00000  Uiso   1.00
C817   C     0.71445   0.13458   0.88306   0.00000  Uiso   1.00
C818   C     0.80653   0.21751   0.94309   0.00000  Uiso   1.00
C819   C     0.98918   0.12875   0.88025   0.00000  Uiso   1.00
C820   C     0.87204   0.27150   0.60912   0.00000  Uiso   1.00
C821   C     0.80628   0.21786   0.89214   0.00000  Uiso   1.00
C822   C     0.79348   0.23013   0.59989   0.00000  Uiso   1.00
C823   C     0.85830   0.28313   0.89826   0.00000  Uiso   1.00
C824   C     0.79159   0.23082   0.54899   0.00000  Uiso   1.00
Cu825  Cu    0.83333   0.24999   0.79822   0.00000  Uiso   1.00
Cu826  Cu    0.83333   0.25000   0.70179   0.00000  Uiso   1.00
H827   H     0.99283   0.24666   0.69391   0.00000  Uiso   1.00
H828   H     0.78790   0.19013   0.95934   0.00000  Uiso   1.00
H829   H     0.76260   0.21370   0.61575   0.00000  Uiso   1.00
H830   H     0.87884   0.30883   0.88110   0.00000  Uiso   1.00
H831   H     0.75857   0.21553   0.52718   0.00000  Uiso   1.00
H832   H     0.87680   0.31223   0.96892   0.00000  Uiso   1.00
H833   H     0.91767   0.49376   0.63847   0.00000  Uiso   1.00
H834   H     0.92661   0.49701   0.70285   0.00000  Uiso   1.00
H835   H     0.93705   0.07575   0.63277   0.00000  Uiso   1.00
H836   H     0.95144   0.07775   0.69810   0.00000  Uiso   1.00
H837   H     0.68754   0.02196   0.69548   0.00000  Uiso   1.00
H838   H     0.67381   0.25574   0.80593   0.00000  Uiso   1.00
H839   H     0.69844   0.07088   0.66077   0.00000  Uiso   1.00
H840   H     0.67399   0.02079   0.62990   0.00000  Uiso   1.00
H841   H     0.96017   0.01258   0.84679   0.00000  Uiso   1.00
H842   H     0.94214   0.00700   0.78336   0.00000  Uiso   1.00
H843   H     0.98725   0.43345   0.85396   0.00000  Uiso   1.00
H844   H     0.97078   0.42666   0.78931   0.00000  Uiso   1.00
H845   H     0.70218   0.48556   0.77485   0.00000  Uiso   1.00
H846   H     0.73154   0.44083   0.81092   0.00000  Uiso   1.00
H847   H     0.71935   0.49236   0.83975   0.00000  Uiso   1.00
H848   H     0.87642   0.35028   0.63690   0.00000  Uiso   1.00
H849   H     0.82053   0.02811   0.82198   0.00000  Uiso   1.00
H850   H     0.92729   0.34542   0.59856   0.00000  Uiso   1.00
H851   H     0.94391   0.34420   0.71052   0.00000  Uiso   1.00
H852   H     0.99345   0.34225   0.67118   0.00000  Uiso   1.00
H853   H     0.96613   0.41718   0.63784   0.00000  Uiso   1.00
H854   H     0.98610   0.41814   0.70252   0.00000  Uiso   1.00
H855   H     0.91809   0.41847   0.67933   0.00000  Uiso   1.00
H856   H     0.70963   0.18501   0.82822   0.00000  Uiso   1.00
H857   H     0.71406   0.20646   0.88870   0.00000  Uiso   1.00
H858   H     0.72922   0.10901   0.85994   0.00000  Uiso   1.00
H859   H     0.73251   0.12954   0.92115   0.00000  Uiso   1.00
H860   H     0.79195   0.47023   0.68090   0.00000  Uiso   1.00
H861   H     0.97349   0.15355   0.90360   0.00000  Uiso   1.00
H862   H     0.97976   0.09511   0.89301   0.00000  Uiso   1.00
H863   H     0.97040   0.13262   0.84219   0.00000  Uiso   1.00
H864   H     0.81783   0.10854   0.82334   0.00000  Uiso   1.00
H865   H     0.78916   0.38952   0.68025   0.00000  Uiso   1.00
H866   H     0.85382   0.11290   0.67621   0.00000  Uiso   1.00
H867   H     0.88357   0.38758   0.81991   0.00000  Uiso   1.00
H868   H     0.90530   0.28565   0.54381   0.00000  Uiso   1.00
N869   N     0.83333   0.25001   0.62935   0.00000  Uiso   1.00
N870   N     0.83333   0.24999   0.87066   0.00000  Uiso   1.00
O871   O     0.83334   0.18572   0.79072   0.00000  Uiso   1.00
O872   O     0.89645   0.47264   0.82878   0.00000  Uiso   1.00
O873   O     0.91378   0.28946   0.63892   0.00000  Uiso   1.00
O874   O     0.78322   0.18318   0.86429   0.00000  Uiso   1.00
O875   O     0.83333   0.31427   0.70928   0.00000  Uiso   1.00
O876   O     0.83334   0.18573   0.70928   0.00000  Uiso   1.00
O877   O     0.83333   0.31427   0.79072   0.00000  Uiso   1.00
O878   O     0.75828   0.25000   0.78132   0.00000  Uiso   1.00
O879   O     0.90839   0.25000   0.71868   0.00000  Uiso   1.00
O880   O     0.75828   0.25000   0.69988   0.00000  Uiso   1.00
O881   O     0.90839   0.25000   0.80012   0.00000  Uiso   1.00
O882   O     0.86191   0.02872   0.66565   0.00000  Uiso   1.00
C883   C     0.16696   0.66490   0.75002   0.00000  Uiso   1.00
C884   C     0.19082   0.78469   0.94879   0.00000  Uiso   1.00
C885   C     0.16495   0.75134   0.52705   0.00000  Uiso   1.00
C886   C     0.16499   0.75137   0.97244   0.00000  Uiso   1.00
C887   C     0.06794   0.75006   0.73762   0.00000  Uiso   1.00
C888   C     0.26539   0.75065   0.76237   0.00000  Uiso   1.00
C889   C     0.01267   0.74966   0.73075   0.00000  Uiso   1.00
C890   C     0.32064   0.75227   0.76914   0.00000  Uiso   1.00
C891   C     0.16272   0.54637   0.79047   0.00000  Uiso   1.00
C892   C     0.14686   0.95259   0.71074   0.00000  Uiso   1.00
C893   C     0.16050   0.59225   0.79104   0.00000  Uiso   1.00
C894   C     0.16713   0.83499   0.75001   0.00000  Uiso   1.00
C895   C     0.14467   0.90666   0.71060   0.00000  Uiso   1.00
C896   C     0.16919   0.61660   0.74993   0.00000  Uiso   1.00
C897   C     0.16952   0.88314   0.75008   0.00000  Uiso   1.00
C898   C     0.18068   0.59457   0.70846   0.00000  Uiso   1.00
C899   C     0.19753   0.90573   0.78927   0.00000  Uiso   1.00
C900   C     0.18536   0.54876   0.70818   0.00000  Uiso   1.00
C901   C     0.20247   0.95175   0.78865   0.00000  Uiso   1.00
C902   C     0.17521   0.52419   0.74936   0.00000  Uiso   1.00
C903   C     0.17560   0.97557   0.74946   0.00000  Uiso   1.00
C904   C     0.24768   0.51627   0.66940   0.00000  Uiso   1.00
C905   C     0.20568   0.77124   0.55830   0.00000  Uiso   1.00
C906   C     0.28426   0.55618   0.66569   0.00000  Uiso   1.00
C907   C     0.00611   0.54140   0.66278   0.00000  Uiso   1.00
C908   C     0.27845   0.98840   0.81803   0.00000  Uiso   1.00
C909   C     0.31751   0.95089   0.81850   0.00000  Uiso   1.00
C910   C     0.03758   0.96866   0.81052   0.00000  Uiso   1.00
C911   C     0.24835   0.83593   0.63405   0.00000  Uiso   1.00
C912   C     0.28775   0.85500   0.67479   0.00000  Uiso   1.00
C913   C     0.28956   0.90539   0.67339   0.00000  Uiso   1.00
C914   C     0.06251   0.68060   0.86585   0.00000  Uiso   1.00
C915   C     0.04779   0.63458   0.88306   0.00000  Uiso   1.00
C916   C     0.13987   0.71751   0.94309   0.00000  Uiso   1.00
C917   C     0.32251   0.62875   0.88025   0.00000  Uiso   1.00
C918   C     0.20537   0.77150   0.60912   0.00000  Uiso   1.00
C919   C     0.13961   0.71786   0.89214   0.00000  Uiso   1.00
C920   C     0.12681   0.73013   0.59989   0.00000  Uiso   1.00
C921   C     0.19164   0.78313   0.89826   0.00000  Uiso   1.00
C922   C     0.12492   0.73082   0.54899   0.00000  Uiso   1.00
Cu923  Cu    0.16667   0.74999   0.79822   0.00000  Uiso   1.00
Cu924  Cu    0.16667   0.75000   0.70179   0.00000  Uiso   1.00
H925   H     0.32616   0.74666   0.69391   0.00000  Uiso   1.00
H926   H     0.12123   0.69013   0.95934   0.00000  Uiso   1.00
H927   H     0.09593   0.71370   0.61575   0.00000  Uiso   1.00
H928   H     0.21217   0.80883   0.88110   0.00000  Uiso   1.00
H929   H     0.09190   0.71553   0.52718   0.00000  Uiso   1.00
H930   H     0.21013   0.81223   0.96892   0.00000  Uiso   1.00
H931   H     0.25101   0.99376   0.63847   0.00000  Uiso   1.00
H932   H     0.25994   0.99701   0.70285   0.00000  Uiso   1.00
H933   H     0.27038   0.57575   0.63277   0.00000  Uiso   1.00
H934   H     0.28477   0.57775   0.69810   0.00000  Uiso   1.00
H935   H     0.02087   0.52196   0.69548   0.00000  Uiso   1.00
H936   H     0.00715   0.75574   0.80593   0.00000  Uiso   1.00
H937   H     0.03177   0.57088   0.66077   0.00000  Uiso   1.00
H938   H     0.00732   0.52079   0.62990   0.00000  Uiso   1.00
H939   H     0.29350   0.51258   0.84679   0.00000  Uiso   1.00
H940   H     0.27548   0.50700   0.78336   0.00000  Uiso   1.00
H941   H     0.32058   0.93345   0.85396   0.00000  Uiso   1.00
H942   H     0.30411   0.92666   0.78931   0.00000  Uiso   1.00
H943   H     0.03552   0.98556   0.77485   0.00000  Uiso   1.00
H944   H     0.06487   0.94083   0.81092   0.00000  Uiso   1.00
H945   H     0.05269   0.99236   0.83975   0.00000  Uiso   1.00
H946   H     0.20975   0.85028   0.63690   0.00000  Uiso   1.00
H947   H     0.15387   0.52811   0.82198   0.00000  Uiso   1.00
H948   H     0.26063   0.84542   0.59856   0.00000  Uiso   1.00
H949   H     0.27725   0.84420   0.71052   0.00000  Uiso   1.00
H950   H     0.32678   0.84225   0.67118   0.00000  Uiso   1.00
H951   H     0.29947   0.91718   0.63784   0.00000  Uiso   1.00
H952   H     0.31944   0.91814   0.70252   0.00000  Uiso   1.00
H953   H     0.25142   0.91847   0.67933   0.00000  Uiso   1.00
H954   H     0.04296   0.68501   0.82822   0.00000  Uiso   1.00
H955   H     0.04740   0.70646   0.88870   0.00000  Uiso   1.00
H956   H     0.06255   0.60901   0.85994   0.00000  Uiso   1.00
H957   H     0.06584   0.62954   0.92115   0.00000  Uiso   1.00
H958   H     0.12529   0.97023   0.68090   0.00000  Uiso   1.00
H959   H     0.30683   0.65355   0.90360   0.00000  Uiso   1.00
H960   H     0.31310   0.59511   0.89301   0.00000  Uiso   1.00
H961   H     0.30373   0.63262   0.84219   0.00000  Uiso   1.00
H962   H     0.15117   0.60854   0.82334   0.00000  Uiso   1.00
H963   H     0.12249   0.88952   0.68025   0.00000  Uiso   1.00
H964   H     0.18715   0.61290   0.67621   0.00000  Uiso   1.00
H965   H     0.21690   0.88758   0.81991   0.00000  Uiso   1.00
H966   H     0.23864   0.78565   0.54381   0.00000  Uiso   1.00
N967   N     0.16667   0.75001   0.62935   0.00000  Uiso   1.00
N968   N     0.16667   0.74999   0.87066   0.00000  Uiso   1.00
O969   O     0.16667   0.68572   0.79072   0.00000  Uiso   1.00
O970   O     0.22978   0.97264   0.82878   0.00000  Uiso   1.00
O971   O     0.24711   0.78946   0.63892   0.00000  Uiso   1.00
O972   O     0.11655   0.68318   0.86429   0.00000  Uiso   1.00
O973   O     0.16666   0.81427   0.70928   0.00000  Uiso   1.00
O974   O     0.16667   0.68573   0.70928   0.00000  Uiso   1.00
O975   O     0.16666   0.81427   0.79072   0.00000  Uiso   1.00
O976   O     0.09161   0.75000   0.78132   0.00000  Uiso   1.00
O977   O     0.24172   0.75000   0.71868   0.00000  Uiso   1.00
O978   O     0.09161   0.75000   0.69988   0.00000  Uiso   1.00
O979   O     0.24172   0.75000   0.80012   0.00000  Uiso   1.00
O980   O     0.19524   0.52872   0.66565   0.00000  Uiso   1.00
C981   C     0.50030   0.66490   0.75002   0.00000  Uiso   1.00
C982   C     0.52416   0.78469   0.94879   0.00000  Uiso   1.00
C983   C     0.49829   0.75134   0.52705   0.00000  Uiso   1.00
C984   C     0.49832   0.75137   0.97244   0.00000  Uiso   1.00
C985   C     0.40128   0.75006   0.73762   0.00000  Uiso   1.00
C986   C     0.59872   0.75065   0.76237   0.00000  Uiso   1.00
C987   C     0.34601   0.74966   0.73075   0.00000  Uiso   1.00
C988   C     0.65397   0.75227   0.76914   0.00000  Uiso   1.00
C989   C     0.49605   0.54637   0.79047   0.00000  Uiso   1.00
C990   C     0.48019   0.95259   0.71074   0.00000  Uiso   1.00
C991   C     0.49383   0.59225   0.79104   0.00000  Uiso   1.00
C992   C     0.50047   0.83499   0.75001   0.00000  Uiso   1.00
C993   C     0.47800   0.90666   0.71060   0.00000  Uiso   1.00
C994   C     0.50253   0.61660   0.74993   0.00000  Uiso   1.00
C995   C     0.50285   0.88314   0.75008   0.00000  Uiso   1.00
C996   C     0.51401   0.59457   0.70846   0.00000  Uiso   1.00
C997   C     0.53086   0.90573   0.78927   0.00000  Uiso   1.00
C998   C     0.51870   0.54876   0.70818   0.00000  Uiso   1.00
C999   C     0.53580   0.95175   0.78865   0.00000  Uiso   1.00
C1000  C     0.50855   0.52419   0.74936   0.00000  Uiso   1.00
C1001  C     0.50893   0.97557   0.74946   0.00000  Uiso   1.00
C1002  C     0.58101   0.51627   0.66940   0.00000  Uiso   1.00
C1003  C     0.53901   0.77124   0.55830   0.00000  Uiso   1.00
C1004  C     0.61759   0.55618   0.66569   0.00000  Uiso   1.00
C1005  C     0.33944   0.54140   0.66278   0.00000  Uiso   1.00
C1006  C     0.61179   0.98840   0.81803   0.00000  Uiso   1.00
C1007  C     0.65084   0.95089   0.81850   0.00000  Uiso   1.00
C1008  C     0.37091   0.96866   0.81052   0.00000  Uiso   1.00
C1009  C     0.58168   0.83593   0.63405   0.00000  Uiso   1.00
C1010  C     0.62108   0.85500   0.67479   0.00000  Uiso   1.00
C1011  C     0.62289   0.90539   0.67339   0.00000  Uiso   1.00
C1012  C     0.39585   0.68060   0.86585   0.00000  Uiso   1.00
C1013  C     0.38112   0.63458   0.88306   0.00000  Uiso   1.00
C1014  C     0.47320   0.71751   0.94309   0.00000  Uiso   1.00
C1015  C     0.65584   0.62875   0.88025   0.00000  Uiso   1.00
C1016  C     0.53871   0.77150   0.60912   0.00000  Uiso   1.00
C1017  C     0.47295   0.71786   0.89214   0.00000  Uiso   1.00
C1018  C     0.46014   0.73013   0.59989   0.00000  Uiso   1.00
C1019  C     0.52497   0.78313   0.89826   0.00000  Uiso   1.00
C1020  C     0.45826   0.73082   0.54899   0.00000  Uiso   1.00
Cu1021 Cu    0.50000   0.74999   0.79822   0.00000  Uiso   1.00
Cu1022 Cu    0.50000   0.75000   0.70179   0.00000  Uiso   1.00
H1023  H     0.65949   0.74666   0.69391   0.00000  Uiso   1.00
H1024  H     0.45457   0.69013   0.95934   0.00000  Uiso   1.00
H1025  H     0.42926   0.71370   0.61575   0.00000  Uiso   1.00
H1026  H     0.54551   0.80883   0.88110   0.00000  Uiso   1.00
H1027  H     0.42523   0.71553   0.52718   0.00000  Uiso   1.00
H1028  H     0.54346   0.81223   0.96892   0.00000  Uiso   1.00
H1029  H     0.58434   0.99376   0.63847   0.00000  Uiso   1.00
H1030  H     0.59328   0.99701   0.70285   0.00000  Uiso   1.00
H1031  H     0.60371   0.57575   0.63277   0.00000  Uiso   1.00
H1032  H     0.61810   0.57775   0.69810   0.00000  Uiso   1.00
H1033  H     0.35420   0.52196   0.69548   0.00000  Uiso   1.00
H1034  H     0.34048   0.75574   0.80593   0.00000  Uiso   1.00
H1035  H     0.36510   0.57088   0.66077   0.00000  Uiso   1.00
H1036  H     0.34065   0.52079   0.62990   0.00000  Uiso   1.00
H1037  H     0.62684   0.51258   0.84679   0.00000  Uiso   1.00
H1038  H     0.60881   0.50700   0.78336   0.00000  Uiso   1.00
H1039  H     0.65391   0.93345   0.85396   0.00000  Uiso   1.00
H1040  H     0.63745   0.92666   0.78931   0.00000  Uiso   1.00
H1041  H     0.36885   0.98556   0.77485   0.00000  Uiso   1.00
H1042  H     0.39821   0.94083   0.81092   0.00000  Uiso   1.00
H1043  H     0.38602   0.99236   0.83975   0.00000  Uiso   1.00
H1044  H     0.54309   0.85028   0.63690   0.00000  Uiso   1.00
H1045  H     0.48720   0.52811   0.82198   0.00000  Uiso   1.00
H1046  H     0.59396   0.84542   0.59856   0.00000  Uiso   1.00
H1047  H     0.61058   0.84420   0.71052   0.00000  Uiso   1.00
H1048  H     0.66011   0.84225   0.67118   0.00000  Uiso   1.00
H1049  H     0.63280   0.91718   0.63784   0.00000  Uiso   1.00
H1050  H     0.65277   0.91814   0.70252   0.00000  Uiso   1.00
H1051  H     0.58475   0.91847   0.67933   0.00000  Uiso   1.00
H1052  H     0.37630   0.68501   0.82822   0.00000  Uiso   1.00
H1053  H     0.38073   0.70646   0.88870   0.00000  Uiso   1.00
H1054  H     0.39589   0.60901   0.85994   0.00000  Uiso   1.00
H1055  H     0.39917   0.62954   0.92115   0.00000  Uiso   1.00
H1056  H     0.45862   0.97023   0.68090   0.00000  Uiso   1.00
H1057  H     0.64016   0.65355   0.90360   0.00000  Uiso   1.00
H1058  H     0.64643   0.59511   0.89301   0.00000  Uiso   1.00
H1059  H     0.63706   0.63262   0.84219   0.00000  Uiso   1.00
H1060  H     0.48450   0.60854   0.82334   0.00000  Uiso   1.00
H1061  H     0.45583   0.88952   0.68025   0.00000  Uiso   1.00
H1062  H     0.52049   0.61290   0.67621   0.00000  Uiso   1.00
H1063  H     0.55023   0.88758   0.81991   0.00000  Uiso   1.00
H1064  H     0.57197   0.78565   0.54381   0.00000  Uiso   1.00
N1065  N     0.50000   0.75001   0.62935   0.00000  Uiso   1.00
N1066  N     0.50000   0.74999   0.87066   0.00000  Uiso   1.00
O1067  O     0.50000   0.68572   0.79072   0.00000  Uiso   1.00
O1068  O     0.56312   0.97264   0.82878   0.00000  Uiso   1.00
O1069  O     0.58044   0.78946   0.63892   0.00000  Uiso   1.00
O1070  O     0.44988   0.68318   0.86429   0.00000  Uiso   1.00
O1071  O     0.50000   0.81427   0.70928   0.00000  Uiso   1.00
O1072  O     0.50000   0.68573   0.70928   0.00000  Uiso   1.00
O1073  O     0.50000   0.81427   0.79072   0.00000  Uiso   1.00
O1074  O     0.42495   0.75000   0.78132   0.00000  Uiso   1.00
O1075  O     0.57505   0.75000   0.71868   0.00000  Uiso   1.00
O1076  O     0.42495   0.75000   0.69988   0.00000  Uiso   1.00
O1077  O     0.57505   0.75000   0.80012   0.00000  Uiso   1.00
O1078  O     0.52857   0.52872   0.66565   0.00000  Uiso   1.00
C1079  C     0.83363   0.66490   0.75002   0.00000  Uiso   1.00
C1080  C     0.85749   0.78469   0.94879   0.00000  Uiso   1.00
C1081  C     0.83162   0.75134   0.52705   0.00000  Uiso   1.00
C1082  C     0.83166   0.75137   0.97244   0.00000  Uiso   1.00
C1083  C     0.73461   0.75006   0.73762   0.00000  Uiso   1.00
C1084  C     0.93205   0.75065   0.76237   0.00000  Uiso   1.00
C1085  C     0.67934   0.74966   0.73075   0.00000  Uiso   1.00
C1086  C     0.98730   0.75227   0.76914   0.00000  Uiso   1.00
C1087  C     0.82938   0.54637   0.79047   0.00000  Uiso   1.00
C1088  C     0.81352   0.95259   0.71074   0.00000  Uiso   1.00
C1089  C     0.82717   0.59225   0.79104   0.00000  Uiso   1.00
C1090  C     0.83380   0.83499   0.75001   0.00000  Uiso   1.00
C1091  C     0.81133   0.90666   0.71060   0.00000  Uiso   1.00
C1092  C     0.83586   0.61660   0.74993   0.00000  Uiso   1.00
C1093  C     0.83619   0.88314   0.75008   0.00000  Uiso   1.00
C1094  C     0.84735   0.59457   0.70846   0.00000  Uiso   1.00
C1095  C     0.86420   0.90573   0.78927   0.00000  Uiso   1.00
C1096  C     0.85203   0.54876   0.70818   0.00000  Uiso   1.00
C1097  C     0.86913   0.95175   0.78865   0.00000  Uiso   1.00
C1098  C     0.84188   0.52419   0.74936   0.00000  Uiso   1.00
C1099  C     0.84227   0.97557   0.74946   0.00000  Uiso   1.00
C1100  C     0.91434   0.51627   0.66940   0.00000  Uiso   1.00
C1101  C     0.87235   0.77124   0.55830   0.00000  Uiso   1.00
C1102  C     0.95093   0.55618   0.66569   0.00000  Uiso   1.00
C1103  C     0.67277   0.54140   0.66278   0.00000  Uiso   1.00
C1104  C     0.94512   0.98840   0.81803   0.00000  Uiso   1.00
C1105  C     0.98418   0.95089   0.81850   0.00000  Uiso   1.00
C1106  C     0.70425   0.96866   0.81052   0.00000  Uiso   1.00
C1107  C     0.91501   0.83593   0.63405   0.00000  Uiso   1.00
C1108  C     0.95442   0.85500   0.67479   0.00000  Uiso   1.00
C1109  C     0.95622   0.90539   0.67339   0.00000  Uiso   1.00
C1110  C     0.72918   0.68060   0.86585   0.00000  Uiso   1.00
C1111  C     0.71445   0.63458   0.88306   0.00000  Uiso   1.00
C1112  C     0.80653   0.71751   0.94309   0.00000  Uiso   1.00
C1113  C     0.98918   0.62875   0.88025   0.00000  Uiso   1.00
C1114  C     0.87204   0.77150   0.60912   0.00000  Uiso   1.00
C1115  C     0.80628   0.71786   0.89214   0.00000  Uiso   1.00
C1116  C     0.79348   0.73013   0.59989   0.00000  Uiso   1.00
C1117  C     0.85830   0.78313   0.89826   0.00000  Uiso   1.00
C1118  C     0.79159   0.73082   0.54899   0.00000  Uiso   1.00
Cu1119 Cu    0.83333   0.74999   0.79822   0.00000  Uiso   1.00
Cu1120 Cu    0.83333   0.75000   0.70179   0.00000  Uiso   1.00
H1121  H     0.99283   0.74666   0.69391   0.00000  Uiso   1.00
H1122  H     0.78790   0.69013   0.95934   0.00000  Uiso   1.00
H1123  H     0.76260   0.71370   0.61575   0.00000  Uiso   1.00
H1124  H     0.87884   0.80883   0.88110   0.00000  Uiso   1.00
H1125  H     0.75857   0.71553   0.52718   0.00000  Uiso   1.00
H1126  H     0.87680   0.81223   0.96892   0.00000  Uiso   1.00
H1127  H     0.91767   0.99376   0.63847   0.00000  Uiso   1.00
H1128  H     0.92661   0.99701   0.70285   0.00000  Uiso   1.00
H1129  H     0.93705   0.57575   0.63277   0.00000  Uiso   1.00
H1130  H     0.95144   0.57775   0.69810   0.00000  Uiso   1.00
H1131  H     0.68754   0.52196   0.69548   0.00000  Uiso   1.00
H1132  H     0.67381   0.75574   0.80593   0.00000  Uiso   1.00
H1133  H     0.69844   0.57088   0.66077   0.00000  Uiso   1.00
H1134  H     0.67399   0.52079   0.62990   0.00000  Uiso   1.00
H1135  H     0.96017   0.51258   0.84679   0.00000  Uiso   1.00
H1136  H     0.94214   0.50700   0.78336   0.00000  Uiso   1.00
H1137  H     0.98725   0.93345   0.85396   0.00000  Uiso   1.00
H1138  H     0.97078   0.92666   0.78931   0.00000  Uiso   1.00
H1139  H     0.70218   0.98556   0.77485   0.00000  Uiso   1.00
H1140  H     0.73154   0.94083   0.81092   0.00000  Uiso   1.00
H1141  H     0.71935   0.99236   0.83975   0.00000  Uiso   1.00
H1142  H     0.87642   0.85028   0.63690   0.00000  Uiso   1.00
H1143  H     0.82053   0.52811   0.82198   0.00000  Uiso   1.00
H1144  H     0.92729   0.84542   0.59856   0.00000  Uiso   1.00
H1145  H     0.94391   0.84420   0.71052   0.00000  Uiso   1.00
H1146  H     0.99345   0.84225   0.67118   0.00000  Uiso   1.00
H1147  H     0.96613   0.91718   0.63784   0.00000  Uiso   1.00
H1148  H     0.98610   0.91814   0.70252   0.00000  Uiso   1.00
H1149  H     0.91809   0.91847   0.67933   0.00000  Uiso   1.00
H1150  H     0.70963   0.68501   0.82822   0.00000  Uiso   1.00
H1151  H     0.71406   0.70646   0.88870   0.00000  Uiso   1.00
H1152  H     0.72922   0.60901   0.85994   0.00000  Uiso   1.00
H1153  H     0.73251   0.62954   0.92115   0.00000  Uiso   1.00
H1154  H     0.79195   0.97023   0.68090   0.00000  Uiso   1.00
H1155  H     0.97349   0.65355   0.90360   0.00000  Uiso   1.00
H1156  H     0.97976   0.59511   0.89301   0.00000  Uiso   1.00
H1157  H     0.97040   0.63262   0.84219   0.00000  Uiso   1.00
H1158  H     0.81783   0.60854   0.82334   0.00000  Uiso   1.00
H1159  H     0.78916   0.88952   0.68025   0.00000  Uiso   1.00
H1160  H     0.85382   0.61290   0.67621   0.00000  Uiso   1.00
H1161  H     0.88357   0.88758   0.81991   0.00000  Uiso   1.00
H1162  H     0.90530   0.78565   0.54381   0.00000  Uiso   1.00
N1163  N     0.83333   0.75001   0.62935   0.00000  Uiso   1.00
N1164  N     0.83333   0.74999   0.87066   0.00000  Uiso   1.00
O1165  O     0.83334   0.68572   0.79072   0.00000  Uiso   1.00
O1166  O     0.89645   0.97264   0.82878   0.00000  Uiso   1.00
O1167  O     0.91378   0.78946   0.63892   0.00000  Uiso   1.00
O1168  O     0.78322   0.68318   0.86429   0.00000  Uiso   1.00
O1169  O     0.83333   0.81427   0.70928   0.00000  Uiso   1.00
O1170  O     0.83334   0.68573   0.70928   0.00000  Uiso   1.00
O1171  O     0.83333   0.81427   0.79072   0.00000  Uiso   1.00
O1172  O     0.75828   0.75000   0.78132   0.00000  Uiso   1.00
O1173  O     0.90839   0.75000   0.71868   0.00000  Uiso   1.00
O1174  O     0.75828   0.75000   0.69988   0.00000  Uiso   1.00
O1175  O     0.90839   0.75000   0.80012   0.00000  Uiso   1.00
O1176  O     0.86191   0.52872   0.66565   0.00000  Uiso   1.00
loop_
_geom_bond_atom_site_label_1
_geom_bond_atom_site_label_2
_geom_bond_distance
_geom_bond_site_symmetry_2
_ccdc_geom_bond_type
C1     O87     1.296   .     A
C1     O92     1.294   .     A
C1     C14     1.462   .     S
C2     C39     1.408   .     A
C2     H48     1.081   .     S
C2     C4      1.411   .     A
C3     C23     1.406   .     A
C3     C40     1.411   .     A
C3     C592    1.518   1_554 S
C4     C34     1.406   .     A
C4     C591    1.518   .     S
C5     O94     1.287   .     A
C5     C7      1.428   .     S
C5     O96     1.286   .     A
C6     O97     1.286   .     A
C6     C8      1.428   .     S
C6     O95     1.286   .     A
C7     C204    1.332   1_455 S
C7     H239    1.087   1_455 S
C8     C105    1.332   .     S
C8     H152    1.087   .     S
C9     C11     1.389   .     A
C9     C20     1.404   .     A
C9     H65     1.083   .     S
C10    H76     1.083   .     S
C10    C21     1.404   .     A
C10    C13     1.388   .     A
C11    C14     1.400   .     A
C11    H80     1.082   .     S
C12    O91     1.293   .     A
C12    C15     1.455   .     S
C12    O93     1.294   .     A
C13    H81     1.083   .     S
C13    C15     1.398   .     A
C14    C16     1.401   .     A
C15    C17     1.399   .     A
C16    H82     1.084   .     S
C16    C18     1.392   .     A
C17    H83     1.084   .     S
C17    C19     1.395   .     A
C18    C20     1.415   .     A
C18    O98     1.385   .     S
C19    C21     1.417   .     A
C19    O88     1.387   .     S
C20    C315    1.470   1_545 S
C21    C314    1.470   .     S
C22    O98     1.415   .     S
C22    C24     1.537   .     S
C22    H343    1.110   1_545 S
C22    H344    1.109   1_545 S
C23    H84     1.081   .     S
C23    C36     1.413   .     A
C24    H52     1.111   .     S
C24    H51     1.111   .     S
C24    C123    1.527   .     S
C25    H56     1.111   .     S
C25    H53     1.110   .     S
C25    H55     1.111   .     S
C25    C220    1.527   1_455 S
C26    C27     1.536   .     S
C26    O88     1.416   .     S
C26    H351    1.111   .     S
C26    H352    1.109   .     S
C27    H60     1.110   .     S
C27    H59     1.111   .     S
C27    C126    1.527   .     S
C28    H61     1.110   .     S
C28    H63     1.111   .     S
C28    H62     1.111   .     S
C28    C223    1.527   1_455 S
C29    O89     1.411   .     S
C29    H64     1.116   .     S
C29    C30     1.530   .     S
C29    H66     1.113   .     S
C30    C31     1.523   .     S
C30    H67     1.112   .     S
C30    H68     1.112   .     S
C31    H70     1.110   .     S
C31    H71     1.110   .     S
C31    H69     1.111   .     S
C32    H72     1.109   .     S
C32    O90     1.417   .     S
C32    H73     1.117   .     S
C32    C33     1.530   .     S
C33    H75     1.111   .     S
C33    H74     1.112   .     S
C33    C231    1.527   1_455 S
C34    C37     1.415   .     A
C34    H44     1.081   .     S
C35    H77     1.111   .     S
C35    H78     1.110   .     S
C35    H79     1.111   .     S
C35    C131    1.527   .     S
C36    O89     1.380   .     S
C36    N85     1.373   .     A
C37    O90     1.383   .     S
C37    N86     1.372   .     A
C38    H45     1.081   .     S
C38    N85     1.365   .     A
C38    C40     1.409   .     A
C39    H46     1.082   .     S
C39    N86     1.364   .     A
C40    H47     1.081   .     S
Cu41   Cu42    2.680   .     S
Cu41   N86     2.013   .     S
Cu41   O87     1.954   .     S
Cu41   O94     1.951   .     S
Cu41   O93     1.953   .     S
Cu41   O97     1.951   .     S
Cu42   O96     1.951   .     S
Cu42   O91     1.954   .     S
Cu42   O92     1.953   .     S
Cu42   O95     1.951   .     S
Cu42   N85     2.013   .     S
H43    C105    1.087   .     S
H49    C316    1.110   .     S
H50    C316    1.109   .     S
H54    C204    1.087   1_455 S
H57    C320    1.111   1_545 S
H58    C320    1.109   1_545 S
C99    O185    1.296   .     A
C99    O190    1.294   .     A
C99    C112    1.462   .     S
C100   C137    1.408   .     A
C100   H146    1.081   .     S
C100   C102    1.411   .     A
C101   C121    1.406   .     A
C101   C138    1.411   .     A
C101   C690    1.518   1_554 S
C102   C132    1.406   .     A
C102   C689    1.518   .     S
C103   O192    1.287   .     A
C103   C105    1.428   .     S
C103   O194    1.286   .     A
C104   O195    1.286   .     A
C104   C106    1.428   .     S
C104   O193    1.286   .     A
C106   C203    1.332   .     S
C106   H250    1.087   .     S
C107   C109    1.389   .     A
C107   C118    1.404   .     A
C107   H163    1.083   .     S
C108   H174    1.083   .     S
C108   C119    1.404   .     A
C108   C111    1.388   .     A
C109   C112    1.400   .     A
C109   H178    1.082   .     S
C110   O189    1.293   .     A
C110   C113    1.455   .     S
C110   O191    1.294   .     A
C111   H179    1.083   .     S
C111   C113    1.398   .     A
C112   C114    1.401   .     A
C113   C115    1.399   .     A
C114   H180    1.084   .     S
C114   C116    1.392   .     A
C115   H181    1.084   .     S
C115   C117    1.395   .     A
C116   C118    1.415   .     A
C116   O196    1.385   .     S
C117   C119    1.417   .     A
C117   O186    1.387   .     S
C118   C413    1.470   1_545 S
C119   C412    1.470   .     S
C120   O196    1.415   .     S
C120   C122    1.537   .     S
C120   H441    1.110   1_545 S
C120   H442    1.109   1_545 S
C121   H182    1.081   .     S
C121   C134    1.413   .     A
C122   H150    1.111   .     S
C122   H149    1.111   .     S
C122   C221    1.527   .     S
C123   H154    1.111   .     S
C123   H151    1.110   .     S
C123   H153    1.111   .     S
C124   C125    1.536   .     S
C124   O186    1.416   .     S
C124   H449    1.111   .     S
C124   H450    1.109   .     S
C125   H158    1.110   .     S
C125   H157    1.111   .     S
C125   C224    1.527   .     S
C126   H159    1.110   .     S
C126   H161    1.111   .     S
C126   H160    1.111   .     S
C127   O187    1.411   .     S
C127   H162    1.116   .     S
C127   C128    1.530   .     S
C127   H164    1.113   .     S
C128   C129    1.523   .     S
C128   H165    1.112   .     S
C128   H166    1.112   .     S
C129   H168    1.110   .     S
C129   H169    1.110   .     S
C129   H167    1.111   .     S
C130   H170    1.109   .     S
C130   O188    1.417   .     S
C130   H171    1.117   .     S
C130   C131    1.530   .     S
C131   H173    1.111   .     S
C131   H172    1.112   .     S
C132   C135    1.415   .     A
C132   H142    1.081   .     S
C133   H175    1.111   .     S
C133   H176    1.110   .     S
C133   H177    1.111   .     S
C133   C229    1.527   .     S
C134   O187    1.380   .     S
C134   N183    1.373   .     A
C135   O188    1.383   .     S
C135   N184    1.372   .     A
C136   H143    1.081   .     S
C136   N183    1.365   .     A
C136   C138    1.409   .     A
C137   H144    1.082   .     S
C137   N184    1.364   .     A
C138   H145    1.081   .     S
Cu139  Cu140   2.680   .     S
Cu139  N184    2.013   .     S
Cu139  O185    1.954   .     S
Cu139  O192    1.951   .     S
Cu139  O191    1.953   .     S
Cu139  O195    1.951   .     S
Cu140  O194    1.951   .     S
Cu140  O189    1.954   .     S
Cu140  O190    1.953   .     S
Cu140  O193    1.951   .     S
Cu140  N183    2.013   .     S
H141   C203    1.087   .     S
H147   C414    1.110   .     S
H148   C414    1.109   .     S
H155   C418    1.111   1_545 S
H156   C418    1.109   1_545 S
C197   O283    1.296   .     A
C197   O288    1.294   .     A
C197   C210    1.462   .     S
C198   C235    1.408   .     A
C198   H244    1.081   .     S
C198   C200    1.411   .     A
C199   C219    1.406   .     A
C199   C236    1.411   .     A
C199   C788    1.518   1_554 S
C200   C230    1.406   .     A
C200   C787    1.518   .     S
C201   O290    1.287   .     A
C201   C203    1.428   .     S
C201   O292    1.286   .     A
C202   O293    1.286   .     A
C202   C204    1.428   .     S
C202   O291    1.286   .     A
C204   C7      1.332   1_655 S
C204   H54     1.087   1_655 S
C205   C207    1.389   .     A
C205   C216    1.404   .     A
C205   H261    1.083   .     S
C206   H272    1.083   .     S
C206   C217    1.404   .     A
C206   C209    1.388   .     A
C207   C210    1.400   .     A
C207   H276    1.082   .     S
C208   O287    1.293   .     A
C208   C211    1.455   .     S
C208   O289    1.294   .     A
C209   H277    1.083   .     S
C209   C211    1.398   .     A
C210   C212    1.401   .     A
C211   C213    1.399   .     A
C212   H278    1.084   .     S
C212   C214    1.392   .     A
C213   H279    1.084   .     S
C213   C215    1.395   .     A
C214   C216    1.415   .     A
C214   O294    1.385   .     S
C215   C217    1.417   .     A
C215   O284    1.387   .     S
C216   C511    1.470   1_545 S
C217   C510    1.470   .     S
C218   O294    1.415   .     S
C218   C220    1.537   .     S
C218   H539    1.110   1_545 S
C218   H540    1.109   1_545 S
C219   H280    1.081   .     S
C219   C232    1.413   .     A
C220   H248    1.111   .     S
C220   H247    1.111   .     S
C220   C25     1.527   1_655 S
C221   H252    1.111   .     S
C221   H249    1.110   .     S
C221   H251    1.111   .     S
C222   C223    1.536   .     S
C222   O284    1.416   .     S
C222   H547    1.111   .     S
C222   H548    1.109   .     S
C223   H256    1.110   .     S
C223   H255    1.111   .     S
C223   C28     1.527   1_655 S
C224   H257    1.110   .     S
C224   H259    1.111   .     S
C224   H258    1.111   .     S
C225   O285    1.411   .     S
C225   H260    1.116   .     S
C225   C226    1.530   .     S
C225   H262    1.113   .     S
C226   C227    1.523   .     S
C226   H263    1.112   .     S
C226   H264    1.112   .     S
C227   H266    1.110   .     S
C227   H267    1.110   .     S
C227   H265    1.111   .     S
C228   H268    1.109   .     S
C228   O286    1.417   .     S
C228   H269    1.117   .     S
C228   C229    1.530   .     S
C229   H271    1.111   .     S
C229   H270    1.112   .     S
C230   C233    1.415   .     A
C230   H240    1.081   .     S
C231   H273    1.111   .     S
C231   H274    1.110   .     S
C231   H275    1.111   .     S
C231   C33     1.527   1_655 S
C232   O285    1.380   .     S
C232   N281    1.373   .     A
C233   O286    1.383   .     S
C233   N282    1.372   .     A
C234   H241    1.081   .     S
C234   N281    1.365   .     A
C234   C236    1.409   .     A
C235   H242    1.082   .     S
C235   N282    1.364   .     A
C236   H243    1.081   .     S
Cu237  Cu238   2.680   .     S
Cu237  N282    2.013   .     S
Cu237  O283    1.954   .     S
Cu237  O290    1.951   .     S
Cu237  O289    1.953   .     S
Cu237  O293    1.951   .     S
Cu238  O292    1.951   .     S
Cu238  O287    1.954   .     S
Cu238  O288    1.953   .     S
Cu238  O291    1.951   .     S
Cu238  N281    2.013   .     S
H239   C7      1.087   1_655 S
H245   C512    1.110   .     S
H246   C512    1.109   .     S
H253   C516    1.111   1_545 S
H254   C516    1.109   1_545 S
C295   O381    1.296   .     A
C295   O386    1.294   .     A
C295   C308    1.462   .     S
C296   C333    1.408   .     A
C296   H342    1.081   .     S
C296   C298    1.411   .     A
C297   C317    1.406   .     A
C297   C334    1.411   .     A
C297   C886    1.518   1_554 S
C298   C328    1.406   .     A
C298   C885    1.518   .     S
C299   O388    1.287   .     A
C299   C301    1.428   .     S
C299   O390    1.286   .     A
C300   O391    1.286   .     A
C300   C302    1.428   .     S
C300   O389    1.286   .     A
C301   C498    1.332   1_455 S
C301   H533    1.087   1_455 S
C302   C399    1.332   .     S
C302   H446    1.087   .     S
C303   C305    1.389   .     A
C303   C314    1.404   .     A
C303   H359    1.083   .     S
C304   H370    1.083   .     S
C304   C315    1.404   .     A
C304   C307    1.388   .     A
C305   C308    1.400   .     A
C305   H374    1.082   .     S
C306   O385    1.293   .     A
C306   C309    1.455   .     S
C306   O387    1.294   .     A
C307   H375    1.083   .     S
C307   C309    1.398   .     A
C308   C310    1.401   .     A
C309   C311    1.399   .     A
C310   H376    1.084   .     S
C310   C312    1.392   .     A
C311   H377    1.084   .     S
C311   C313    1.395   .     A
C312   C314    1.415   .     A
C312   O392    1.385   .     S
C313   C315    1.417   .     A
C313   O382    1.387   .     S
C315   C20     1.470   1_565 S
C316   O392    1.415   .     S
C316   C318    1.537   .     S
C317   H378    1.081   .     S
C317   C330    1.413   .     A
C318   H346    1.111   .     S
C318   H345    1.111   .     S
C318   C417    1.527   .     S
C319   H350    1.111   .     S
C319   H347    1.110   .     S
C319   H349    1.111   .     S
C319   C514    1.527   1_455 S
C320   C321    1.536   .     S
C320   O382    1.416   .     S
C320   H57     1.111   1_565 S
C320   H58     1.109   1_565 S
C321   H354    1.110   .     S
C321   H353    1.111   .     S
C321   C420    1.527   .     S
C322   H355    1.110   .     S
C322   H357    1.111   .     S
C322   H356    1.111   .     S
C322   C517    1.527   1_455 S
C323   O383    1.411   .     S
C323   H358    1.116   .     S
C323   C324    1.530   .     S
C323   H360    1.113   .     S
C324   C325    1.523   .     S
C324   H361    1.112   .     S
C324   H362    1.112   .     S
C325   H364    1.110   .     S
C325   H365    1.110   .     S
C325   H363    1.111   .     S
C326   H366    1.109   .     S
C326   O384    1.417   .     S
C326   H367    1.117   .     S
C326   C327    1.530   .     S
C327   H369    1.111   .     S
C327   H368    1.112   .     S
C327   C525    1.527   1_455 S
C328   C331    1.415   .     A
C328   H338    1.081   .     S
C329   H371    1.111   .     S
C329   H372    1.110   .     S
C329   H373    1.111   .     S
C329   C425    1.527   .     S
C330   O383    1.380   .     S
C330   N379    1.373   .     A
C331   O384    1.383   .     S
C331   N380    1.372   .     A
C332   H339    1.081   .     S
C332   N379    1.365   .     A
C332   C334    1.409   .     A
C333   H340    1.082   .     S
C333   N380    1.364   .     A
C334   H341    1.081   .     S
Cu335  Cu336   2.680   .     S
Cu335  N380    2.013   .     S
Cu335  O381    1.954   .     S
Cu335  O388    1.951   .     S
Cu335  O387    1.953   .     S
Cu335  O391    1.951   .     S
Cu336  O390    1.951   .     S
Cu336  O385    1.954   .     S
Cu336  O386    1.953   .     S
Cu336  O389    1.951   .     S
Cu336  N379    2.013   .     S
H337   C399    1.087   .     S
H343   C22     1.110   1_565 S
H344   C22     1.109   1_565 S
H348   C498    1.087   1_455 S
C393   O479    1.296   .     A
C393   O484    1.294   .     A
C393   C406    1.462   .     S
C394   C431    1.408   .     A
C394   H440    1.081   .     S
C394   C396    1.411   .     A
C395   C415    1.406   .     A
C395   C432    1.411   .     A
C395   C984    1.518   1_554 S
C396   C426    1.406   .     A
C396   C983    1.518   .     S
C397   O486    1.287   .     A
C397   C399    1.428   .     S
C397   O488    1.286   .     A
C398   O489    1.286   .     A
C398   C400    1.428   .     S
C398   O487    1.286   .     A
C400   C497    1.332   .     S
C400   H544    1.087   .     S
C401   C403    1.389   .     A
C401   C412    1.404   .     A
C401   H457    1.083   .     S
C402   H468    1.083   .     S
C402   C413    1.404   .     A
C402   C405    1.388   .     A
C403   C406    1.400   .     A
C403   H472    1.082   .     S
C404   O483    1.293   .     A
C404   C407    1.455   .     S
C404   O485    1.294   .     A
C405   H473    1.083   .     S
C405   C407    1.398   .     A
C406   C408    1.401   .     A
C407   C409    1.399   .     A
C408   H474    1.084   .     S
C408   C410    1.392   .     A
C409   H475    1.084   .     S
C409   C411    1.395   .     A
C410   C412    1.415   .     A
C410   O490    1.385   .     S
C411   C413    1.417   .     A
C411   O480    1.387   .     S
C413   C118    1.470   1_565 S
C414   O490    1.415   .     S
C414   C416    1.537   .     S
C415   H476    1.081   .     S
C415   C428    1.413   .     A
C416   H444    1.111   .     S
C416   H443    1.111   .     S
C416   C515    1.527   .     S
C417   H448    1.111   .     S
C417   H445    1.110   .     S
C417   H447    1.111   .     S
C418   C419    1.536   .     S
C418   O480    1.416   .     S
C418   H155    1.111   1_565 S
C418   H156    1.109   1_565 S
C419   H452    1.110   .     S
C419   H451    1.111   .     S
C419   C518    1.527   .     S
C420   H453    1.110   .     S
C420   H455    1.111   .     S
C420   H454    1.111   .     S
C421   O481    1.411   .     S
C421   H456    1.116   .     S
C421   C422    1.530   .     S
C421   H458    1.113   .     S
C422   C423    1.523   .     S
C422   H459    1.112   .     S
C422   H460    1.112   .     S
C423   H462    1.110   .     S
C423   H463    1.110   .     S
C423   H461    1.111   .     S
C424   H464    1.109   .     S
C424   O482    1.417   .     S
C424   H465    1.117   .     S
C424   C425    1.530   .     S
C425   H467    1.111   .     S
C425   H466    1.112   .     S
C426   C429    1.415   .     A
C426   H436    1.081   .     S
C427   H469    1.111   .     S
C427   H470    1.110   .     S
C427   H471    1.111   .     S
C427   C523    1.527   .     S
C428   O481    1.380   .     S
C428   N477    1.373   .     A
C429   O482    1.383   .     S
C429   N478    1.372   .     A
C430   H437    1.081   .     S
C430   N477    1.365   .     A
C430   C432    1.409   .     A
C431   H438    1.082   .     S
C431   N478    1.364   .     A
C432   H439    1.081   .     S
Cu433  Cu434   2.680   .     S
Cu433  N478    2.013   .     S
Cu433  O479    1.954   .     S
Cu433  O486    1.951   .     S
Cu433  O485    1.953   .     S
Cu433  O489    1.951   .     S
Cu434  O488    1.951   .     S
Cu434  O483    1.954   .     S
Cu434  O484    1.953   .     S
Cu434  O487    1.951   .     S
Cu434  N477    2.013   .     S
H435   C497    1.087   .     S
H441   C120    1.110   1_565 S
H442   C120    1.109   1_565 S
C491   O577    1.296   .     A
C491   O582    1.294   .     A
C491   C504    1.462   .     S
C492   C529    1.408   .     A
C492   H538    1.081   .     S
C492   C494    1.411   .     A
C493   C513    1.406   .     A
C493   C530    1.411   .     A
C493   C1082   1.518   1_554 S
C494   C524    1.406   .     A
C494   C1081   1.518   .     S
C495   O584    1.287   .     A
C495   C497    1.428   .     S
C495   O586    1.286   .     A
C496   O587    1.286   .     A
C496   C498    1.428   .     S
C496   O585    1.286   .     A
C498   C301    1.332   1_655 S
C498   H348    1.087   1_655 S
C499   C501    1.389   .     A
C499   C510    1.404   .     A
C499   H555    1.083   .     S
C500   H566    1.083   .     S
C500   C511    1.404   .     A
C500   C503    1.388   .     A
C501   C504    1.400   .     A
C501   H570    1.082   .     S
C502   O581    1.293   .     A
C502   C505    1.455   .     S
C502   O583    1.294   .     A
C503   H571    1.083   .     S
C503   C505    1.398   .     A
C504   C506    1.401   .     A
C505   C507    1.399   .     A
C506   H572    1.084   .     S
C506   C508    1.392   .     A
C507   H573    1.084   .     S
C507   C509    1.395   .     A
C508   C510    1.415   .     A
C508   O588    1.385   .     S
C509   C511    1.417   .     A
C509   O578    1.387   .     S
C511   C216    1.470   1_565 S
C512   O588    1.415   .     S
C512   C514    1.537   .     S
C513   H574    1.081   .     S
C513   C526    1.413   .     A
C514   H542    1.111   .     S
C514   H541    1.111   .     S
C514   C319    1.527   1_655 S
C515   H546    1.111   .     S
C515   H543    1.110   .     S
C515   H545    1.111   .     S
C516   C517    1.536   .     S
C516   O578    1.416   .     S
C516   H253    1.111   1_565 S
C516   H254    1.109   1_565 S
C517   H550    1.110   .     S
C517   H549    1.111   .     S
C517   C322    1.527   1_655 S
C518   H551    1.110   .     S
C518   H553    1.111   .     S
C518   H552    1.111   .     S
C519   O579    1.411   .     S
C519   H554    1.116   .     S
C519   C520    1.530   .     S
C519   H556    1.113   .     S
C520   C521    1.523   .     S
C520   H557    1.112   .     S
C520   H558    1.112   .     S
C521   H560    1.110   .     S
C521   H561    1.110   .     S
C521   H559    1.111   .     S
C522   H562    1.109   .     S
C522   O580    1.417   .     S
C522   H563    1.117   .     S
C522   C523    1.530   .     S
C523   H565    1.111   .     S
C523   H564    1.112   .     S
C524   C527    1.415   .     A
C524   H534    1.081   .     S
C525   H567    1.111   .     S
C525   H568    1.110   .     S
C525   H569    1.111   .     S
C525   C327    1.527   1_655 S
C526   O579    1.380   .     S
C526   N575    1.373   .     A
C527   O580    1.383   .     S
C527   N576    1.372   .     A
C528   H535    1.081   .     S
C528   N575    1.365   .     A
C528   C530    1.409   .     A
C529   H536    1.082   .     S
C529   N576    1.364   .     A
C530   H537    1.081   .     S
Cu531  Cu532   2.680   .     S
Cu531  N576    2.013   .     S
Cu531  O577    1.954   .     S
Cu531  O584    1.951   .     S
Cu531  O583    1.953   .     S
Cu531  O587    1.951   .     S
Cu532  O586    1.951   .     S
Cu532  O581    1.954   .     S
Cu532  O582    1.953   .     S
Cu532  O585    1.951   .     S
Cu532  N575    2.013   .     S
H533   C301    1.087   1_655 S
H539   C218    1.110   1_565 S
H540   C218    1.109   1_565 S
C589   O675    1.296   .     A
C589   O680    1.294   .     A
C589   C602    1.462   .     S
C590   C627    1.408   .     A
C590   H636    1.081   .     S
C590   C592    1.411   .     A
C591   C611    1.406   .     A
C591   C628    1.411   .     A
C592   C622    1.406   .     A
C592   C3      1.518   1_556 S
C593   O682    1.287   .     A
C593   C595    1.428   .     S
C593   O684    1.286   .     A
C594   O685    1.286   .     A
C594   C596    1.428   .     S
C594   O683    1.286   .     A
C595   C792    1.332   1_455 S
C595   H827    1.087   1_455 S
C596   C693    1.332   .     S
C596   H740    1.087   .     S
C597   C599    1.389   .     A
C597   C608    1.404   .     A
C597   H653    1.083   .     S
C598   H664    1.083   .     S
C598   C609    1.404   .     A
C598   C601    1.388   .     A
C599   C602    1.400   .     A
C599   H668    1.082   .     S
C600   O679    1.293   .     A
C600   C603    1.455   .     S
C600   O681    1.294   .     A
C601   H669    1.083   .     S
C601   C603    1.398   .     A
C602   C604    1.401   .     A
C603   C605    1.399   .     A
C604   H670    1.084   .     S
C604   C606    1.392   .     A
C605   H671    1.084   .     S
C605   C607    1.395   .     A
C606   C608    1.415   .     A
C606   O686    1.385   .     S
C607   C609    1.417   .     A
C607   O676    1.387   .     S
C608   C903    1.470   1_545 S
C609   C902    1.470   .     S
C610   O686    1.415   .     S
C610   C612    1.537   .     S
C610   H931    1.110   1_545 S
C610   H932    1.109   1_545 S
C611   H672    1.081   .     S
C611   C624    1.413   .     A
C612   H640    1.111   .     S
C612   H639    1.111   .     S
C612   C711    1.527   .     S
C613   H644    1.111   .     S
C613   H641    1.110   .     S
C613   H643    1.111   .     S
C613   C808    1.527   1_455 S
C614   C615    1.536   .     S
C614   O676    1.416   .     S
C614   H939    1.111   .     S
C614   H940    1.109   .     S
C615   H648    1.110   .     S
C615   H647    1.111   .     S
C615   C714    1.527   .     S
C616   H649    1.110   .     S
C616   H651    1.111   .     S
C616   H650    1.111   .     S
C616   C811    1.527   1_455 S
C617   O677    1.411   .     S
C617   H652    1.116   .     S
C617   C618    1.530   .     S
C617   H654    1.113   .     S
C618   C619    1.523   .     S
C618   H655    1.112   .     S
C618   H656    1.112   .     S
C619   H658    1.110   .     S
C619   H659    1.110   .     S
C619   H657    1.111   .     S
C620   H660    1.109   .     S
C620   O678    1.417   .     S
C620   H661    1.117   .     S
C620   C621    1.530   .     S
C621   H663    1.111   .     S
C621   H662    1.112   .     S
C621   C819    1.527   1_455 S
C622   C625    1.415   .     A
C622   H632    1.081   .     S
C623   H665    1.111   .     S
C623   H666    1.110   .     S
C623   H667    1.111   .     S
C623   C719    1.527   .     S
C624   O677    1.380   .     S
C624   N673    1.373   .     A
C625   O678    1.383   .     S
C625   N674    1.372   .     A
C626   H633    1.081   .     S
C626   N673    1.365   .     A
C626   C628    1.409   .     A
C627   H634    1.082   .     S
C627   N674    1.364   .     A
C628   H635    1.081   .     S
Cu629  Cu630   2.680   .     S
Cu629  N674    2.013   .     S
Cu629  O675    1.954   .     S
Cu629  O682    1.951   .     S
Cu629  O681    1.953   .     S
Cu629  O685    1.951   .     S
Cu630  O684    1.951   .     S
Cu630  O679    1.954   .     S
Cu630  O680    1.953   .     S
Cu630  O683    1.951   .     S
Cu630  N673    2.013   .     S
H631   C693    1.087   .     S
H637   C904    1.110   .     S
H638   C904    1.109   .     S
H642   C792    1.087   1_455 S
H645   C908    1.111   1_545 S
H646   C908    1.109   1_545 S
C687   O773    1.296   .     A
C687   O778    1.294   .     A
C687   C700    1.462   .     S
C688   C725    1.408   .     A
C688   H734    1.081   .     S
C688   C690    1.411   .     A
C689   C709    1.406   .     A
C689   C726    1.411   .     A
C690   C720    1.406   .     A
C690   C101    1.518   1_556 S
C691   O780    1.287   .     A
C691   C693    1.428   .     S
C691   O782    1.286   .     A
C692   O783    1.286   .     A
C692   C694    1.428   .     S
C692   O781    1.286   .     A
C694   C791    1.332   .     S
C694   H838    1.087   .     S
C695   C697    1.389   .     A
C695   C706    1.404   .     A
C695   H751    1.083   .     S
C696   H762    1.083   .     S
C696   C707    1.404   .     A
C696   C699    1.388   .     A
C697   C700    1.400   .     A
C697   H766    1.082   .     S
C698   O777    1.293   .     A
C698   C701    1.455   .     S
C698   O779    1.294   .     A
C699   H767    1.083   .     S
C699   C701    1.398   .     A
C700   C702    1.401   .     A
C701   C703    1.399   .     A
C702   H768    1.084   .     S
C702   C704    1.392   .     A
C703   H769    1.084   .     S
C703   C705    1.395   .     A
C704   C706    1.415   .     A
C704   O784    1.385   .     S
C705   C707    1.417   .     A
C705   O774    1.387   .     S
C706   C1001   1.470   1_545 S
C707   C1000   1.470   .     S
C708   O784    1.415   .     S
C708   C710    1.537   .     S
C708   H1029   1.110   1_545 S
C708   H1030   1.109   1_545 S
C709   H770    1.081   .     S
C709   C722    1.413   .     A
C710   H738    1.111   .     S
C710   H737    1.111   .     S
C710   C809    1.527   .     S
C711   H742    1.111   .     S
C711   H739    1.110   .     S
C711   H741    1.111   .     S
C712   C713    1.536   .     S
C712   O774    1.416   .     S
C712   H1037   1.111   .     S
C712   H1038   1.109   .     S
C713   H746    1.110   .     S
C713   H745    1.111   .     S
C713   C812    1.527   .     S
C714   H747    1.110   .     S
C714   H749    1.111   .     S
C714   H748    1.111   .     S
C715   O775    1.411   .     S
C715   H750    1.116   .     S
C715   C716    1.530   .     S
C715   H752    1.113   .     S
C716   C717    1.523   .     S
C716   H753    1.112   .     S
C716   H754    1.112   .     S
C717   H756    1.110   .     S
C717   H757    1.110   .     S
C717   H755    1.111   .     S
C718   H758    1.109   .     S
C718   O776    1.417   .     S
C718   H759    1.117   .     S
C718   C719    1.530   .     S
C719   H761    1.111   .     S
C719   H760    1.112   .     S
C720   C723    1.415   .     A
C720   H730    1.081   .     S
C721   H763    1.111   .     S
C721   H764    1.110   .     S
C721   H765    1.111   .     S
C721   C817    1.527   .     S
C722   O775    1.380   .     S
C722   N771    1.373   .     A
C723   O776    1.383   .     S
C723   N772    1.372   .     A
C724   H731    1.081   .     S
C724   N771    1.365   .     A
C724   C726    1.409   .     A
C725   H732    1.082   .     S
C725   N772    1.364   .     A
C726   H733    1.081   .     S
Cu727  Cu728   2.680   .     S
Cu727  N772    2.013   .     S
Cu727  O773    1.954   .     S
Cu727  O780    1.951   .     S
Cu727  O779    1.953   .     S
Cu727  O783    1.951   .     S
Cu728  O782    1.951   .     S
Cu728  O777    1.954   .     S
Cu728  O778    1.953   .     S
Cu728  O781    1.951   .     S
Cu728  N771    2.013   .     S
H729   C791    1.087   .     S
H735   C1002   1.110   .     S
H736   C1002   1.109   .     S
H743   C1006   1.111   1_545 S
H744   C1006   1.109   1_545 S
C785   O871    1.296   .     A
C785   O876    1.294   .     A
C785   C798    1.462   .     S
C786   C823    1.408   .     A
C786   H832    1.081   .     S
C786   C788    1.411   .     A
C787   C807    1.406   .     A
C787   C824    1.411   .     A
C788   C818    1.406   .     A
C788   C199    1.518   1_556 S
C789   O878    1.287   .     A
C789   C791    1.428   .     S
C789   O880    1.286   .     A
C790   O881    1.286   .     A
C790   C792    1.428   .     S
C790   O879    1.286   .     A
C792   C595    1.332   1_655 S
C792   H642    1.087   1_655 S
C793   C795    1.389   .     A
C793   C804    1.404   .     A
C793   H849    1.083   .     S
C794   H860    1.083   .     S
C794   C805    1.404   .     A
C794   C797    1.388   .     A
C795   C798    1.400   .     A
C795   H864    1.082   .     S
C796   O875    1.293   .     A
C796   C799    1.455   .     S
C796   O877    1.294   .     A
C797   H865    1.083   .     S
C797   C799    1.398   .     A
C798   C800    1.401   .     A
C799   C801    1.399   .     A
C800   H866    1.084   .     S
C800   C802    1.392   .     A
C801   H867    1.084   .     S
C801   C803    1.395   .     A
C802   C804    1.415   .     A
C802   O882    1.385   .     S
C803   C805    1.417   .     A
C803   O872    1.387   .     S
C804   C1099   1.470   1_545 S
C805   C1098   1.470   .     S
C806   O882    1.415   .     S
C806   C808    1.537   .     S
C806   H1127   1.110   1_545 S
C806   H1128   1.109   1_545 S
C807   H868    1.081   .     S
C807   C820    1.413   .     A
C808   H836    1.111   .     S
C808   H835    1.111   .     S
C808   C613    1.527   1_655 S
C809   H840    1.111   .     S
C809   H837    1.110   .     S
C809   H839    1.111   .     S
C810   C811    1.536   .     S
C810   O872    1.416   .     S
C810   H1135   1.111   .     S
C810   H1136   1.109   .     S
C811   H844    1.110   .     S
C811   H843    1.111   .     S
C811   C616    1.527   1_655 S
C812   H845    1.110   .     S
C812   H847    1.111   .     S
C812   H846    1.111   .     S
C813   O873    1.411   .     S
C813   H848    1.116   .     S
C813   C814    1.530   .     S
C813   H850    1.113   .     S
C814   C815    1.523   .     S
C814   H851    1.112   .     S
C814   H852    1.112   .     S
C815   H854    1.110   .     S
C815   H855    1.110   .     S
C815   H853    1.111   .     S
C816   H856    1.109   .     S
C816   O874    1.417   .     S
C816   H857    1.117   .     S
C816   C817    1.530   .     S
C817   H859    1.111   .     S
C817   H858    1.112   .     S
C818   C821    1.415   .     A
C818   H828    1.081   .     S
C819   H861    1.111   .     S
C819   H862    1.110   .     S
C819   H863    1.111   .     S
C819   C621    1.527   1_655 S
C820   O873    1.380   .     S
C820   N869    1.373   .     A
C821   O874    1.383   .     S
C821   N870    1.372   .     A
C822   H829    1.081   .     S
C822   N869    1.365   .     A
C822   C824    1.409   .     A
C823   H830    1.082   .     S
C823   N870    1.364   .     A
C824   H831    1.081   .     S
Cu825  Cu826   2.680   .     S
Cu825  N870    2.013   .     S
Cu825  O871    1.954   .     S
Cu825  O878    1.951   .     S
Cu825  O877    1.953   .     S
Cu825  O881    1.951   .     S
Cu826  O880    1.951   .     S
Cu826  O875    1.954   .     S
Cu826  O876    1.953   .     S
Cu826  O879    1.951   .     S
Cu826  N869    2.013   .     S
H827   C595    1.087   1_655 S
H833   C1100   1.110   .     S
H834   C1100   1.109   .     S
H841   C1104   1.111   1_545 S
H842   C1104   1.109   1_545 S
C883   O969    1.296   .     A
C883   O974    1.294   .     A
C883   C896    1.462   .     S
C884   C921    1.408   .     A
C884   H930    1.081   .     S
C884   C886    1.411   .     A
C885   C905    1.406   .     A
C885   C922    1.411   .     A
C886   C916    1.406   .     A
C886   C297    1.518   1_556 S
C887   O976    1.287   .     A
C887   C889    1.428   .     S
C887   O978    1.286   .     A
C888   O979    1.286   .     A
C888   C890    1.428   .     S
C888   O977    1.286   .     A
C889   C1086   1.332   1_455 S
C889   H1121   1.087   1_455 S
C890   C987    1.332   .     S
C890   H1034   1.087   .     S
C891   C893    1.389   .     A
C891   C902    1.404   .     A
C891   H947    1.083   .     S
C892   H958    1.083   .     S
C892   C903    1.404   .     A
C892   C895    1.388   .     A
C893   C896    1.400   .     A
C893   H962    1.082   .     S
C894   O973    1.293   .     A
C894   C897    1.455   .     S
C894   O975    1.294   .     A
C895   H963    1.083   .     S
C895   C897    1.398   .     A
C896   C898    1.401   .     A
C897   C899    1.399   .     A
C898   H964    1.084   .     S
C898   C900    1.392   .     A
C899   H965    1.084   .     S
C899   C901    1.395   .     A
C900   C902    1.415   .     A
C900   O980    1.385   .     S
C901   C903    1.417   .     A
C901   O970    1.387   .     S
C903   C608    1.470   1_565 S
C904   O980    1.415   .     S
C904   C906    1.537   .     S
C905   H966    1.081   .     S
C905   C918    1.413   .     A
C906   H934    1.111   .     S
C906   H933    1.111   .     S
C906   C1005   1.527   .     S
C907   H938    1.111   .     S
C907   H935    1.110   .     S
C907   H937    1.111   .     S
C907   C1102   1.527   1_455 S
C908   C909    1.536   .     S
C908   O970    1.416   .     S
C908   H645    1.111   1_565 S
C908   H646    1.109   1_565 S
C909   H942    1.110   .     S
C909   H941    1.111   .     S
C909   C1008   1.527   .     S
C910   H943    1.110   .     S
C910   H945    1.111   .     S
C910   H944    1.111   .     S
C910   C1105   1.527   1_455 S
C911   O971    1.411   .     S
C911   H946    1.116   .     S
C911   C912    1.530   .     S
C911   H948    1.113   .     S
C912   C913    1.523   .     S
C912   H949    1.112   .     S
C912   H950    1.112   .     S
C913   H952    1.110   .     S
C913   H953    1.110   .     S
C913   H951    1.111   .     S
C914   H954    1.109   .     S
C914   O972    1.417   .     S
C914   H955    1.117   .     S
C914   C915    1.530   .     S
C915   H957    1.111   .     S
C915   H956    1.112   .     S
C915   C1113   1.527   1_455 S
C916   C919    1.415   .     A
C916   H926    1.081   .     S
C917   H959    1.111   .     S
C917   H960    1.110   .     S
C917   H961    1.111   .     S
C917   C1013   1.527   .     S
C918   O971    1.380   .     S
C918   N967    1.373   .     A
C919   O972    1.383   .     S
C919   N968    1.372   .     A
C920   H927    1.081   .     S
C920   N967    1.365   .     A
C920   C922    1.409   .     A
C921   H928    1.082   .     S
C921   N968    1.364   .     A
C922   H929    1.081   .     S
Cu923  Cu924   2.680   .     S
Cu923  N968    2.013   .     S
Cu923  O969    1.954   .     S
Cu923  O976    1.951   .     S
Cu923  O975    1.953   .     S
Cu923  O979    1.951   .     S
Cu924  O978    1.951   .     S
Cu924  O973    1.954   .     S
Cu924  O974    1.953   .     S
Cu924  O977    1.951   .     S
Cu924  N967    2.013   .     S
H925   C987    1.087   .     S
H931   C610    1.110   1_565 S
H932   C610    1.109   1_565 S
H936   C1086   1.087   1_455 S
C981   O1067   1.296   .     A
C981   O1072   1.294   .     A
C981   C994    1.462   .     S
C982   C1019   1.408   .     A
C982   H1028   1.081   .     S
C982   C984    1.411   .     A
C983   C1003   1.406   .     A
C983   C1020   1.411   .     A
C984   C1014   1.406   .     A
C984   C395    1.518   1_556 S
C985   O1074   1.287   .     A
C985   C987    1.428   .     S
C985   O1076   1.286   .     A
C986   O1077   1.286   .     A
C986   C988    1.428   .     S
C986   O1075   1.286   .     A
C988   C1085   1.332   .     S
C988   H1132   1.087   .     S
C989   C991    1.389   .     A
C989   C1000   1.404   .     A
C989   H1045   1.083   .     S
C990   H1056   1.083   .     S
C990   C1001   1.404   .     A
C990   C993    1.388   .     A
C991   C994    1.400   .     A
C991   H1060   1.082   .     S
C992   O1071   1.293   .     A
C992   C995    1.455   .     S
C992   O1073   1.294   .     A
C993   H1061   1.083   .     S
C993   C995    1.398   .     A
C994   C996    1.401   .     A
C995   C997    1.399   .     A
C996   H1062   1.084   .     S
C996   C998    1.392   .     A
C997   H1063   1.084   .     S
C997   C999    1.395   .     A
C998   C1000   1.415   .     A
C998   O1078   1.385   .     S
C999   C1001   1.417   .     A
C999   O1068   1.387   .     S
C1001  C706    1.470   1_565 S
C1002  O1078   1.415   .     S
C1002  C1004   1.537   .     S
C1003  H1064   1.081   .     S
C1003  C1016   1.413   .     A
C1004  H1032   1.111   .     S
C1004  H1031   1.111   .     S
C1004  C1103   1.527   .     S
C1005  H1036   1.111   .     S
C1005  H1033   1.110   .     S
C1005  H1035   1.111   .     S
C1006  C1007   1.536   .     S
C1006  O1068   1.416   .     S
C1006  H743    1.111   1_565 S
C1006  H744    1.109   1_565 S
C1007  H1040   1.110   .     S
C1007  H1039   1.111   .     S
C1007  C1106   1.527   .     S
C1008  H1041   1.110   .     S
C1008  H1043   1.111   .     S
C1008  H1042   1.111   .     S
C1009  O1069   1.411   .     S
C1009  H1044   1.116   .     S
C1009  C1010   1.530   .     S
C1009  H1046   1.113   .     S
C1010  C1011   1.523   .     S
C1010  H1047   1.112   .     S
C1010  H1048   1.112   .     S
C1011  H1050   1.110   .     S
C1011  H1051   1.110   .     S
C1011  H1049   1.111   .     S
C1012  H1052   1.109   .     S
C1012  O1070   1.417   .     S
C1012  H1053   1.117   .     S
C1012  C1013   1.530   .     S
C1013  H1055   1.111   .     S
C1013  H1054   1.112   .     S
C1014  C1017   1.415   .     A
C1014  H1024   1.081   .     S
C1015  H1057   1.111   .     S
C1015  H1058   1.110   .     S
C1015  H1059   1.111   .     S
C1015  C1111   1.527   .     S
C1016  O1069   1.380   .     S
C1016  N1065   1.373   .     A
C1017  O1070   1.383   .     S
C1017  N1066   1.372   .     A
C1018  H1025   1.081   .     S
C1018  N1065   1.365   .     A
C1018  C1020   1.409   .     A
C1019  H1026   1.082   .     S
C1019  N1066   1.364   .     A
C1020  H1027   1.081   .     S
Cu1021 Cu1022  2.680   .     S
Cu1021 N1066   2.013   .     S
Cu1021 O1067   1.954   .     S
Cu1021 O1074   1.951   .     S
Cu1021 O1073   1.953   .     S
Cu1021 O1077   1.951   .     S
Cu1022 O1076   1.951   .     S
Cu1022 O1071   1.954   .     S
Cu1022 O1072   1.953   .     S
Cu1022 O1075   1.951   .     S
Cu1022 N1065   2.013   .     S
H1023  C1085   1.087   .     S
H1029  C708    1.110   1_565 S
H1030  C708    1.109   1_565 S
C1079  O1165   1.296   .     A
C1079  O1170   1.294   .     A
C1079  C1092   1.462   .     S
C1080  C1117   1.408   .     A
C1080  H1126   1.081   .     S
C1080  C1082   1.411   .     A
C1081  C1101   1.406   .     A
C1081  C1118   1.411   .     A
C1082  C1112   1.406   .     A
C1082  C493    1.518   1_556 S
C1083  O1172   1.287   .     A
C1083  C1085   1.428   .     S
C1083  O1174   1.286   .     A
C1084  O1175   1.286   .     A
C1084  C1086   1.428   .     S
C1084  O1173   1.286   .     A
C1086  C889    1.332   1_655 S
C1086  H936    1.087   1_655 S
C1087  C1089   1.389   .     A
C1087  C1098   1.404   .     A
C1087  H1143   1.083   .     S
C1088  H1154   1.083   .     S
C1088  C1099   1.404   .     A
C1088  C1091   1.388   .     A
C1089  C1092   1.400   .     A
C1089  H1158   1.082   .     S
C1090  O1169   1.293   .     A
C1090  C1093   1.455   .     S
C1090  O1171   1.294   .     A
C1091  H1159   1.083   .     S
C1091  C1093   1.398   .     A
C1092  C1094   1.401   .     A
C1093  C1095   1.399   .     A
C1094  H1160   1.084   .     S
C1094  C1096   1.392   .     A
C1095  H1161   1.084   .     S
C1095  C1097   1.395   .     A
C1096  C1098   1.415   .     A
C1096  O1176   1.385   .     S
C1097  C1099   1.417   .     A
C1097  O1166   1.387   .     S
C1099  C804    1.470   1_565 S
C1100  O1176   1.415   .     S
C1100  C1102   1.537   .     S
C1101  H1162   1.081   .     S
C1101  C1114   1.413   .     A
C1102  H1130   1.111   .     S
C1102  H1129   1.111   .     S
C1102  C907    1.527   1_655 S
C1103  H1134   1.111   .     S
C1103  H1131   1.110   .     S
C1103  H1133   1.111   .     S
C1104  C1105   1.536   .     S
C1104  O1166   1.416   .     S
C1104  H841    1.111   1_565 S
C1104  H842    1.109   1_565 S
C1105  H1138   1.110   .     S
C1105  H1137   1.111   .     S
C1105  C910    1.527   1_655 S
C1106  H1139   1.110   .     S
C1106  H1141   1.111   .     S
C1106  H1140   1.111   .     S
C1107  O1167   1.411   .     S
C1107  H1142   1.116   .     S
C1107  C1108   1.530   .     S
C1107  H1144   1.113   .     S
C1108  C1109   1.523   .     S
C1108  H1145   1.112   .     S
C1108  H1146   1.112   .     S
C1109  H1148   1.110   .     S
C1109  H1149   1.110   .     S
C1109  H1147   1.111   .     S
C1110  H1150   1.109   .     S
C1110  O1168   1.417   .     S
C1110  H1151   1.117   .     S
C1110  C1111   1.530   .     S
C1111  H1153   1.111   .     S
C1111  H1152   1.112   .     S
C1112  C1115   1.415   .     A
C1112  H1122   1.081   .     S
C1113  H1155   1.111   .     S
C1113  H1156   1.110   .     S
C1113  H1157   1.111   .     S
C1113  C915    1.527   1_655 S
C1114  O1167   1.380   .     S
C1114  N1163   1.373   .     A
C1115  O1168   1.383   .     S
C1115  N1164   1.372   .     A
C1116  H1123   1.081   .     S
C1116  N1163   1.365   .     A
C1116  C1118   1.409   .     A
C1117  H1124   1.082   .     S
C1117  N1164   1.364   .     A
C1118  H1125   1.081   .     S
Cu1119 Cu1120  2.680   .     S
Cu1119 N1164   2.013   .     S
Cu1119 O1165   1.954   .     S
Cu1119 O1172   1.951   .     S
Cu1119 O1171   1.953   .     S
Cu1119 O1175   1.951   .     S
Cu1120 O1174   1.951   .     S
Cu1120 O1169   1.954   .     S
Cu1120 O1170   1.953   .     S
Cu1120 O1173   1.951   .     S
Cu1120 N1163   2.013   .     S
H1121  C889    1.087   1_655 S
H1127  C806    1.110   1_565 S
H1128  C806    1.109   1_565 S
