data_str_m2_o2_o10_pcu_sym.242
_audit_creation_date              2020-01-03
_audit_creation_method            'Materials Studio'
_symmetry_space_group_name_H-M    'P1'
_symmetry_Int_Tables_number       1
_symmetry_cell_setting            triclinic
loop_
_symmetry_equiv_pos_as_xyz
  x,y,z
_cell_length_a                    26.1997
_cell_length_b                    30.2993
_cell_length_c                    27.7264
_cell_angle_alpha                 89.7036
_cell_angle_beta                  97.9262
_cell_angle_gamma                 90.1368
loop_
_atom_site_label
_atom_site_type_symbol
_atom_site_fract_x
_atom_site_fract_y
_atom_site_fract_z
_atom_site_U_iso_or_equiv
_atom_site_adp_type
_atom_site_occupancy
O1     O     0.16667   0.18573   0.29071   0.00000  Uiso   1.00
O2     O     0.16666   0.31428   0.20928   0.00000  Uiso   1.00
O3     O     0.16667   0.18573   0.20928   0.00000  Uiso   1.00
O4     O     0.16666   0.31427   0.29072   0.00000  Uiso   1.00
C5     C     0.16839   0.16484   0.25044   0.00000  Uiso   1.00
C6     C     0.16569   0.33488   0.24974   0.00000  Uiso   1.00
O7     O     0.09161   0.25000   0.28132   0.00000  Uiso   1.00
O8     O     0.24172   0.25001   0.21868   0.00000  Uiso   1.00
O9     O     0.09161   0.25000   0.19988   0.00000  Uiso   1.00
O10    O     0.24172   0.25000   0.30011   0.00000  Uiso   1.00
C11    C     0.06789   0.24988   0.23756   0.00000  Uiso   1.00
C12    C     0.26544   0.25001   0.26245   0.00000  Uiso   1.00
Cu13   Cu    0.16667   0.25000   0.29821   0.00000  Uiso   1.00
Cu14   Cu    0.16667   0.25001   0.20178   0.00000  Uiso   1.00
C15    C     0.01263   0.24993   0.23069   0.00000  Uiso   1.00
C16    C     0.32070   0.24995   0.26933   0.00000  Uiso   1.00
H17    H     0.32600   0.25001   0.19361   0.00000  Uiso   1.00
H18    H     0.00734   0.24988   0.30641   0.00000  Uiso   1.00
C19    C     0.17863   0.04597   0.29391   0.00000  Uiso   1.00
C20    C     0.13298   0.45286   0.21516   0.00000  Uiso   1.00
H21    H     0.18434   0.02766   0.32788   0.00000  Uiso   1.00
H22    H     0.10556   0.47141   0.19016   0.00000  Uiso   1.00
C23    C     0.18063   0.09196   0.29536   0.00000  Uiso   1.00
C24    C     0.13030   0.40677   0.21513   0.00000  Uiso   1.00
C25    C     0.17115   0.11633   0.25122   0.00000  Uiso   1.00
C26    C     0.16474   0.38286   0.24933   0.00000  Uiso   1.00
C27    C     0.16285   0.09366   0.20675   0.00000  Uiso   1.00
C28    C     0.20054   0.40510   0.28274   0.00000  Uiso   1.00
C29    C     0.16286   0.04784   0.20583   0.00000  Uiso   1.00
C30    C     0.20303   0.45083   0.28214   0.00000  Uiso   1.00
H31    H     0.15721   0.03135   0.17093   0.00000  Uiso   1.00
H32    H     0.23194   0.46716   0.30764   0.00000  Uiso   1.00
C33    C     0.17019   0.02365   0.24939   0.00000  Uiso   1.00
C34    C     0.16903   0.47510   0.24862   0.00000  Uiso   1.00
C35    C     0.19033   0.28417   0.05684   0.00000  Uiso   1.00
C36    C     0.12732   0.22897   0.44103   0.00000  Uiso   1.00
H37    H     0.20832   0.31186   0.04104   0.00000  Uiso   1.00
H38    H     0.09537   0.21298   0.45493   0.00000  Uiso   1.00
C39    C     0.19019   0.28338   0.10756   0.00000  Uiso   1.00
C40    C     0.12825   0.22909   0.39042   0.00000  Uiso   1.00
N41    N     0.16667   0.25001   0.12934   0.00000  Uiso   1.00
N42    N     0.16667   0.24999   0.37065   0.00000  Uiso   1.00
C43    C     0.14315   0.21664   0.10181   0.00000  Uiso   1.00
C44    C     0.20518   0.27078   0.40019   0.00000  Uiso   1.00
H45    H     0.12439   0.19027   0.11912   0.00000  Uiso   1.00
H46    H     0.23558   0.28732   0.38441   0.00000  Uiso   1.00
C47    C     0.14308   0.21580   0.05108   0.00000  Uiso   1.00
C48    C     0.20615   0.27087   0.45105   0.00000  Uiso   1.00
C49    C     0.16672   0.24996   0.02734   0.00000  Uiso   1.00
C50    C     0.16673   0.24993   0.47266   0.00000  Uiso   1.00
N51    N     0.19419   0.11289   0.34167   0.00000  Uiso   1.00
O52    O     0.23527   0.13752   0.34914   0.00000  Uiso   1.00
O53    O     0.17217   0.10036   0.37876   0.00000  Uiso   1.00
N54    N     0.09131   0.38515   0.18177   0.00000  Uiso   1.00
O55    O     0.06605   0.35159   0.19602   0.00000  Uiso   1.00
O56    O     0.07600   0.40260   0.13927   0.00000  Uiso   1.00
H57    H     0.15602   0.11132   0.17240   0.00000  Uiso   1.00
H58    H     0.22744   0.38694   0.30869   0.00000  Uiso   1.00
H59    H     0.20888   0.30977   0.12947   0.00000  Uiso   1.00
H60    H     0.09786   0.21249   0.36693   0.00000  Uiso   1.00
H61    H     0.12511   0.18808   0.03093   0.00000  Uiso   1.00
H62    H     0.23813   0.28682   0.47310   0.00000  Uiso   1.00
O63    O     0.50000   0.18573   0.29071   0.00000  Uiso   1.00
O64    O     0.50000   0.31428   0.20928   0.00000  Uiso   1.00
O65    O     0.50000   0.18573   0.20928   0.00000  Uiso   1.00
O66    O     0.50000   0.31427   0.29072   0.00000  Uiso   1.00
C67    C     0.50173   0.16484   0.25044   0.00000  Uiso   1.00
C68    C     0.49902   0.33488   0.24974   0.00000  Uiso   1.00
O69    O     0.42495   0.25000   0.28132   0.00000  Uiso   1.00
O70    O     0.57505   0.25001   0.21868   0.00000  Uiso   1.00
O71    O     0.42495   0.25000   0.19988   0.00000  Uiso   1.00
O72    O     0.57505   0.25000   0.30011   0.00000  Uiso   1.00
C73    C     0.40123   0.24988   0.23756   0.00000  Uiso   1.00
C74    C     0.59877   0.25001   0.26245   0.00000  Uiso   1.00
Cu75   Cu    0.50000   0.25000   0.29821   0.00000  Uiso   1.00
Cu76   Cu    0.50000   0.25001   0.20178   0.00000  Uiso   1.00
C77    C     0.34597   0.24993   0.23069   0.00000  Uiso   1.00
C78    C     0.65404   0.24995   0.26933   0.00000  Uiso   1.00
H79    H     0.65933   0.25001   0.19361   0.00000  Uiso   1.00
H80    H     0.34067   0.24988   0.30641   0.00000  Uiso   1.00
C81    C     0.51197   0.04597   0.29391   0.00000  Uiso   1.00
C82    C     0.46632   0.45286   0.21516   0.00000  Uiso   1.00
H83    H     0.51767   0.02766   0.32788   0.00000  Uiso   1.00
H84    H     0.43890   0.47141   0.19016   0.00000  Uiso   1.00
C85    C     0.51397   0.09196   0.29536   0.00000  Uiso   1.00
C86    C     0.46363   0.40677   0.21513   0.00000  Uiso   1.00
C87    C     0.50449   0.11633   0.25122   0.00000  Uiso   1.00
C88    C     0.49808   0.38286   0.24933   0.00000  Uiso   1.00
C89    C     0.49619   0.09366   0.20675   0.00000  Uiso   1.00
C90    C     0.53388   0.40510   0.28274   0.00000  Uiso   1.00
C91    C     0.49619   0.04784   0.20583   0.00000  Uiso   1.00
C92    C     0.53636   0.45083   0.28214   0.00000  Uiso   1.00
H93    H     0.49054   0.03135   0.17093   0.00000  Uiso   1.00
H94    H     0.56527   0.46716   0.30764   0.00000  Uiso   1.00
C95    C     0.50352   0.02365   0.24939   0.00000  Uiso   1.00
C96    C     0.50236   0.47510   0.24862   0.00000  Uiso   1.00
C97    C     0.52366   0.28417   0.05684   0.00000  Uiso   1.00
C98    C     0.46065   0.22897   0.44103   0.00000  Uiso   1.00
H99    H     0.54165   0.31186   0.04104   0.00000  Uiso   1.00
H100   H     0.42870   0.21298   0.45493   0.00000  Uiso   1.00
C101   C     0.52352   0.28338   0.10756   0.00000  Uiso   1.00
C102   C     0.46158   0.22909   0.39042   0.00000  Uiso   1.00
N103   N     0.50000   0.25001   0.12934   0.00000  Uiso   1.00
N104   N     0.50000   0.24999   0.37065   0.00000  Uiso   1.00
C105   C     0.47648   0.21664   0.10181   0.00000  Uiso   1.00
C106   C     0.53851   0.27078   0.40019   0.00000  Uiso   1.00
H107   H     0.45773   0.19027   0.11912   0.00000  Uiso   1.00
H108   H     0.56892   0.28732   0.38441   0.00000  Uiso   1.00
C109   C     0.47641   0.21580   0.05108   0.00000  Uiso   1.00
C110   C     0.53948   0.27087   0.45105   0.00000  Uiso   1.00
C111   C     0.50005   0.24996   0.02734   0.00000  Uiso   1.00
C112   C     0.50006   0.24993   0.47266   0.00000  Uiso   1.00
N113   N     0.52753   0.11289   0.34167   0.00000  Uiso   1.00
O114   O     0.56860   0.13752   0.34914   0.00000  Uiso   1.00
O115   O     0.50551   0.10036   0.37876   0.00000  Uiso   1.00
N116   N     0.42464   0.38515   0.18177   0.00000  Uiso   1.00
O117   O     0.39938   0.35159   0.19602   0.00000  Uiso   1.00
O118   O     0.40933   0.40260   0.13927   0.00000  Uiso   1.00
H119   H     0.48935   0.11132   0.17240   0.00000  Uiso   1.00
H120   H     0.56077   0.38694   0.30869   0.00000  Uiso   1.00
H121   H     0.54221   0.30977   0.12947   0.00000  Uiso   1.00
H122   H     0.43120   0.21249   0.36693   0.00000  Uiso   1.00
H123   H     0.45844   0.18808   0.03093   0.00000  Uiso   1.00
H124   H     0.57146   0.28682   0.47310   0.00000  Uiso   1.00
O125   O     0.83334   0.18573   0.29071   0.00000  Uiso   1.00
O126   O     0.83333   0.31428   0.20928   0.00000  Uiso   1.00
O127   O     0.83334   0.18573   0.20928   0.00000  Uiso   1.00
O128   O     0.83333   0.31427   0.29072   0.00000  Uiso   1.00
C129   C     0.83506   0.16484   0.25044   0.00000  Uiso   1.00
C130   C     0.83236   0.33488   0.24974   0.00000  Uiso   1.00
O131   O     0.75828   0.25000   0.28132   0.00000  Uiso   1.00
O132   O     0.90839   0.25001   0.21868   0.00000  Uiso   1.00
O133   O     0.75828   0.25000   0.19988   0.00000  Uiso   1.00
O134   O     0.90839   0.25000   0.30011   0.00000  Uiso   1.00
C135   C     0.73456   0.24988   0.23756   0.00000  Uiso   1.00
C136   C     0.93211   0.25001   0.26245   0.00000  Uiso   1.00
Cu137  Cu    0.83333   0.25000   0.29821   0.00000  Uiso   1.00
Cu138  Cu    0.83333   0.25001   0.20178   0.00000  Uiso   1.00
C139   C     0.67930   0.24993   0.23069   0.00000  Uiso   1.00
C140   C     0.98737   0.24995   0.26933   0.00000  Uiso   1.00
H141   H     0.99266   0.25001   0.19361   0.00000  Uiso   1.00
H142   H     0.67400   0.24988   0.30641   0.00000  Uiso   1.00
C143   C     0.84530   0.04597   0.29391   0.00000  Uiso   1.00
C144   C     0.79965   0.45286   0.21516   0.00000  Uiso   1.00
H145   H     0.85101   0.02766   0.32788   0.00000  Uiso   1.00
H146   H     0.77223   0.47141   0.19016   0.00000  Uiso   1.00
C147   C     0.84730   0.09196   0.29536   0.00000  Uiso   1.00
C148   C     0.79696   0.40677   0.21513   0.00000  Uiso   1.00
C149   C     0.83782   0.11633   0.25122   0.00000  Uiso   1.00
C150   C     0.83141   0.38286   0.24933   0.00000  Uiso   1.00
C151   C     0.82952   0.09366   0.20675   0.00000  Uiso   1.00
C152   C     0.86721   0.40510   0.28274   0.00000  Uiso   1.00
C153   C     0.82952   0.04784   0.20583   0.00000  Uiso   1.00
C154   C     0.86970   0.45083   0.28214   0.00000  Uiso   1.00
H155   H     0.82388   0.03135   0.17093   0.00000  Uiso   1.00
H156   H     0.89860   0.46716   0.30764   0.00000  Uiso   1.00
C157   C     0.83686   0.02365   0.24939   0.00000  Uiso   1.00
C158   C     0.83570   0.47510   0.24862   0.00000  Uiso   1.00
C159   C     0.85699   0.28417   0.05684   0.00000  Uiso   1.00
C160   C     0.79399   0.22897   0.44103   0.00000  Uiso   1.00
H161   H     0.87498   0.31186   0.04104   0.00000  Uiso   1.00
H162   H     0.76203   0.21298   0.45493   0.00000  Uiso   1.00
C163   C     0.85685   0.28338   0.10756   0.00000  Uiso   1.00
C164   C     0.79491   0.22909   0.39042   0.00000  Uiso   1.00
N165   N     0.83333   0.25001   0.12934   0.00000  Uiso   1.00
N166   N     0.83333   0.24999   0.37065   0.00000  Uiso   1.00
C167   C     0.80981   0.21664   0.10181   0.00000  Uiso   1.00
C168   C     0.87184   0.27078   0.40019   0.00000  Uiso   1.00
H169   H     0.79106   0.19027   0.11912   0.00000  Uiso   1.00
H170   H     0.90225   0.28732   0.38441   0.00000  Uiso   1.00
C171   C     0.80975   0.21580   0.05108   0.00000  Uiso   1.00
C172   C     0.87282   0.27087   0.45105   0.00000  Uiso   1.00
C173   C     0.83339   0.24996   0.02734   0.00000  Uiso   1.00
C174   C     0.83340   0.24993   0.47266   0.00000  Uiso   1.00
N175   N     0.86086   0.11289   0.34167   0.00000  Uiso   1.00
O176   O     0.90193   0.13752   0.34914   0.00000  Uiso   1.00
O177   O     0.83884   0.10036   0.37876   0.00000  Uiso   1.00
N178   N     0.75797   0.38515   0.18177   0.00000  Uiso   1.00
O179   O     0.73271   0.35159   0.19602   0.00000  Uiso   1.00
O180   O     0.74266   0.40260   0.13927   0.00000  Uiso   1.00
H181   H     0.82268   0.11132   0.17240   0.00000  Uiso   1.00
H182   H     0.89410   0.38694   0.30869   0.00000  Uiso   1.00
H183   H     0.87555   0.30977   0.12947   0.00000  Uiso   1.00
H184   H     0.76453   0.21249   0.36693   0.00000  Uiso   1.00
H185   H     0.79177   0.18808   0.03093   0.00000  Uiso   1.00
H186   H     0.90480   0.28682   0.47310   0.00000  Uiso   1.00
O187   O     0.16667   0.68573   0.29071   0.00000  Uiso   1.00
O188   O     0.16666   0.81428   0.20928   0.00000  Uiso   1.00
O189   O     0.16667   0.68573   0.20928   0.00000  Uiso   1.00
O190   O     0.16666   0.81427   0.29072   0.00000  Uiso   1.00
C191   C     0.16839   0.66484   0.25044   0.00000  Uiso   1.00
C192   C     0.16569   0.83488   0.24974   0.00000  Uiso   1.00
O193   O     0.09161   0.75000   0.28132   0.00000  Uiso   1.00
O194   O     0.24172   0.75001   0.21868   0.00000  Uiso   1.00
O195   O     0.09161   0.75000   0.19988   0.00000  Uiso   1.00
O196   O     0.24172   0.75000   0.30011   0.00000  Uiso   1.00
C197   C     0.06789   0.74988   0.23756   0.00000  Uiso   1.00
C198   C     0.26544   0.75001   0.26245   0.00000  Uiso   1.00
Cu199  Cu    0.16667   0.75000   0.29821   0.00000  Uiso   1.00
Cu200  Cu    0.16667   0.75001   0.20178   0.00000  Uiso   1.00
C201   C     0.01263   0.74993   0.23069   0.00000  Uiso   1.00
C202   C     0.32070   0.74995   0.26933   0.00000  Uiso   1.00
H203   H     0.32600   0.75001   0.19361   0.00000  Uiso   1.00
H204   H     0.00734   0.74988   0.30641   0.00000  Uiso   1.00
C205   C     0.17863   0.54597   0.29391   0.00000  Uiso   1.00
C206   C     0.13298   0.95286   0.21516   0.00000  Uiso   1.00
H207   H     0.18434   0.52766   0.32788   0.00000  Uiso   1.00
H208   H     0.10556   0.97141   0.19016   0.00000  Uiso   1.00
C209   C     0.18063   0.59196   0.29536   0.00000  Uiso   1.00
C210   C     0.13030   0.90677   0.21513   0.00000  Uiso   1.00
C211   C     0.17115   0.61633   0.25122   0.00000  Uiso   1.00
C212   C     0.16474   0.88286   0.24933   0.00000  Uiso   1.00
C213   C     0.16285   0.59366   0.20675   0.00000  Uiso   1.00
C214   C     0.20054   0.90510   0.28274   0.00000  Uiso   1.00
C215   C     0.16286   0.54784   0.20583   0.00000  Uiso   1.00
C216   C     0.20303   0.95083   0.28214   0.00000  Uiso   1.00
H217   H     0.15721   0.53135   0.17093   0.00000  Uiso   1.00
H218   H     0.23194   0.96716   0.30764   0.00000  Uiso   1.00
C219   C     0.17019   0.52365   0.24939   0.00000  Uiso   1.00
C220   C     0.16903   0.97510   0.24862   0.00000  Uiso   1.00
C221   C     0.19033   0.78417   0.05684   0.00000  Uiso   1.00
C222   C     0.12732   0.72897   0.44103   0.00000  Uiso   1.00
H223   H     0.20832   0.81186   0.04104   0.00000  Uiso   1.00
H224   H     0.09537   0.71298   0.45493   0.00000  Uiso   1.00
C225   C     0.19019   0.78338   0.10756   0.00000  Uiso   1.00
C226   C     0.12825   0.72909   0.39042   0.00000  Uiso   1.00
N227   N     0.16667   0.75001   0.12934   0.00000  Uiso   1.00
N228   N     0.16667   0.74999   0.37065   0.00000  Uiso   1.00
C229   C     0.14315   0.71664   0.10181   0.00000  Uiso   1.00
C230   C     0.20518   0.77078   0.40019   0.00000  Uiso   1.00
H231   H     0.12439   0.69027   0.11912   0.00000  Uiso   1.00
H232   H     0.23558   0.78732   0.38441   0.00000  Uiso   1.00
C233   C     0.14308   0.71580   0.05108   0.00000  Uiso   1.00
C234   C     0.20615   0.77087   0.45105   0.00000  Uiso   1.00
C235   C     0.16672   0.74996   0.02734   0.00000  Uiso   1.00
C236   C     0.16673   0.74993   0.47266   0.00000  Uiso   1.00
N237   N     0.19419   0.61289   0.34167   0.00000  Uiso   1.00
O238   O     0.23527   0.63752   0.34914   0.00000  Uiso   1.00
O239   O     0.17217   0.60036   0.37876   0.00000  Uiso   1.00
N240   N     0.09131   0.88515   0.18177   0.00000  Uiso   1.00
O241   O     0.06605   0.85159   0.19602   0.00000  Uiso   1.00
O242   O     0.07600   0.90260   0.13927   0.00000  Uiso   1.00
H243   H     0.15602   0.61132   0.17240   0.00000  Uiso   1.00
H244   H     0.22744   0.88694   0.30869   0.00000  Uiso   1.00
H245   H     0.20888   0.80977   0.12947   0.00000  Uiso   1.00
H246   H     0.09786   0.71249   0.36693   0.00000  Uiso   1.00
H247   H     0.12511   0.68808   0.03093   0.00000  Uiso   1.00
H248   H     0.23813   0.78682   0.47310   0.00000  Uiso   1.00
O249   O     0.50000   0.68573   0.29071   0.00000  Uiso   1.00
O250   O     0.50000   0.81428   0.20928   0.00000  Uiso   1.00
O251   O     0.50000   0.68573   0.20928   0.00000  Uiso   1.00
O252   O     0.50000   0.81427   0.29072   0.00000  Uiso   1.00
C253   C     0.50173   0.66484   0.25044   0.00000  Uiso   1.00
C254   C     0.49902   0.83488   0.24974   0.00000  Uiso   1.00
O255   O     0.42495   0.75000   0.28132   0.00000  Uiso   1.00
O256   O     0.57505   0.75001   0.21868   0.00000  Uiso   1.00
O257   O     0.42495   0.75000   0.19988   0.00000  Uiso   1.00
O258   O     0.57505   0.75000   0.30011   0.00000  Uiso   1.00
C259   C     0.40123   0.74988   0.23756   0.00000  Uiso   1.00
C260   C     0.59877   0.75001   0.26245   0.00000  Uiso   1.00
Cu261  Cu    0.50000   0.75000   0.29821   0.00000  Uiso   1.00
Cu262  Cu    0.50000   0.75001   0.20178   0.00000  Uiso   1.00
C263   C     0.34597   0.74993   0.23069   0.00000  Uiso   1.00
C264   C     0.65404   0.74995   0.26933   0.00000  Uiso   1.00
H265   H     0.65933   0.75001   0.19361   0.00000  Uiso   1.00
H266   H     0.34067   0.74988   0.30641   0.00000  Uiso   1.00
C267   C     0.51197   0.54597   0.29391   0.00000  Uiso   1.00
C268   C     0.46632   0.95286   0.21516   0.00000  Uiso   1.00
H269   H     0.51767   0.52766   0.32788   0.00000  Uiso   1.00
H270   H     0.43890   0.97141   0.19016   0.00000  Uiso   1.00
C271   C     0.51397   0.59196   0.29536   0.00000  Uiso   1.00
C272   C     0.46363   0.90677   0.21513   0.00000  Uiso   1.00
C273   C     0.50449   0.61633   0.25122   0.00000  Uiso   1.00
C274   C     0.49808   0.88286   0.24933   0.00000  Uiso   1.00
C275   C     0.49619   0.59366   0.20675   0.00000  Uiso   1.00
C276   C     0.53388   0.90510   0.28274   0.00000  Uiso   1.00
C277   C     0.49619   0.54784   0.20583   0.00000  Uiso   1.00
C278   C     0.53636   0.95083   0.28214   0.00000  Uiso   1.00
H279   H     0.49054   0.53135   0.17093   0.00000  Uiso   1.00
H280   H     0.56527   0.96716   0.30764   0.00000  Uiso   1.00
C281   C     0.50352   0.52365   0.24939   0.00000  Uiso   1.00
C282   C     0.50236   0.97510   0.24862   0.00000  Uiso   1.00
C283   C     0.52366   0.78417   0.05684   0.00000  Uiso   1.00
C284   C     0.46065   0.72897   0.44103   0.00000  Uiso   1.00
H285   H     0.54165   0.81186   0.04104   0.00000  Uiso   1.00
H286   H     0.42870   0.71298   0.45493   0.00000  Uiso   1.00
C287   C     0.52352   0.78338   0.10756   0.00000  Uiso   1.00
C288   C     0.46158   0.72909   0.39042   0.00000  Uiso   1.00
N289   N     0.50000   0.75001   0.12934   0.00000  Uiso   1.00
N290   N     0.50000   0.74999   0.37065   0.00000  Uiso   1.00
C291   C     0.47648   0.71664   0.10181   0.00000  Uiso   1.00
C292   C     0.53851   0.77078   0.40019   0.00000  Uiso   1.00
H293   H     0.45773   0.69027   0.11912   0.00000  Uiso   1.00
H294   H     0.56892   0.78732   0.38441   0.00000  Uiso   1.00
C295   C     0.47641   0.71580   0.05108   0.00000  Uiso   1.00
C296   C     0.53948   0.77087   0.45105   0.00000  Uiso   1.00
C297   C     0.50005   0.74996   0.02734   0.00000  Uiso   1.00
C298   C     0.50006   0.74993   0.47266   0.00000  Uiso   1.00
N299   N     0.52753   0.61289   0.34167   0.00000  Uiso   1.00
O300   O     0.56860   0.63752   0.34914   0.00000  Uiso   1.00
O301   O     0.50551   0.60036   0.37876   0.00000  Uiso   1.00
N302   N     0.42464   0.88515   0.18177   0.00000  Uiso   1.00
O303   O     0.39938   0.85159   0.19602   0.00000  Uiso   1.00
O304   O     0.40933   0.90260   0.13927   0.00000  Uiso   1.00
H305   H     0.48935   0.61132   0.17240   0.00000  Uiso   1.00
H306   H     0.56077   0.88694   0.30869   0.00000  Uiso   1.00
H307   H     0.54221   0.80977   0.12947   0.00000  Uiso   1.00
H308   H     0.43120   0.71249   0.36693   0.00000  Uiso   1.00
H309   H     0.45844   0.68808   0.03093   0.00000  Uiso   1.00
H310   H     0.57146   0.78682   0.47310   0.00000  Uiso   1.00
O311   O     0.83334   0.68573   0.29071   0.00000  Uiso   1.00
O312   O     0.83333   0.81428   0.20928   0.00000  Uiso   1.00
O313   O     0.83334   0.68573   0.20928   0.00000  Uiso   1.00
O314   O     0.83333   0.81427   0.29072   0.00000  Uiso   1.00
C315   C     0.83506   0.66484   0.25044   0.00000  Uiso   1.00
C316   C     0.83236   0.83488   0.24974   0.00000  Uiso   1.00
O317   O     0.75828   0.75000   0.28132   0.00000  Uiso   1.00
O318   O     0.90839   0.75001   0.21868   0.00000  Uiso   1.00
O319   O     0.75828   0.75000   0.19988   0.00000  Uiso   1.00
O320   O     0.90839   0.75000   0.30011   0.00000  Uiso   1.00
C321   C     0.73456   0.74988   0.23756   0.00000  Uiso   1.00
C322   C     0.93211   0.75001   0.26245   0.00000  Uiso   1.00
Cu323  Cu    0.83333   0.75000   0.29821   0.00000  Uiso   1.00
Cu324  Cu    0.83333   0.75001   0.20178   0.00000  Uiso   1.00
C325   C     0.67930   0.74993   0.23069   0.00000  Uiso   1.00
C326   C     0.98737   0.74995   0.26933   0.00000  Uiso   1.00
H327   H     0.99266   0.75001   0.19361   0.00000  Uiso   1.00
H328   H     0.67400   0.74988   0.30641   0.00000  Uiso   1.00
C329   C     0.84530   0.54597   0.29391   0.00000  Uiso   1.00
C330   C     0.79965   0.95286   0.21516   0.00000  Uiso   1.00
H331   H     0.85101   0.52766   0.32788   0.00000  Uiso   1.00
H332   H     0.77223   0.97141   0.19016   0.00000  Uiso   1.00
C333   C     0.84730   0.59196   0.29536   0.00000  Uiso   1.00
C334   C     0.79696   0.90677   0.21513   0.00000  Uiso   1.00
C335   C     0.83782   0.61633   0.25122   0.00000  Uiso   1.00
C336   C     0.83141   0.88286   0.24933   0.00000  Uiso   1.00
C337   C     0.82952   0.59366   0.20675   0.00000  Uiso   1.00
C338   C     0.86721   0.90510   0.28274   0.00000  Uiso   1.00
C339   C     0.82952   0.54784   0.20583   0.00000  Uiso   1.00
C340   C     0.86970   0.95083   0.28214   0.00000  Uiso   1.00
H341   H     0.82388   0.53135   0.17093   0.00000  Uiso   1.00
H342   H     0.89860   0.96716   0.30764   0.00000  Uiso   1.00
C343   C     0.83686   0.52365   0.24939   0.00000  Uiso   1.00
C344   C     0.83570   0.97510   0.24862   0.00000  Uiso   1.00
C345   C     0.85699   0.78417   0.05684   0.00000  Uiso   1.00
C346   C     0.79399   0.72897   0.44103   0.00000  Uiso   1.00
H347   H     0.87498   0.81186   0.04104   0.00000  Uiso   1.00
H348   H     0.76203   0.71298   0.45493   0.00000  Uiso   1.00
C349   C     0.85685   0.78338   0.10756   0.00000  Uiso   1.00
C350   C     0.79491   0.72909   0.39042   0.00000  Uiso   1.00
N351   N     0.83333   0.75001   0.12934   0.00000  Uiso   1.00
N352   N     0.83333   0.74999   0.37065   0.00000  Uiso   1.00
C353   C     0.80981   0.71664   0.10181   0.00000  Uiso   1.00
C354   C     0.87184   0.77078   0.40019   0.00000  Uiso   1.00
H355   H     0.79106   0.69027   0.11912   0.00000  Uiso   1.00
H356   H     0.90225   0.78732   0.38441   0.00000  Uiso   1.00
C357   C     0.80975   0.71580   0.05108   0.00000  Uiso   1.00
C358   C     0.87282   0.77087   0.45105   0.00000  Uiso   1.00
C359   C     0.83339   0.74996   0.02734   0.00000  Uiso   1.00
C360   C     0.83340   0.74993   0.47266   0.00000  Uiso   1.00
N361   N     0.86086   0.61289   0.34167   0.00000  Uiso   1.00
O362   O     0.90193   0.63752   0.34914   0.00000  Uiso   1.00
O363   O     0.83884   0.60036   0.37876   0.00000  Uiso   1.00
N364   N     0.75797   0.88515   0.18177   0.00000  Uiso   1.00
O365   O     0.73271   0.85159   0.19602   0.00000  Uiso   1.00
O366   O     0.74266   0.90260   0.13927   0.00000  Uiso   1.00
H367   H     0.82268   0.61132   0.17240   0.00000  Uiso   1.00
H368   H     0.89410   0.88694   0.30869   0.00000  Uiso   1.00
H369   H     0.87555   0.80977   0.12947   0.00000  Uiso   1.00
H370   H     0.76453   0.71249   0.36693   0.00000  Uiso   1.00
H371   H     0.79177   0.68808   0.03093   0.00000  Uiso   1.00
H372   H     0.90480   0.78682   0.47310   0.00000  Uiso   1.00
O373   O     0.16667   0.18573   0.79071   0.00000  Uiso   1.00
O374   O     0.16666   0.31428   0.70928   0.00000  Uiso   1.00
O375   O     0.16667   0.18573   0.70928   0.00000  Uiso   1.00
O376   O     0.16666   0.31427   0.79072   0.00000  Uiso   1.00
C377   C     0.16839   0.16484   0.75044   0.00000  Uiso   1.00
C378   C     0.16569   0.33488   0.74974   0.00000  Uiso   1.00
O379   O     0.09161   0.25000   0.78132   0.00000  Uiso   1.00
O380   O     0.24172   0.25001   0.71868   0.00000  Uiso   1.00
O381   O     0.09161   0.25000   0.69988   0.00000  Uiso   1.00
O382   O     0.24172   0.25000   0.80011   0.00000  Uiso   1.00
C383   C     0.06789   0.24988   0.73756   0.00000  Uiso   1.00
C384   C     0.26544   0.25001   0.76245   0.00000  Uiso   1.00
Cu385  Cu    0.16667   0.25000   0.79821   0.00000  Uiso   1.00
Cu386  Cu    0.16667   0.25001   0.70178   0.00000  Uiso   1.00
C387   C     0.01263   0.24993   0.73069   0.00000  Uiso   1.00
C388   C     0.32070   0.24995   0.76933   0.00000  Uiso   1.00
H389   H     0.32600   0.25001   0.69361   0.00000  Uiso   1.00
H390   H     0.00734   0.24988   0.80641   0.00000  Uiso   1.00
C391   C     0.17863   0.04597   0.79391   0.00000  Uiso   1.00
C392   C     0.13298   0.45286   0.71516   0.00000  Uiso   1.00
H393   H     0.18434   0.02766   0.82788   0.00000  Uiso   1.00
H394   H     0.10556   0.47141   0.69016   0.00000  Uiso   1.00
C395   C     0.18063   0.09196   0.79536   0.00000  Uiso   1.00
C396   C     0.13030   0.40677   0.71513   0.00000  Uiso   1.00
C397   C     0.17115   0.11633   0.75122   0.00000  Uiso   1.00
C398   C     0.16474   0.38286   0.74933   0.00000  Uiso   1.00
C399   C     0.16285   0.09366   0.70675   0.00000  Uiso   1.00
C400   C     0.20054   0.40510   0.78274   0.00000  Uiso   1.00
C401   C     0.16286   0.04784   0.70583   0.00000  Uiso   1.00
C402   C     0.20303   0.45083   0.78214   0.00000  Uiso   1.00
H403   H     0.15721   0.03135   0.67093   0.00000  Uiso   1.00
H404   H     0.23194   0.46716   0.80764   0.00000  Uiso   1.00
C405   C     0.17019   0.02365   0.74939   0.00000  Uiso   1.00
C406   C     0.16903   0.47510   0.74862   0.00000  Uiso   1.00
C407   C     0.19033   0.28417   0.55684   0.00000  Uiso   1.00
C408   C     0.12732   0.22897   0.94103   0.00000  Uiso   1.00
H409   H     0.20832   0.31186   0.54104   0.00000  Uiso   1.00
H410   H     0.09537   0.21298   0.95493   0.00000  Uiso   1.00
C411   C     0.19019   0.28338   0.60756   0.00000  Uiso   1.00
C412   C     0.12825   0.22909   0.89042   0.00000  Uiso   1.00
N413   N     0.16667   0.25001   0.62934   0.00000  Uiso   1.00
N414   N     0.16667   0.24999   0.87065   0.00000  Uiso   1.00
C415   C     0.14315   0.21664   0.60181   0.00000  Uiso   1.00
C416   C     0.20518   0.27078   0.90019   0.00000  Uiso   1.00
H417   H     0.12439   0.19027   0.61912   0.00000  Uiso   1.00
H418   H     0.23558   0.28732   0.88441   0.00000  Uiso   1.00
C419   C     0.14308   0.21580   0.55108   0.00000  Uiso   1.00
C420   C     0.20615   0.27087   0.95105   0.00000  Uiso   1.00
C421   C     0.16672   0.24996   0.52734   0.00000  Uiso   1.00
C422   C     0.16673   0.24993   0.97266   0.00000  Uiso   1.00
N423   N     0.19419   0.11289   0.84167   0.00000  Uiso   1.00
O424   O     0.23527   0.13752   0.84914   0.00000  Uiso   1.00
O425   O     0.17217   0.10036   0.87876   0.00000  Uiso   1.00
N426   N     0.09131   0.38515   0.68177   0.00000  Uiso   1.00
O427   O     0.06605   0.35159   0.69602   0.00000  Uiso   1.00
O428   O     0.07600   0.40260   0.63927   0.00000  Uiso   1.00
H429   H     0.15602   0.11132   0.67240   0.00000  Uiso   1.00
H430   H     0.22744   0.38694   0.80869   0.00000  Uiso   1.00
H431   H     0.20888   0.30977   0.62947   0.00000  Uiso   1.00
H432   H     0.09786   0.21249   0.86693   0.00000  Uiso   1.00
H433   H     0.12511   0.18808   0.53093   0.00000  Uiso   1.00
H434   H     0.23813   0.28682   0.97310   0.00000  Uiso   1.00
O435   O     0.50000   0.18573   0.79071   0.00000  Uiso   1.00
O436   O     0.50000   0.31428   0.70928   0.00000  Uiso   1.00
O437   O     0.50000   0.18573   0.70928   0.00000  Uiso   1.00
O438   O     0.50000   0.31427   0.79072   0.00000  Uiso   1.00
C439   C     0.50173   0.16484   0.75044   0.00000  Uiso   1.00
C440   C     0.49902   0.33488   0.74974   0.00000  Uiso   1.00
O441   O     0.42495   0.25000   0.78132   0.00000  Uiso   1.00
O442   O     0.57505   0.25001   0.71868   0.00000  Uiso   1.00
O443   O     0.42495   0.25000   0.69988   0.00000  Uiso   1.00
O444   O     0.57505   0.25000   0.80011   0.00000  Uiso   1.00
C445   C     0.40123   0.24988   0.73756   0.00000  Uiso   1.00
C446   C     0.59877   0.25001   0.76245   0.00000  Uiso   1.00
Cu447  Cu    0.50000   0.25000   0.79821   0.00000  Uiso   1.00
Cu448  Cu    0.50000   0.25001   0.70178   0.00000  Uiso   1.00
C449   C     0.34597   0.24993   0.73069   0.00000  Uiso   1.00
C450   C     0.65404   0.24995   0.76933   0.00000  Uiso   1.00
H451   H     0.65933   0.25001   0.69361   0.00000  Uiso   1.00
H452   H     0.34067   0.24988   0.80641   0.00000  Uiso   1.00
C453   C     0.51197   0.04597   0.79391   0.00000  Uiso   1.00
C454   C     0.46632   0.45286   0.71516   0.00000  Uiso   1.00
H455   H     0.51767   0.02766   0.82788   0.00000  Uiso   1.00
H456   H     0.43890   0.47141   0.69016   0.00000  Uiso   1.00
C457   C     0.51397   0.09196   0.79536   0.00000  Uiso   1.00
C458   C     0.46363   0.40677   0.71513   0.00000  Uiso   1.00
C459   C     0.50449   0.11633   0.75122   0.00000  Uiso   1.00
C460   C     0.49808   0.38286   0.74933   0.00000  Uiso   1.00
C461   C     0.49619   0.09366   0.70675   0.00000  Uiso   1.00
C462   C     0.53388   0.40510   0.78274   0.00000  Uiso   1.00
C463   C     0.49619   0.04784   0.70583   0.00000  Uiso   1.00
C464   C     0.53636   0.45083   0.78214   0.00000  Uiso   1.00
H465   H     0.49054   0.03135   0.67093   0.00000  Uiso   1.00
H466   H     0.56527   0.46716   0.80764   0.00000  Uiso   1.00
C467   C     0.50352   0.02365   0.74939   0.00000  Uiso   1.00
C468   C     0.50236   0.47510   0.74862   0.00000  Uiso   1.00
C469   C     0.52366   0.28417   0.55684   0.00000  Uiso   1.00
C470   C     0.46065   0.22897   0.94103   0.00000  Uiso   1.00
H471   H     0.54165   0.31186   0.54104   0.00000  Uiso   1.00
H472   H     0.42870   0.21298   0.95493   0.00000  Uiso   1.00
C473   C     0.52352   0.28338   0.60756   0.00000  Uiso   1.00
C474   C     0.46158   0.22909   0.89042   0.00000  Uiso   1.00
N475   N     0.50000   0.25001   0.62934   0.00000  Uiso   1.00
N476   N     0.50000   0.24999   0.87065   0.00000  Uiso   1.00
C477   C     0.47648   0.21664   0.60181   0.00000  Uiso   1.00
C478   C     0.53851   0.27078   0.90019   0.00000  Uiso   1.00
H479   H     0.45773   0.19027   0.61912   0.00000  Uiso   1.00
H480   H     0.56892   0.28732   0.88441   0.00000  Uiso   1.00
C481   C     0.47641   0.21580   0.55108   0.00000  Uiso   1.00
C482   C     0.53948   0.27087   0.95105   0.00000  Uiso   1.00
C483   C     0.50005   0.24996   0.52734   0.00000  Uiso   1.00
C484   C     0.50006   0.24993   0.97266   0.00000  Uiso   1.00
N485   N     0.52753   0.11289   0.84167   0.00000  Uiso   1.00
O486   O     0.56860   0.13752   0.84914   0.00000  Uiso   1.00
O487   O     0.50551   0.10036   0.87876   0.00000  Uiso   1.00
N488   N     0.42464   0.38515   0.68177   0.00000  Uiso   1.00
O489   O     0.39938   0.35159   0.69602   0.00000  Uiso   1.00
O490   O     0.40933   0.40260   0.63927   0.00000  Uiso   1.00
H491   H     0.48935   0.11132   0.67240   0.00000  Uiso   1.00
H492   H     0.56077   0.38694   0.80869   0.00000  Uiso   1.00
H493   H     0.54221   0.30977   0.62947   0.00000  Uiso   1.00
H494   H     0.43120   0.21249   0.86693   0.00000  Uiso   1.00
H495   H     0.45844   0.18808   0.53093   0.00000  Uiso   1.00
H496   H     0.57146   0.28682   0.97310   0.00000  Uiso   1.00
O497   O     0.83334   0.18573   0.79071   0.00000  Uiso   1.00
O498   O     0.83333   0.31428   0.70928   0.00000  Uiso   1.00
O499   O     0.83334   0.18573   0.70928   0.00000  Uiso   1.00
O500   O     0.83333   0.31427   0.79072   0.00000  Uiso   1.00
C501   C     0.83506   0.16484   0.75044   0.00000  Uiso   1.00
C502   C     0.83236   0.33488   0.74974   0.00000  Uiso   1.00
O503   O     0.75828   0.25000   0.78132   0.00000  Uiso   1.00
O504   O     0.90839   0.25001   0.71868   0.00000  Uiso   1.00
O505   O     0.75828   0.25000   0.69988   0.00000  Uiso   1.00
O506   O     0.90839   0.25000   0.80011   0.00000  Uiso   1.00
C507   C     0.73456   0.24988   0.73756   0.00000  Uiso   1.00
C508   C     0.93211   0.25001   0.76245   0.00000  Uiso   1.00
Cu509  Cu    0.83333   0.25000   0.79821   0.00000  Uiso   1.00
Cu510  Cu    0.83333   0.25001   0.70178   0.00000  Uiso   1.00
C511   C     0.67930   0.24993   0.73069   0.00000  Uiso   1.00
C512   C     0.98737   0.24995   0.76933   0.00000  Uiso   1.00
H513   H     0.99266   0.25001   0.69361   0.00000  Uiso   1.00
H514   H     0.67400   0.24988   0.80641   0.00000  Uiso   1.00
C515   C     0.84530   0.04597   0.79391   0.00000  Uiso   1.00
C516   C     0.79965   0.45286   0.71516   0.00000  Uiso   1.00
H517   H     0.85101   0.02766   0.82788   0.00000  Uiso   1.00
H518   H     0.77223   0.47141   0.69016   0.00000  Uiso   1.00
C519   C     0.84730   0.09196   0.79536   0.00000  Uiso   1.00
C520   C     0.79696   0.40677   0.71513   0.00000  Uiso   1.00
C521   C     0.83782   0.11633   0.75122   0.00000  Uiso   1.00
C522   C     0.83141   0.38286   0.74933   0.00000  Uiso   1.00
C523   C     0.82952   0.09366   0.70675   0.00000  Uiso   1.00
C524   C     0.86721   0.40510   0.78274   0.00000  Uiso   1.00
C525   C     0.82952   0.04784   0.70583   0.00000  Uiso   1.00
C526   C     0.86970   0.45083   0.78214   0.00000  Uiso   1.00
H527   H     0.82388   0.03135   0.67093   0.00000  Uiso   1.00
H528   H     0.89860   0.46716   0.80764   0.00000  Uiso   1.00
C529   C     0.83686   0.02365   0.74939   0.00000  Uiso   1.00
C530   C     0.83570   0.47510   0.74862   0.00000  Uiso   1.00
C531   C     0.85699   0.28417   0.55684   0.00000  Uiso   1.00
C532   C     0.79399   0.22897   0.94103   0.00000  Uiso   1.00
H533   H     0.87498   0.31186   0.54104   0.00000  Uiso   1.00
H534   H     0.76203   0.21298   0.95493   0.00000  Uiso   1.00
C535   C     0.85685   0.28338   0.60756   0.00000  Uiso   1.00
C536   C     0.79491   0.22909   0.89042   0.00000  Uiso   1.00
N537   N     0.83333   0.25001   0.62934   0.00000  Uiso   1.00
N538   N     0.83333   0.24999   0.87065   0.00000  Uiso   1.00
C539   C     0.80981   0.21664   0.60181   0.00000  Uiso   1.00
C540   C     0.87184   0.27078   0.90019   0.00000  Uiso   1.00
H541   H     0.79106   0.19027   0.61912   0.00000  Uiso   1.00
H542   H     0.90225   0.28732   0.88441   0.00000  Uiso   1.00
C543   C     0.80975   0.21580   0.55108   0.00000  Uiso   1.00
C544   C     0.87282   0.27087   0.95105   0.00000  Uiso   1.00
C545   C     0.83339   0.24996   0.52734   0.00000  Uiso   1.00
C546   C     0.83340   0.24993   0.97266   0.00000  Uiso   1.00
N547   N     0.86086   0.11289   0.84167   0.00000  Uiso   1.00
O548   O     0.90193   0.13752   0.84914   0.00000  Uiso   1.00
O549   O     0.83884   0.10036   0.87876   0.00000  Uiso   1.00
N550   N     0.75797   0.38515   0.68177   0.00000  Uiso   1.00
O551   O     0.73271   0.35159   0.69602   0.00000  Uiso   1.00
O552   O     0.74266   0.40260   0.63927   0.00000  Uiso   1.00
H553   H     0.82268   0.11132   0.67240   0.00000  Uiso   1.00
H554   H     0.89410   0.38694   0.80869   0.00000  Uiso   1.00
H555   H     0.87555   0.30977   0.62947   0.00000  Uiso   1.00
H556   H     0.76453   0.21249   0.86693   0.00000  Uiso   1.00
H557   H     0.79177   0.18808   0.53093   0.00000  Uiso   1.00
H558   H     0.90480   0.28682   0.97310   0.00000  Uiso   1.00
O559   O     0.16667   0.68573   0.79071   0.00000  Uiso   1.00
O560   O     0.16666   0.81428   0.70928   0.00000  Uiso   1.00
O561   O     0.16667   0.68573   0.70928   0.00000  Uiso   1.00
O562   O     0.16666   0.81427   0.79072   0.00000  Uiso   1.00
C563   C     0.16839   0.66484   0.75044   0.00000  Uiso   1.00
C564   C     0.16569   0.83488   0.74974   0.00000  Uiso   1.00
O565   O     0.09161   0.75000   0.78132   0.00000  Uiso   1.00
O566   O     0.24172   0.75001   0.71868   0.00000  Uiso   1.00
O567   O     0.09161   0.75000   0.69988   0.00000  Uiso   1.00
O568   O     0.24172   0.75000   0.80011   0.00000  Uiso   1.00
C569   C     0.06789   0.74988   0.73756   0.00000  Uiso   1.00
C570   C     0.26544   0.75001   0.76245   0.00000  Uiso   1.00
Cu571  Cu    0.16667   0.75000   0.79821   0.00000  Uiso   1.00
Cu572  Cu    0.16667   0.75001   0.70178   0.00000  Uiso   1.00
C573   C     0.01263   0.74993   0.73069   0.00000  Uiso   1.00
C574   C     0.32070   0.74995   0.76933   0.00000  Uiso   1.00
H575   H     0.32600   0.75001   0.69361   0.00000  Uiso   1.00
H576   H     0.00734   0.74988   0.80641   0.00000  Uiso   1.00
C577   C     0.17863   0.54597   0.79391   0.00000  Uiso   1.00
C578   C     0.13298   0.95286   0.71516   0.00000  Uiso   1.00
H579   H     0.18434   0.52766   0.82788   0.00000  Uiso   1.00
H580   H     0.10556   0.97141   0.69016   0.00000  Uiso   1.00
C581   C     0.18063   0.59196   0.79536   0.00000  Uiso   1.00
C582   C     0.13030   0.90677   0.71513   0.00000  Uiso   1.00
C583   C     0.17115   0.61633   0.75122   0.00000  Uiso   1.00
C584   C     0.16474   0.88286   0.74933   0.00000  Uiso   1.00
C585   C     0.16285   0.59366   0.70675   0.00000  Uiso   1.00
C586   C     0.20054   0.90510   0.78274   0.00000  Uiso   1.00
C587   C     0.16286   0.54784   0.70583   0.00000  Uiso   1.00
C588   C     0.20303   0.95083   0.78214   0.00000  Uiso   1.00
H589   H     0.15721   0.53135   0.67093   0.00000  Uiso   1.00
H590   H     0.23194   0.96716   0.80764   0.00000  Uiso   1.00
C591   C     0.17019   0.52365   0.74939   0.00000  Uiso   1.00
C592   C     0.16903   0.97510   0.74862   0.00000  Uiso   1.00
C593   C     0.19033   0.78417   0.55684   0.00000  Uiso   1.00
C594   C     0.12732   0.72897   0.94103   0.00000  Uiso   1.00
H595   H     0.20832   0.81186   0.54104   0.00000  Uiso   1.00
H596   H     0.09537   0.71298   0.95493   0.00000  Uiso   1.00
C597   C     0.19019   0.78338   0.60756   0.00000  Uiso   1.00
C598   C     0.12825   0.72909   0.89042   0.00000  Uiso   1.00
N599   N     0.16667   0.75001   0.62934   0.00000  Uiso   1.00
N600   N     0.16667   0.74999   0.87065   0.00000  Uiso   1.00
C601   C     0.14315   0.71664   0.60181   0.00000  Uiso   1.00
C602   C     0.20518   0.77078   0.90019   0.00000  Uiso   1.00
H603   H     0.12439   0.69027   0.61912   0.00000  Uiso   1.00
H604   H     0.23558   0.78732   0.88441   0.00000  Uiso   1.00
C605   C     0.14308   0.71580   0.55108   0.00000  Uiso   1.00
C606   C     0.20615   0.77087   0.95105   0.00000  Uiso   1.00
C607   C     0.16672   0.74996   0.52734   0.00000  Uiso   1.00
C608   C     0.16673   0.74993   0.97266   0.00000  Uiso   1.00
N609   N     0.19419   0.61289   0.84167   0.00000  Uiso   1.00
O610   O     0.23527   0.63752   0.84914   0.00000  Uiso   1.00
O611   O     0.17217   0.60036   0.87876   0.00000  Uiso   1.00
N612   N     0.09131   0.88515   0.68177   0.00000  Uiso   1.00
O613   O     0.06605   0.85159   0.69602   0.00000  Uiso   1.00
O614   O     0.07600   0.90260   0.63927   0.00000  Uiso   1.00
H615   H     0.15602   0.61132   0.67240   0.00000  Uiso   1.00
H616   H     0.22744   0.88694   0.80869   0.00000  Uiso   1.00
H617   H     0.20888   0.80977   0.62947   0.00000  Uiso   1.00
H618   H     0.09786   0.71249   0.86693   0.00000  Uiso   1.00
H619   H     0.12511   0.68808   0.53093   0.00000  Uiso   1.00
H620   H     0.23813   0.78682   0.97310   0.00000  Uiso   1.00
O621   O     0.50000   0.68573   0.79071   0.00000  Uiso   1.00
O622   O     0.50000   0.81428   0.70928   0.00000  Uiso   1.00
O623   O     0.50000   0.68573   0.70928   0.00000  Uiso   1.00
O624   O     0.50000   0.81427   0.79072   0.00000  Uiso   1.00
C625   C     0.50173   0.66484   0.75044   0.00000  Uiso   1.00
C626   C     0.49902   0.83488   0.74974   0.00000  Uiso   1.00
O627   O     0.42495   0.75000   0.78132   0.00000  Uiso   1.00
O628   O     0.57505   0.75001   0.71868   0.00000  Uiso   1.00
O629   O     0.42495   0.75000   0.69988   0.00000  Uiso   1.00
O630   O     0.57505   0.75000   0.80011   0.00000  Uiso   1.00
C631   C     0.40123   0.74988   0.73756   0.00000  Uiso   1.00
C632   C     0.59877   0.75001   0.76245   0.00000  Uiso   1.00
Cu633  Cu    0.50000   0.75000   0.79821   0.00000  Uiso   1.00
Cu634  Cu    0.50000   0.75001   0.70178   0.00000  Uiso   1.00
C635   C     0.34597   0.74993   0.73069   0.00000  Uiso   1.00
C636   C     0.65404   0.74995   0.76933   0.00000  Uiso   1.00
H637   H     0.65933   0.75001   0.69361   0.00000  Uiso   1.00
H638   H     0.34067   0.74988   0.80641   0.00000  Uiso   1.00
C639   C     0.51197   0.54597   0.79391   0.00000  Uiso   1.00
C640   C     0.46632   0.95286   0.71516   0.00000  Uiso   1.00
H641   H     0.51767   0.52766   0.82788   0.00000  Uiso   1.00
H642   H     0.43890   0.97141   0.69016   0.00000  Uiso   1.00
C643   C     0.51397   0.59196   0.79536   0.00000  Uiso   1.00
C644   C     0.46363   0.90677   0.71513   0.00000  Uiso   1.00
C645   C     0.50449   0.61633   0.75122   0.00000  Uiso   1.00
C646   C     0.49808   0.88286   0.74933   0.00000  Uiso   1.00
C647   C     0.49619   0.59366   0.70675   0.00000  Uiso   1.00
C648   C     0.53388   0.90510   0.78274   0.00000  Uiso   1.00
C649   C     0.49619   0.54784   0.70583   0.00000  Uiso   1.00
C650   C     0.53636   0.95083   0.78214   0.00000  Uiso   1.00
H651   H     0.49054   0.53135   0.67093   0.00000  Uiso   1.00
H652   H     0.56527   0.96716   0.80764   0.00000  Uiso   1.00
C653   C     0.50352   0.52365   0.74939   0.00000  Uiso   1.00
C654   C     0.50236   0.97510   0.74862   0.00000  Uiso   1.00
C655   C     0.52366   0.78417   0.55684   0.00000  Uiso   1.00
C656   C     0.46065   0.72897   0.94103   0.00000  Uiso   1.00
H657   H     0.54165   0.81186   0.54104   0.00000  Uiso   1.00
H658   H     0.42870   0.71298   0.95493   0.00000  Uiso   1.00
C659   C     0.52352   0.78338   0.60756   0.00000  Uiso   1.00
C660   C     0.46158   0.72909   0.89042   0.00000  Uiso   1.00
N661   N     0.50000   0.75001   0.62934   0.00000  Uiso   1.00
N662   N     0.50000   0.74999   0.87065   0.00000  Uiso   1.00
C663   C     0.47648   0.71664   0.60181   0.00000  Uiso   1.00
C664   C     0.53851   0.77078   0.90019   0.00000  Uiso   1.00
H665   H     0.45773   0.69027   0.61912   0.00000  Uiso   1.00
H666   H     0.56892   0.78732   0.88441   0.00000  Uiso   1.00
C667   C     0.47641   0.71580   0.55108   0.00000  Uiso   1.00
C668   C     0.53948   0.77087   0.95105   0.00000  Uiso   1.00
C669   C     0.50005   0.74996   0.52734   0.00000  Uiso   1.00
C670   C     0.50006   0.74993   0.97266   0.00000  Uiso   1.00
N671   N     0.52753   0.61289   0.84167   0.00000  Uiso   1.00
O672   O     0.56860   0.63752   0.84914   0.00000  Uiso   1.00
O673   O     0.50551   0.60036   0.87876   0.00000  Uiso   1.00
N674   N     0.42464   0.88515   0.68177   0.00000  Uiso   1.00
O675   O     0.39938   0.85159   0.69602   0.00000  Uiso   1.00
O676   O     0.40933   0.90260   0.63927   0.00000  Uiso   1.00
H677   H     0.48935   0.61132   0.67240   0.00000  Uiso   1.00
H678   H     0.56077   0.88694   0.80869   0.00000  Uiso   1.00
H679   H     0.54221   0.80977   0.62947   0.00000  Uiso   1.00
H680   H     0.43120   0.71249   0.86693   0.00000  Uiso   1.00
H681   H     0.45844   0.68808   0.53093   0.00000  Uiso   1.00
H682   H     0.57146   0.78682   0.97310   0.00000  Uiso   1.00
O683   O     0.83334   0.68573   0.79071   0.00000  Uiso   1.00
O684   O     0.83333   0.81428   0.70928   0.00000  Uiso   1.00
O685   O     0.83334   0.68573   0.70928   0.00000  Uiso   1.00
O686   O     0.83333   0.81427   0.79072   0.00000  Uiso   1.00
C687   C     0.83506   0.66484   0.75044   0.00000  Uiso   1.00
C688   C     0.83236   0.83488   0.74974   0.00000  Uiso   1.00
O689   O     0.75828   0.75000   0.78132   0.00000  Uiso   1.00
O690   O     0.90839   0.75001   0.71868   0.00000  Uiso   1.00
O691   O     0.75828   0.75000   0.69988   0.00000  Uiso   1.00
O692   O     0.90839   0.75000   0.80011   0.00000  Uiso   1.00
C693   C     0.73456   0.74988   0.73756   0.00000  Uiso   1.00
C694   C     0.93211   0.75001   0.76245   0.00000  Uiso   1.00
Cu695  Cu    0.83333   0.75000   0.79821   0.00000  Uiso   1.00
Cu696  Cu    0.83333   0.75001   0.70178   0.00000  Uiso   1.00
C697   C     0.67930   0.74993   0.73069   0.00000  Uiso   1.00
C698   C     0.98737   0.74995   0.76933   0.00000  Uiso   1.00
H699   H     0.99266   0.75001   0.69361   0.00000  Uiso   1.00
H700   H     0.67400   0.74988   0.80641   0.00000  Uiso   1.00
C701   C     0.84530   0.54597   0.79391   0.00000  Uiso   1.00
C702   C     0.79965   0.95286   0.71516   0.00000  Uiso   1.00
H703   H     0.85101   0.52766   0.82788   0.00000  Uiso   1.00
H704   H     0.77223   0.97141   0.69016   0.00000  Uiso   1.00
C705   C     0.84730   0.59196   0.79536   0.00000  Uiso   1.00
C706   C     0.79696   0.90677   0.71513   0.00000  Uiso   1.00
C707   C     0.83782   0.61633   0.75122   0.00000  Uiso   1.00
C708   C     0.83141   0.88286   0.74933   0.00000  Uiso   1.00
C709   C     0.82952   0.59366   0.70675   0.00000  Uiso   1.00
C710   C     0.86721   0.90510   0.78274   0.00000  Uiso   1.00
C711   C     0.82952   0.54784   0.70583   0.00000  Uiso   1.00
C712   C     0.86970   0.95083   0.78214   0.00000  Uiso   1.00
H713   H     0.82388   0.53135   0.67093   0.00000  Uiso   1.00
H714   H     0.89860   0.96716   0.80764   0.00000  Uiso   1.00
C715   C     0.83686   0.52365   0.74939   0.00000  Uiso   1.00
C716   C     0.83570   0.97510   0.74862   0.00000  Uiso   1.00
C717   C     0.85699   0.78417   0.55684   0.00000  Uiso   1.00
C718   C     0.79399   0.72897   0.94103   0.00000  Uiso   1.00
H719   H     0.87498   0.81186   0.54104   0.00000  Uiso   1.00
H720   H     0.76203   0.71298   0.95493   0.00000  Uiso   1.00
C721   C     0.85685   0.78338   0.60756   0.00000  Uiso   1.00
C722   C     0.79491   0.72909   0.89042   0.00000  Uiso   1.00
N723   N     0.83333   0.75001   0.62934   0.00000  Uiso   1.00
N724   N     0.83333   0.74999   0.87065   0.00000  Uiso   1.00
C725   C     0.80981   0.71664   0.60181   0.00000  Uiso   1.00
C726   C     0.87184   0.77078   0.90019   0.00000  Uiso   1.00
H727   H     0.79106   0.69027   0.61912   0.00000  Uiso   1.00
H728   H     0.90225   0.78732   0.88441   0.00000  Uiso   1.00
C729   C     0.80975   0.71580   0.55108   0.00000  Uiso   1.00
C730   C     0.87282   0.77087   0.95105   0.00000  Uiso   1.00
C731   C     0.83339   0.74996   0.52734   0.00000  Uiso   1.00
C732   C     0.83340   0.74993   0.97266   0.00000  Uiso   1.00
N733   N     0.86086   0.61289   0.84167   0.00000  Uiso   1.00
O734   O     0.90193   0.63752   0.84914   0.00000  Uiso   1.00
O735   O     0.83884   0.60036   0.87876   0.00000  Uiso   1.00
N736   N     0.75797   0.88515   0.68177   0.00000  Uiso   1.00
O737   O     0.73271   0.85159   0.69602   0.00000  Uiso   1.00
O738   O     0.74266   0.90260   0.63927   0.00000  Uiso   1.00
H739   H     0.82268   0.61132   0.67240   0.00000  Uiso   1.00
H740   H     0.89410   0.88694   0.80869   0.00000  Uiso   1.00
H741   H     0.87555   0.80977   0.62947   0.00000  Uiso   1.00
H742   H     0.76453   0.71249   0.86693   0.00000  Uiso   1.00
H743   H     0.79177   0.68808   0.53093   0.00000  Uiso   1.00
H744   H     0.90480   0.78682   0.97310   0.00000  Uiso   1.00
loop_
_geom_bond_atom_site_label_1
_geom_bond_atom_site_label_2
_geom_bond_distance
_geom_bond_site_symmetry_2
_ccdc_geom_bond_type
O1     C5      1.292   .     A
O1     Cu13    1.959   .     S
O2     C6      1.290   .     A
O2     Cu14    1.959   .     S
O3     Cu14    1.957   .     S
O3     C5      1.298   .     A
O4     C6      1.291   .     A
O4     Cu13    1.957   .     S
C5     C25     1.472   .     S
C6     C26     1.454   .     S
O7     C11     1.285   .     A
O7     Cu13    1.958   .     S
O8     C12     1.285   .     A
O8     Cu14    1.958   .     S
O9     Cu14    1.960   .     S
O9     C11     1.287   .     A
O10    C12     1.287   .     A
O10    Cu13    1.960   .     S
C11    C15     1.434   .     S
C12    C16     1.434   .     S
Cu13   Cu14    2.674   .     S
Cu13   N42     2.008   .     S
Cu14   N41     2.008   .     S
C15    C140    1.335   1_455 S
C15    H141    1.087   1_455 S
C16    C77     1.335   .     S
C16    H80     1.087   .     S
H17    C77     1.087   .     S
H18    C140    1.087   1_455 S
C19    H21     1.083   .     S
C19    C33     1.401   .     A
C19    C23     1.395   .     A
C20    C34     1.403   .     A
C20    H22     1.083   .     S
C20    C24     1.398   .     A
C23    C25     1.419   .     A
C23    N51     1.435   .     S
C24    N54     1.439   .     S
C24    C26     1.414   .     A
C25    C27     1.405   .     A
C26    C28     1.399   .     A
C27    C29     1.389   .     A
C27    H57     1.083   .     S
C28    H58     1.084   .     S
C28    C30     1.387   .     A
C29    H31     1.083   .     S
C29    C33     1.400   .     A
C30    C34     1.402   .     A
C30    H32     1.083   .     S
C33    C220    1.471   1_545 S
C34    C219    1.471   .     S
C35    C49     1.411   .     A
C35    C39     1.407   .     A
C35    H37     1.081   .     S
C36    C40     1.407   .     A
C36    H38     1.081   .     S
C36    C50     1.411   .     A
C39    H59     1.081   .     S
C39    N41     1.364   .     A
C40    H60     1.081   .     S
C40    N42     1.364   .     A
N41    C43     1.364   .     A
N42    C44     1.364   .     A
C43    C47     1.407   .     A
C43    H45     1.081   .     S
C44    C48     1.407   .     A
C44    H46     1.081   .     S
C47    H61     1.081   .     S
C47    C49     1.411   .     A
C48    C50     1.411   .     A
C48    H62     1.081   .     S
C49    C422    1.516   1_554 S
C50    C421    1.516   .     S
N51    O53     1.301   .     A
N51    O52     1.301   .     A
N54    O56     1.301   .     A
N54    O55     1.301   .     A
O63    C67     1.292   .     A
O63    Cu75    1.959   .     S
O64    C68     1.290   .     A
O64    Cu76    1.959   .     S
O65    Cu76    1.957   .     S
O65    C67     1.298   .     A
O66    C68     1.291   .     A
O66    Cu75    1.957   .     S
C67    C87     1.472   .     S
C68    C88     1.454   .     S
O69    C73     1.285   .     A
O69    Cu75    1.958   .     S
O70    C74     1.285   .     A
O70    Cu76    1.958   .     S
O71    Cu76    1.960   .     S
O71    C73     1.287   .     A
O72    C74     1.287   .     A
O72    Cu75    1.960   .     S
C73    C77     1.434   .     S
C74    C78     1.434   .     S
Cu75   Cu76    2.674   .     S
Cu75   N104    2.008   .     S
Cu76   N103    2.008   .     S
C78    C139    1.335   .     S
C78    H142    1.087   .     S
H79    C139    1.087   .     S
C81    H83     1.083   .     S
C81    C95     1.401   .     A
C81    C85     1.395   .     A
C82    C96     1.403   .     A
C82    H84     1.083   .     S
C82    C86     1.398   .     A
C85    C87     1.419   .     A
C85    N113    1.435   .     S
C86    N116    1.439   .     S
C86    C88     1.414   .     A
C87    C89     1.405   .     A
C88    C90     1.399   .     A
C89    C91     1.389   .     A
C89    H119    1.083   .     S
C90    H120    1.084   .     S
C90    C92     1.387   .     A
C91    H93     1.083   .     S
C91    C95     1.400   .     A
C92    C96     1.402   .     A
C92    H94     1.083   .     S
C95    C282    1.471   1_545 S
C96    C281    1.471   .     S
C97    C111    1.411   .     A
C97    C101    1.407   .     A
C97    H99     1.081   .     S
C98    C102    1.407   .     A
C98    H100    1.081   .     S
C98    C112    1.411   .     A
C101   H121    1.081   .     S
C101   N103    1.364   .     A
C102   H122    1.081   .     S
C102   N104    1.364   .     A
N103   C105    1.364   .     A
N104   C106    1.364   .     A
C105   C109    1.407   .     A
C105   H107    1.081   .     S
C106   C110    1.407   .     A
C106   H108    1.081   .     S
C109   H123    1.081   .     S
C109   C111    1.411   .     A
C110   C112    1.411   .     A
C110   H124    1.081   .     S
C111   C484    1.516   1_554 S
C112   C483    1.516   .     S
N113   O115    1.301   .     A
N113   O114    1.301   .     A
N116   O118    1.301   .     A
N116   O117    1.301   .     A
O125   C129    1.292   .     A
O125   Cu137   1.959   .     S
O126   C130    1.290   .     A
O126   Cu138   1.959   .     S
O127   Cu138   1.957   .     S
O127   C129    1.298   .     A
O128   C130    1.291   .     A
O128   Cu137   1.957   .     S
C129   C149    1.472   .     S
C130   C150    1.454   .     S
O131   C135    1.285   .     A
O131   Cu137   1.958   .     S
O132   C136    1.285   .     A
O132   Cu138   1.958   .     S
O133   Cu138   1.960   .     S
O133   C135    1.287   .     A
O134   C136    1.287   .     A
O134   Cu137   1.960   .     S
C135   C139    1.434   .     S
C136   C140    1.434   .     S
Cu137  Cu138   2.674   .     S
Cu137  N166    2.008   .     S
Cu138  N165    2.008   .     S
C140   C15     1.335   1_655 S
C140   H18     1.087   1_655 S
H141   C15     1.087   1_655 S
C143   H145    1.083   .     S
C143   C157    1.401   .     A
C143   C147    1.395   .     A
C144   C158    1.403   .     A
C144   H146    1.083   .     S
C144   C148    1.398   .     A
C147   C149    1.419   .     A
C147   N175    1.435   .     S
C148   N178    1.439   .     S
C148   C150    1.414   .     A
C149   C151    1.405   .     A
C150   C152    1.399   .     A
C151   C153    1.389   .     A
C151   H181    1.083   .     S
C152   H182    1.084   .     S
C152   C154    1.387   .     A
C153   H155    1.083   .     S
C153   C157    1.400   .     A
C154   C158    1.402   .     A
C154   H156    1.083   .     S
C157   C344    1.471   1_545 S
C158   C343    1.471   .     S
C159   C173    1.411   .     A
C159   C163    1.407   .     A
C159   H161    1.081   .     S
C160   C164    1.407   .     A
C160   H162    1.081   .     S
C160   C174    1.411   .     A
C163   H183    1.081   .     S
C163   N165    1.364   .     A
C164   H184    1.081   .     S
C164   N166    1.364   .     A
N165   C167    1.364   .     A
N166   C168    1.364   .     A
C167   C171    1.407   .     A
C167   H169    1.081   .     S
C168   C172    1.407   .     A
C168   H170    1.081   .     S
C171   H185    1.081   .     S
C171   C173    1.411   .     A
C172   C174    1.411   .     A
C172   H186    1.081   .     S
C173   C546    1.516   1_554 S
C174   C545    1.516   .     S
N175   O177    1.301   .     A
N175   O176    1.301   .     A
N178   O180    1.301   .     A
N178   O179    1.301   .     A
O187   C191    1.292   .     A
O187   Cu199   1.959   .     S
O188   C192    1.290   .     A
O188   Cu200   1.959   .     S
O189   Cu200   1.957   .     S
O189   C191    1.298   .     A
O190   C192    1.291   .     A
O190   Cu199   1.957   .     S
C191   C211    1.472   .     S
C192   C212    1.454   .     S
O193   C197    1.285   .     A
O193   Cu199   1.958   .     S
O194   C198    1.285   .     A
O194   Cu200   1.958   .     S
O195   Cu200   1.960   .     S
O195   C197    1.287   .     A
O196   C198    1.287   .     A
O196   Cu199   1.960   .     S
C197   C201    1.434   .     S
C198   C202    1.434   .     S
Cu199  Cu200   2.674   .     S
Cu199  N228    2.008   .     S
Cu200  N227    2.008   .     S
C201   C326    1.335   1_455 S
C201   H327    1.087   1_455 S
C202   C263    1.335   .     S
C202   H266    1.087   .     S
H203   C263    1.087   .     S
H204   C326    1.087   1_455 S
C205   H207    1.083   .     S
C205   C219    1.401   .     A
C205   C209    1.395   .     A
C206   C220    1.403   .     A
C206   H208    1.083   .     S
C206   C210    1.398   .     A
C209   C211    1.419   .     A
C209   N237    1.435   .     S
C210   N240    1.439   .     S
C210   C212    1.414   .     A
C211   C213    1.405   .     A
C212   C214    1.399   .     A
C213   C215    1.389   .     A
C213   H243    1.083   .     S
C214   H244    1.084   .     S
C214   C216    1.387   .     A
C215   H217    1.083   .     S
C215   C219    1.400   .     A
C216   C220    1.402   .     A
C216   H218    1.083   .     S
C220   C33     1.471   1_565 S
C221   C235    1.411   .     A
C221   C225    1.407   .     A
C221   H223    1.081   .     S
C222   C226    1.407   .     A
C222   H224    1.081   .     S
C222   C236    1.411   .     A
C225   H245    1.081   .     S
C225   N227    1.364   .     A
C226   H246    1.081   .     S
C226   N228    1.364   .     A
N227   C229    1.364   .     A
N228   C230    1.364   .     A
C229   C233    1.407   .     A
C229   H231    1.081   .     S
C230   C234    1.407   .     A
C230   H232    1.081   .     S
C233   H247    1.081   .     S
C233   C235    1.411   .     A
C234   C236    1.411   .     A
C234   H248    1.081   .     S
C235   C608    1.516   1_554 S
C236   C607    1.516   .     S
N237   O239    1.301   .     A
N237   O238    1.301   .     A
N240   O242    1.301   .     A
N240   O241    1.301   .     A
O249   C253    1.292   .     A
O249   Cu261   1.959   .     S
O250   C254    1.290   .     A
O250   Cu262   1.959   .     S
O251   Cu262   1.957   .     S
O251   C253    1.298   .     A
O252   C254    1.291   .     A
O252   Cu261   1.957   .     S
C253   C273    1.472   .     S
C254   C274    1.454   .     S
O255   C259    1.285   .     A
O255   Cu261   1.958   .     S
O256   C260    1.285   .     A
O256   Cu262   1.958   .     S
O257   Cu262   1.960   .     S
O257   C259    1.287   .     A
O258   C260    1.287   .     A
O258   Cu261   1.960   .     S
C259   C263    1.434   .     S
C260   C264    1.434   .     S
Cu261  Cu262   2.674   .     S
Cu261  N290    2.008   .     S
Cu262  N289    2.008   .     S
C264   C325    1.335   .     S
C264   H328    1.087   .     S
H265   C325    1.087   .     S
C267   H269    1.083   .     S
C267   C281    1.401   .     A
C267   C271    1.395   .     A
C268   C282    1.403   .     A
C268   H270    1.083   .     S
C268   C272    1.398   .     A
C271   C273    1.419   .     A
C271   N299    1.435   .     S
C272   N302    1.439   .     S
C272   C274    1.414   .     A
C273   C275    1.405   .     A
C274   C276    1.399   .     A
C275   C277    1.389   .     A
C275   H305    1.083   .     S
C276   H306    1.084   .     S
C276   C278    1.387   .     A
C277   H279    1.083   .     S
C277   C281    1.400   .     A
C278   C282    1.402   .     A
C278   H280    1.083   .     S
C282   C95     1.471   1_565 S
C283   C297    1.411   .     A
C283   C287    1.407   .     A
C283   H285    1.081   .     S
C284   C288    1.407   .     A
C284   H286    1.081   .     S
C284   C298    1.411   .     A
C287   H307    1.081   .     S
C287   N289    1.364   .     A
C288   H308    1.081   .     S
C288   N290    1.364   .     A
N289   C291    1.364   .     A
N290   C292    1.364   .     A
C291   C295    1.407   .     A
C291   H293    1.081   .     S
C292   C296    1.407   .     A
C292   H294    1.081   .     S
C295   H309    1.081   .     S
C295   C297    1.411   .     A
C296   C298    1.411   .     A
C296   H310    1.081   .     S
C297   C670    1.516   1_554 S
C298   C669    1.516   .     S
N299   O301    1.301   .     A
N299   O300    1.301   .     A
N302   O304    1.301   .     A
N302   O303    1.301   .     A
O311   C315    1.292   .     A
O311   Cu323   1.959   .     S
O312   C316    1.290   .     A
O312   Cu324   1.959   .     S
O313   Cu324   1.957   .     S
O313   C315    1.298   .     A
O314   C316    1.291   .     A
O314   Cu323   1.957   .     S
C315   C335    1.472   .     S
C316   C336    1.454   .     S
O317   C321    1.285   .     A
O317   Cu323   1.958   .     S
O318   C322    1.285   .     A
O318   Cu324   1.958   .     S
O319   Cu324   1.960   .     S
O319   C321    1.287   .     A
O320   C322    1.287   .     A
O320   Cu323   1.960   .     S
C321   C325    1.434   .     S
C322   C326    1.434   .     S
Cu323  Cu324   2.674   .     S
Cu323  N352    2.008   .     S
Cu324  N351    2.008   .     S
C326   C201    1.335   1_655 S
C326   H204    1.087   1_655 S
H327   C201    1.087   1_655 S
C329   H331    1.083   .     S
C329   C343    1.401   .     A
C329   C333    1.395   .     A
C330   C344    1.403   .     A
C330   H332    1.083   .     S
C330   C334    1.398   .     A
C333   C335    1.419   .     A
C333   N361    1.435   .     S
C334   N364    1.439   .     S
C334   C336    1.414   .     A
C335   C337    1.405   .     A
C336   C338    1.399   .     A
C337   C339    1.389   .     A
C337   H367    1.083   .     S
C338   H368    1.084   .     S
C338   C340    1.387   .     A
C339   H341    1.083   .     S
C339   C343    1.400   .     A
C340   C344    1.402   .     A
C340   H342    1.083   .     S
C344   C157    1.471   1_565 S
C345   C359    1.411   .     A
C345   C349    1.407   .     A
C345   H347    1.081   .     S
C346   C350    1.407   .     A
C346   H348    1.081   .     S
C346   C360    1.411   .     A
C349   H369    1.081   .     S
C349   N351    1.364   .     A
C350   H370    1.081   .     S
C350   N352    1.364   .     A
N351   C353    1.364   .     A
N352   C354    1.364   .     A
C353   C357    1.407   .     A
C353   H355    1.081   .     S
C354   C358    1.407   .     A
C354   H356    1.081   .     S
C357   H371    1.081   .     S
C357   C359    1.411   .     A
C358   C360    1.411   .     A
C358   H372    1.081   .     S
C359   C732    1.516   1_554 S
C360   C731    1.516   .     S
N361   O363    1.301   .     A
N361   O362    1.301   .     A
N364   O366    1.301   .     A
N364   O365    1.301   .     A
O373   C377    1.292   .     A
O373   Cu385   1.959   .     S
O374   C378    1.290   .     A
O374   Cu386   1.959   .     S
O375   Cu386   1.957   .     S
O375   C377    1.298   .     A
O376   C378    1.291   .     A
O376   Cu385   1.957   .     S
C377   C397    1.472   .     S
C378   C398    1.454   .     S
O379   C383    1.285   .     A
O379   Cu385   1.958   .     S
O380   C384    1.285   .     A
O380   Cu386   1.958   .     S
O381   Cu386   1.960   .     S
O381   C383    1.287   .     A
O382   C384    1.287   .     A
O382   Cu385   1.960   .     S
C383   C387    1.434   .     S
C384   C388    1.434   .     S
Cu385  Cu386   2.674   .     S
Cu385  N414    2.008   .     S
Cu386  N413    2.008   .     S
C387   C512    1.335   1_455 S
C387   H513    1.087   1_455 S
C388   C449    1.335   .     S
C388   H452    1.087   .     S
H389   C449    1.087   .     S
H390   C512    1.087   1_455 S
C391   H393    1.083   .     S
C391   C405    1.401   .     A
C391   C395    1.395   .     A
C392   C406    1.403   .     A
C392   H394    1.083   .     S
C392   C396    1.398   .     A
C395   C397    1.419   .     A
C395   N423    1.435   .     S
C396   N426    1.439   .     S
C396   C398    1.414   .     A
C397   C399    1.405   .     A
C398   C400    1.399   .     A
C399   C401    1.389   .     A
C399   H429    1.083   .     S
C400   H430    1.084   .     S
C400   C402    1.387   .     A
C401   H403    1.083   .     S
C401   C405    1.400   .     A
C402   C406    1.402   .     A
C402   H404    1.083   .     S
C405   C592    1.471   1_545 S
C406   C591    1.471   .     S
C407   C421    1.411   .     A
C407   C411    1.407   .     A
C407   H409    1.081   .     S
C408   C412    1.407   .     A
C408   H410    1.081   .     S
C408   C422    1.411   .     A
C411   H431    1.081   .     S
C411   N413    1.364   .     A
C412   H432    1.081   .     S
C412   N414    1.364   .     A
N413   C415    1.364   .     A
N414   C416    1.364   .     A
C415   C419    1.407   .     A
C415   H417    1.081   .     S
C416   C420    1.407   .     A
C416   H418    1.081   .     S
C419   H433    1.081   .     S
C419   C421    1.411   .     A
C420   C422    1.411   .     A
C420   H434    1.081   .     S
C422   C49     1.516   1_556 S
N423   O425    1.301   .     A
N423   O424    1.301   .     A
N426   O428    1.301   .     A
N426   O427    1.301   .     A
O435   C439    1.292   .     A
O435   Cu447   1.959   .     S
O436   C440    1.290   .     A
O436   Cu448   1.959   .     S
O437   Cu448   1.957   .     S
O437   C439    1.298   .     A
O438   C440    1.291   .     A
O438   Cu447   1.957   .     S
C439   C459    1.472   .     S
C440   C460    1.454   .     S
O441   C445    1.285   .     A
O441   Cu447   1.958   .     S
O442   C446    1.285   .     A
O442   Cu448   1.958   .     S
O443   Cu448   1.960   .     S
O443   C445    1.287   .     A
O444   C446    1.287   .     A
O444   Cu447   1.960   .     S
C445   C449    1.434   .     S
C446   C450    1.434   .     S
Cu447  Cu448   2.674   .     S
Cu447  N476    2.008   .     S
Cu448  N475    2.008   .     S
C450   C511    1.335   .     S
C450   H514    1.087   .     S
H451   C511    1.087   .     S
C453   H455    1.083   .     S
C453   C467    1.401   .     A
C453   C457    1.395   .     A
C454   C468    1.403   .     A
C454   H456    1.083   .     S
C454   C458    1.398   .     A
C457   C459    1.419   .     A
C457   N485    1.435   .     S
C458   N488    1.439   .     S
C458   C460    1.414   .     A
C459   C461    1.405   .     A
C460   C462    1.399   .     A
C461   C463    1.389   .     A
C461   H491    1.083   .     S
C462   H492    1.084   .     S
C462   C464    1.387   .     A
C463   H465    1.083   .     S
C463   C467    1.400   .     A
C464   C468    1.402   .     A
C464   H466    1.083   .     S
C467   C654    1.471   1_545 S
C468   C653    1.471   .     S
C469   C483    1.411   .     A
C469   C473    1.407   .     A
C469   H471    1.081   .     S
C470   C474    1.407   .     A
C470   H472    1.081   .     S
C470   C484    1.411   .     A
C473   H493    1.081   .     S
C473   N475    1.364   .     A
C474   H494    1.081   .     S
C474   N476    1.364   .     A
N475   C477    1.364   .     A
N476   C478    1.364   .     A
C477   C481    1.407   .     A
C477   H479    1.081   .     S
C478   C482    1.407   .     A
C478   H480    1.081   .     S
C481   H495    1.081   .     S
C481   C483    1.411   .     A
C482   C484    1.411   .     A
C482   H496    1.081   .     S
C484   C111    1.516   1_556 S
N485   O487    1.301   .     A
N485   O486    1.301   .     A
N488   O490    1.301   .     A
N488   O489    1.301   .     A
O497   C501    1.292   .     A
O497   Cu509   1.959   .     S
O498   C502    1.290   .     A
O498   Cu510   1.959   .     S
O499   Cu510   1.957   .     S
O499   C501    1.298   .     A
O500   C502    1.291   .     A
O500   Cu509   1.957   .     S
C501   C521    1.472   .     S
C502   C522    1.454   .     S
O503   C507    1.285   .     A
O503   Cu509   1.958   .     S
O504   C508    1.285   .     A
O504   Cu510   1.958   .     S
O505   Cu510   1.960   .     S
O505   C507    1.287   .     A
O506   C508    1.287   .     A
O506   Cu509   1.960   .     S
C507   C511    1.434   .     S
C508   C512    1.434   .     S
Cu509  Cu510   2.674   .     S
Cu509  N538    2.008   .     S
Cu510  N537    2.008   .     S
C512   C387    1.335   1_655 S
C512   H390    1.087   1_655 S
H513   C387    1.087   1_655 S
C515   H517    1.083   .     S
C515   C529    1.401   .     A
C515   C519    1.395   .     A
C516   C530    1.403   .     A
C516   H518    1.083   .     S
C516   C520    1.398   .     A
C519   C521    1.419   .     A
C519   N547    1.435   .     S
C520   N550    1.439   .     S
C520   C522    1.414   .     A
C521   C523    1.405   .     A
C522   C524    1.399   .     A
C523   C525    1.389   .     A
C523   H553    1.083   .     S
C524   H554    1.084   .     S
C524   C526    1.387   .     A
C525   H527    1.083   .     S
C525   C529    1.400   .     A
C526   C530    1.402   .     A
C526   H528    1.083   .     S
C529   C716    1.471   1_545 S
C530   C715    1.471   .     S
C531   C545    1.411   .     A
C531   C535    1.407   .     A
C531   H533    1.081   .     S
C532   C536    1.407   .     A
C532   H534    1.081   .     S
C532   C546    1.411   .     A
C535   H555    1.081   .     S
C535   N537    1.364   .     A
C536   H556    1.081   .     S
C536   N538    1.364   .     A
N537   C539    1.364   .     A
N538   C540    1.364   .     A
C539   C543    1.407   .     A
C539   H541    1.081   .     S
C540   C544    1.407   .     A
C540   H542    1.081   .     S
C543   H557    1.081   .     S
C543   C545    1.411   .     A
C544   C546    1.411   .     A
C544   H558    1.081   .     S
C546   C173    1.516   1_556 S
N547   O549    1.301   .     A
N547   O548    1.301   .     A
N550   O552    1.301   .     A
N550   O551    1.301   .     A
O559   C563    1.292   .     A
O559   Cu571   1.959   .     S
O560   C564    1.290   .     A
O560   Cu572   1.959   .     S
O561   Cu572   1.957   .     S
O561   C563    1.298   .     A
O562   C564    1.291   .     A
O562   Cu571   1.957   .     S
C563   C583    1.472   .     S
C564   C584    1.454   .     S
O565   C569    1.285   .     A
O565   Cu571   1.958   .     S
O566   C570    1.285   .     A
O566   Cu572   1.958   .     S
O567   Cu572   1.960   .     S
O567   C569    1.287   .     A
O568   C570    1.287   .     A
O568   Cu571   1.960   .     S
C569   C573    1.434   .     S
C570   C574    1.434   .     S
Cu571  Cu572   2.674   .     S
Cu571  N600    2.008   .     S
Cu572  N599    2.008   .     S
C573   C698    1.335   1_455 S
C573   H699    1.087   1_455 S
C574   C635    1.335   .     S
C574   H638    1.087   .     S
H575   C635    1.087   .     S
H576   C698    1.087   1_455 S
C577   H579    1.083   .     S
C577   C591    1.401   .     A
C577   C581    1.395   .     A
C578   C592    1.403   .     A
C578   H580    1.083   .     S
C578   C582    1.398   .     A
C581   C583    1.419   .     A
C581   N609    1.435   .     S
C582   N612    1.439   .     S
C582   C584    1.414   .     A
C583   C585    1.405   .     A
C584   C586    1.399   .     A
C585   C587    1.389   .     A
C585   H615    1.083   .     S
C586   H616    1.084   .     S
C586   C588    1.387   .     A
C587   H589    1.083   .     S
C587   C591    1.400   .     A
C588   C592    1.402   .     A
C588   H590    1.083   .     S
C592   C405    1.471   1_565 S
C593   C607    1.411   .     A
C593   C597    1.407   .     A
C593   H595    1.081   .     S
C594   C598    1.407   .     A
C594   H596    1.081   .     S
C594   C608    1.411   .     A
C597   H617    1.081   .     S
C597   N599    1.364   .     A
C598   H618    1.081   .     S
C598   N600    1.364   .     A
N599   C601    1.364   .     A
N600   C602    1.364   .     A
C601   C605    1.407   .     A
C601   H603    1.081   .     S
C602   C606    1.407   .     A
C602   H604    1.081   .     S
C605   H619    1.081   .     S
C605   C607    1.411   .     A
C606   C608    1.411   .     A
C606   H620    1.081   .     S
C608   C235    1.516   1_556 S
N609   O611    1.301   .     A
N609   O610    1.301   .     A
N612   O614    1.301   .     A
N612   O613    1.301   .     A
O621   C625    1.292   .     A
O621   Cu633   1.959   .     S
O622   C626    1.290   .     A
O622   Cu634   1.959   .     S
O623   Cu634   1.957   .     S
O623   C625    1.298   .     A
O624   C626    1.291   .     A
O624   Cu633   1.957   .     S
C625   C645    1.472   .     S
C626   C646    1.454   .     S
O627   C631    1.285   .     A
O627   Cu633   1.958   .     S
O628   C632    1.285   .     A
O628   Cu634   1.958   .     S
O629   Cu634   1.960   .     S
O629   C631    1.287   .     A
O630   C632    1.287   .     A
O630   Cu633   1.960   .     S
C631   C635    1.434   .     S
C632   C636    1.434   .     S
Cu633  Cu634   2.674   .     S
Cu633  N662    2.008   .     S
Cu634  N661    2.008   .     S
C636   C697    1.335   .     S
C636   H700    1.087   .     S
H637   C697    1.087   .     S
C639   H641    1.083   .     S
C639   C653    1.401   .     A
C639   C643    1.395   .     A
C640   C654    1.403   .     A
C640   H642    1.083   .     S
C640   C644    1.398   .     A
C643   C645    1.419   .     A
C643   N671    1.435   .     S
C644   N674    1.439   .     S
C644   C646    1.414   .     A
C645   C647    1.405   .     A
C646   C648    1.399   .     A
C647   C649    1.389   .     A
C647   H677    1.083   .     S
C648   H678    1.084   .     S
C648   C650    1.387   .     A
C649   H651    1.083   .     S
C649   C653    1.400   .     A
C650   C654    1.402   .     A
C650   H652    1.083   .     S
C654   C467    1.471   1_565 S
C655   C669    1.411   .     A
C655   C659    1.407   .     A
C655   H657    1.081   .     S
C656   C660    1.407   .     A
C656   H658    1.081   .     S
C656   C670    1.411   .     A
C659   H679    1.081   .     S
C659   N661    1.364   .     A
C660   H680    1.081   .     S
C660   N662    1.364   .     A
N661   C663    1.364   .     A
N662   C664    1.364   .     A
C663   C667    1.407   .     A
C663   H665    1.081   .     S
C664   C668    1.407   .     A
C664   H666    1.081   .     S
C667   H681    1.081   .     S
C667   C669    1.411   .     A
C668   C670    1.411   .     A
C668   H682    1.081   .     S
C670   C297    1.516   1_556 S
N671   O673    1.301   .     A
N671   O672    1.301   .     A
N674   O676    1.301   .     A
N674   O675    1.301   .     A
O683   C687    1.292   .     A
O683   Cu695   1.959   .     S
O684   C688    1.290   .     A
O684   Cu696   1.959   .     S
O685   Cu696   1.957   .     S
O685   C687    1.298   .     A
O686   C688    1.291   .     A
O686   Cu695   1.957   .     S
C687   C707    1.472   .     S
C688   C708    1.454   .     S
O689   C693    1.285   .     A
O689   Cu695   1.958   .     S
O690   C694    1.285   .     A
O690   Cu696   1.958   .     S
O691   Cu696   1.960   .     S
O691   C693    1.287   .     A
O692   C694    1.287   .     A
O692   Cu695   1.960   .     S
C693   C697    1.434   .     S
C694   C698    1.434   .     S
Cu695  Cu696   2.674   .     S
Cu695  N724    2.008   .     S
Cu696  N723    2.008   .     S
C698   C573    1.335   1_655 S
C698   H576    1.087   1_655 S
H699   C573    1.087   1_655 S
C701   H703    1.083   .     S
C701   C715    1.401   .     A
C701   C705    1.395   .     A
C702   C716    1.403   .     A
C702   H704    1.083   .     S
C702   C706    1.398   .     A
C705   C707    1.419   .     A
C705   N733    1.435   .     S
C706   N736    1.439   .     S
C706   C708    1.414   .     A
C707   C709    1.405   .     A
C708   C710    1.399   .     A
C709   C711    1.389   .     A
C709   H739    1.083   .     S
C710   H740    1.084   .     S
C710   C712    1.387   .     A
C711   H713    1.083   .     S
C711   C715    1.400   .     A
C712   C716    1.402   .     A
C712   H714    1.083   .     S
C716   C529    1.471   1_565 S
C717   C731    1.411   .     A
C717   C721    1.407   .     A
C717   H719    1.081   .     S
C718   C722    1.407   .     A
C718   H720    1.081   .     S
C718   C732    1.411   .     A
C721   H741    1.081   .     S
C721   N723    1.364   .     A
C722   H742    1.081   .     S
C722   N724    1.364   .     A
N723   C725    1.364   .     A
N724   C726    1.364   .     A
C725   C729    1.407   .     A
C725   H727    1.081   .     S
C726   C730    1.407   .     A
C726   H728    1.081   .     S
C729   H743    1.081   .     S
C729   C731    1.411   .     A
C730   C732    1.411   .     A
C730   H744    1.081   .     S
C732   C359    1.516   1_556 S
N733   O735    1.301   .     A
N733   O734    1.301   .     A
N736   O738    1.301   .     A
N736   O737    1.301   .     A
