data_str_m2_o1_o5_pcu_sym.83
_audit_creation_date              2020-01-03
_audit_creation_method            'Materials Studio'
_symmetry_space_group_name_H-M    'P1'
_symmetry_Int_Tables_number       1
_symmetry_cell_setting            triclinic
loop_
_symmetry_equiv_pos_as_xyz
  x,y,z
_cell_length_a                    32.4332
_cell_length_b                    28.9094
_cell_length_c                    27.1472
_cell_angle_alpha                 90.0000
_cell_angle_beta                  92.9690
_cell_angle_gamma                 90.0000
loop_
_atom_site_label
_atom_site_type_symbol
_atom_site_fract_x
_atom_site_fract_y
_atom_site_fract_z
_atom_site_U_iso_or_equiv
_atom_site_adp_type
_atom_site_occupancy
C1     C     0.08773   0.16667   0.17192   0.00000  Uiso   1.00
C2     C     0.02070   0.20895   0.17533   0.00000  Uiso   1.00
C3     C     0.29066   0.16667   0.15585   0.00000  Uiso   1.00
C4     C     0.04267   0.16667   0.17748   0.00000  Uiso   1.00
C5     C     0.14663   0.02468   0.12914   0.00000  Uiso   1.00
C6     C     0.18670   0.30865   0.20419   0.00000  Uiso   1.00
C7     C     0.18670   0.02468   0.20419   0.00000  Uiso   1.00
C8     C     0.14663   0.30865   0.12914   0.00000  Uiso   1.00
C9     C     0.03876   0.08005   0.19722   0.00000  Uiso   1.00
C10    C     0.29457   0.25328   0.13612   0.00000  Uiso   1.00
C11    C     0.29457   0.08005   0.13612   0.00000  Uiso   1.00
C12    C     0.24560   0.16667   0.16141   0.00000  Uiso   1.00
C13    C     0.03876   0.25328   0.19722   0.00000  Uiso   1.00
C14    C     0.12510   0.04871   0.08714   0.00000  Uiso   1.00
C15    C     0.20824   0.28463   0.24619   0.00000  Uiso   1.00
C16    C     0.20824   0.04871   0.24619   0.00000  Uiso   1.00
C17    C     0.12510   0.28463   0.08714   0.00000  Uiso   1.00
C18    C     0.16650   0.16667   0.07366   0.00000  Uiso   1.00
C19    C     0.16683   0.16667   0.25968   0.00000  Uiso   1.00
C20    C     0.16661   0.16667   0.02189   0.00000  Uiso   1.00
C21    C     0.16672   0.16667   0.31145   0.00000  Uiso   1.00
C22    C     0.02070   0.12439   0.17533   0.00000  Uiso   1.00
C23    C     0.31264   0.20895   0.15800   0.00000  Uiso   1.00
C24    C     0.31264   0.12439   0.15800   0.00000  Uiso   1.00
Cu25   Cu    0.16667   0.21355   0.16667   0.00000  Uiso   1.00
Cu26   Cu    0.16667   0.11978   0.16667   0.00000  Uiso   1.00
H27    H     0.06531   0.08685   0.22366   0.00000  Uiso   1.00
H28    H     0.06531   0.24648   0.22367   0.00000  Uiso   1.00
H29    H     0.04799   0.27725   0.16797   0.00000  Uiso   1.00
H30    H     0.01545   0.27099   0.21911   0.00000  Uiso   1.00
H31    H     0.07488   0.08362   0.06082   0.00000  Uiso   1.00
H32    H     0.25845   0.24972   0.27251   0.00000  Uiso   1.00
H33    H     0.25845   0.08362   0.27251   0.00000  Uiso   1.00
H34    H     0.07488   0.24972   0.06082   0.00000  Uiso   1.00
H35    H     0.01545   0.06234   0.21911   0.00000  Uiso   1.00
H36    H     0.04799   0.05609   0.16796   0.00000  Uiso   1.00
H37    H     0.26803   0.24648   0.10967   0.00000  Uiso   1.00
H38    H     0.28534   0.27725   0.16537   0.00000  Uiso   1.00
H39    H     0.31789   0.27099   0.11422   0.00000  Uiso   1.00
H40    H     0.26803   0.08685   0.10967   0.00000  Uiso   1.00
H41    H     0.31789   0.06234   0.11422   0.00000  Uiso   1.00
H42    H     0.28534   0.05609   0.16537   0.00000  Uiso   1.00
N43    N     0.16667   0.28402   0.16667   0.00000  Uiso   1.00
N44    N     0.16667   0.04931   0.16667   0.00000  Uiso   1.00
O45    O     0.10655   0.20625   0.16666   0.00000  Uiso   1.00
O46    O     0.08644   0.06869   0.09239   0.00000  Uiso   1.00
O47    O     0.19276   0.28422   0.28633   0.00000  Uiso   1.00
O48    O     0.24689   0.26464   0.24094   0.00000  Uiso   1.00
O49    O     0.19276   0.04911   0.28633   0.00000  Uiso   1.00
O50    O     0.24689   0.06869   0.24094   0.00000  Uiso   1.00
O51    O     0.14057   0.28422   0.04700   0.00000  Uiso   1.00
O52    O     0.08644   0.26464   0.09239   0.00000  Uiso   1.00
O53    O     0.22679   0.12709   0.16667   0.00000  Uiso   1.00
O54    O     0.22679   0.20625   0.16667   0.00000  Uiso   1.00
O55    O     0.10655   0.12709   0.16666   0.00000  Uiso   1.00
O56    O     0.16667   0.20625   0.09613   0.00000  Uiso   1.00
O57    O     0.16667   0.12708   0.23720   0.00000  Uiso   1.00
O58    O     0.16667   0.20625   0.23720   0.00000  Uiso   1.00
O59    O     0.16667   0.12708   0.09613   0.00000  Uiso   1.00
O60    O     0.14057   0.04911   0.04700   0.00000  Uiso   1.00
C61    C     0.42107   0.16667   0.17192   0.00000  Uiso   1.00
C62    C     0.35403   0.20895   0.17533   0.00000  Uiso   1.00
C63    C     0.62400   0.16667   0.15585   0.00000  Uiso   1.00
C64    C     0.37600   0.16667   0.17748   0.00000  Uiso   1.00
C65    C     0.47997   0.02468   0.12914   0.00000  Uiso   1.00
C66    C     0.52003   0.30865   0.20419   0.00000  Uiso   1.00
C67    C     0.52003   0.02468   0.20419   0.00000  Uiso   1.00
C68    C     0.47997   0.30865   0.12914   0.00000  Uiso   1.00
C69    C     0.37210   0.08005   0.19722   0.00000  Uiso   1.00
C70    C     0.62790   0.25328   0.13612   0.00000  Uiso   1.00
C71    C     0.62790   0.08005   0.13612   0.00000  Uiso   1.00
C72    C     0.57893   0.16667   0.16141   0.00000  Uiso   1.00
C73    C     0.37210   0.25328   0.19722   0.00000  Uiso   1.00
C74    C     0.45843   0.04871   0.08714   0.00000  Uiso   1.00
C75    C     0.54157   0.28463   0.24619   0.00000  Uiso   1.00
C76    C     0.54157   0.04871   0.24619   0.00000  Uiso   1.00
C77    C     0.45843   0.28463   0.08714   0.00000  Uiso   1.00
C78    C     0.49983   0.16667   0.07366   0.00000  Uiso   1.00
C79    C     0.50017   0.16667   0.25968   0.00000  Uiso   1.00
C80    C     0.49994   0.16667   0.02189   0.00000  Uiso   1.00
C81    C     0.50006   0.16667   0.31145   0.00000  Uiso   1.00
C82    C     0.35403   0.12439   0.17533   0.00000  Uiso   1.00
C83    C     0.64597   0.20895   0.15800   0.00000  Uiso   1.00
C84    C     0.64597   0.12439   0.15800   0.00000  Uiso   1.00
Cu85   Cu    0.50000   0.21355   0.16667   0.00000  Uiso   1.00
Cu86   Cu    0.50000   0.11978   0.16667   0.00000  Uiso   1.00
H87    H     0.39864   0.08685   0.22366   0.00000  Uiso   1.00
H88    H     0.39864   0.24648   0.22367   0.00000  Uiso   1.00
H89    H     0.38132   0.27725   0.16797   0.00000  Uiso   1.00
H90    H     0.34878   0.27099   0.21911   0.00000  Uiso   1.00
H91    H     0.40822   0.08362   0.06082   0.00000  Uiso   1.00
H92    H     0.59178   0.24972   0.27251   0.00000  Uiso   1.00
H93    H     0.59178   0.08362   0.27251   0.00000  Uiso   1.00
H94    H     0.40822   0.24972   0.06082   0.00000  Uiso   1.00
H95    H     0.34878   0.06234   0.21911   0.00000  Uiso   1.00
H96    H     0.38132   0.05609   0.16796   0.00000  Uiso   1.00
H97    H     0.60136   0.24648   0.10967   0.00000  Uiso   1.00
H98    H     0.61868   0.27725   0.16537   0.00000  Uiso   1.00
H99    H     0.65122   0.27099   0.11422   0.00000  Uiso   1.00
H100   H     0.60136   0.08685   0.10967   0.00000  Uiso   1.00
H101   H     0.65122   0.06234   0.11422   0.00000  Uiso   1.00
H102   H     0.61868   0.05609   0.16537   0.00000  Uiso   1.00
N103   N     0.50000   0.28402   0.16667   0.00000  Uiso   1.00
N104   N     0.50000   0.04931   0.16667   0.00000  Uiso   1.00
O105   O     0.43988   0.20625   0.16666   0.00000  Uiso   1.00
O106   O     0.41977   0.06869   0.09239   0.00000  Uiso   1.00
O107   O     0.52609   0.28422   0.28633   0.00000  Uiso   1.00
O108   O     0.58023   0.26464   0.24094   0.00000  Uiso   1.00
O109   O     0.52609   0.04911   0.28633   0.00000  Uiso   1.00
O110   O     0.58023   0.06869   0.24094   0.00000  Uiso   1.00
O111   O     0.47391   0.28422   0.04700   0.00000  Uiso   1.00
O112   O     0.41977   0.26464   0.09239   0.00000  Uiso   1.00
O113   O     0.56012   0.12709   0.16667   0.00000  Uiso   1.00
O114   O     0.56012   0.20625   0.16667   0.00000  Uiso   1.00
O115   O     0.43988   0.12709   0.16666   0.00000  Uiso   1.00
O116   O     0.50000   0.20625   0.09613   0.00000  Uiso   1.00
O117   O     0.50000   0.12708   0.23720   0.00000  Uiso   1.00
O118   O     0.50000   0.20625   0.23720   0.00000  Uiso   1.00
O119   O     0.50000   0.12708   0.09613   0.00000  Uiso   1.00
O120   O     0.47391   0.04911   0.04700   0.00000  Uiso   1.00
C121   C     0.75440   0.16667   0.17192   0.00000  Uiso   1.00
C122   C     0.68736   0.20895   0.17533   0.00000  Uiso   1.00
C123   C     0.95733   0.16667   0.15585   0.00000  Uiso   1.00
C124   C     0.70934   0.16667   0.17748   0.00000  Uiso   1.00
C125   C     0.81330   0.02468   0.12914   0.00000  Uiso   1.00
C126   C     0.85337   0.30865   0.20419   0.00000  Uiso   1.00
C127   C     0.85337   0.02468   0.20419   0.00000  Uiso   1.00
C128   C     0.81330   0.30865   0.12914   0.00000  Uiso   1.00
C129   C     0.70543   0.08005   0.19722   0.00000  Uiso   1.00
C130   C     0.96124   0.25328   0.13612   0.00000  Uiso   1.00
C131   C     0.96124   0.08005   0.13612   0.00000  Uiso   1.00
C132   C     0.91227   0.16667   0.16141   0.00000  Uiso   1.00
C133   C     0.70543   0.25328   0.19722   0.00000  Uiso   1.00
C134   C     0.79176   0.04871   0.08714   0.00000  Uiso   1.00
C135   C     0.87490   0.28463   0.24619   0.00000  Uiso   1.00
C136   C     0.87490   0.04871   0.24619   0.00000  Uiso   1.00
C137   C     0.79176   0.28463   0.08714   0.00000  Uiso   1.00
C138   C     0.83317   0.16667   0.07366   0.00000  Uiso   1.00
C139   C     0.83350   0.16667   0.25968   0.00000  Uiso   1.00
C140   C     0.83328   0.16667   0.02189   0.00000  Uiso   1.00
C141   C     0.83339   0.16667   0.31145   0.00000  Uiso   1.00
C142   C     0.68736   0.12439   0.17533   0.00000  Uiso   1.00
C143   C     0.97930   0.20895   0.15800   0.00000  Uiso   1.00
C144   C     0.97930   0.12439   0.15800   0.00000  Uiso   1.00
Cu145  Cu    0.83333   0.21355   0.16667   0.00000  Uiso   1.00
Cu146  Cu    0.83333   0.11978   0.16667   0.00000  Uiso   1.00
H147   H     0.73197   0.08685   0.22366   0.00000  Uiso   1.00
H148   H     0.73197   0.24648   0.22367   0.00000  Uiso   1.00
H149   H     0.71466   0.27725   0.16797   0.00000  Uiso   1.00
H150   H     0.68211   0.27099   0.21911   0.00000  Uiso   1.00
H151   H     0.74155   0.08362   0.06082   0.00000  Uiso   1.00
H152   H     0.92511   0.24972   0.27251   0.00000  Uiso   1.00
H153   H     0.92512   0.08362   0.27251   0.00000  Uiso   1.00
H154   H     0.74155   0.24972   0.06082   0.00000  Uiso   1.00
H155   H     0.68211   0.06234   0.21911   0.00000  Uiso   1.00
H156   H     0.71466   0.05609   0.16796   0.00000  Uiso   1.00
H157   H     0.93469   0.24648   0.10967   0.00000  Uiso   1.00
H158   H     0.95201   0.27725   0.16537   0.00000  Uiso   1.00
H159   H     0.98455   0.27099   0.11422   0.00000  Uiso   1.00
H160   H     0.93469   0.08685   0.10967   0.00000  Uiso   1.00
H161   H     0.98455   0.06234   0.11422   0.00000  Uiso   1.00
H162   H     0.95201   0.05609   0.16537   0.00000  Uiso   1.00
N163   N     0.83333   0.28402   0.16667   0.00000  Uiso   1.00
N164   N     0.83333   0.04931   0.16667   0.00000  Uiso   1.00
O165   O     0.77321   0.20625   0.16666   0.00000  Uiso   1.00
O166   O     0.75311   0.06869   0.09239   0.00000  Uiso   1.00
O167   O     0.85943   0.28422   0.28633   0.00000  Uiso   1.00
O168   O     0.91356   0.26464   0.24094   0.00000  Uiso   1.00
O169   O     0.85943   0.04911   0.28633   0.00000  Uiso   1.00
O170   O     0.91356   0.06869   0.24094   0.00000  Uiso   1.00
O171   O     0.80724   0.28422   0.04700   0.00000  Uiso   1.00
O172   O     0.75311   0.26464   0.09239   0.00000  Uiso   1.00
O173   O     0.89345   0.12709   0.16667   0.00000  Uiso   1.00
O174   O     0.89345   0.20625   0.16667   0.00000  Uiso   1.00
O175   O     0.77321   0.12709   0.16666   0.00000  Uiso   1.00
O176   O     0.83333   0.20625   0.09613   0.00000  Uiso   1.00
O177   O     0.83333   0.12708   0.23720   0.00000  Uiso   1.00
O178   O     0.83333   0.20625   0.23720   0.00000  Uiso   1.00
O179   O     0.83333   0.12708   0.09613   0.00000  Uiso   1.00
O180   O     0.80724   0.04911   0.04700   0.00000  Uiso   1.00
C181   C     0.08773   0.50000   0.17192   0.00000  Uiso   1.00
C182   C     0.02070   0.54228   0.17533   0.00000  Uiso   1.00
C183   C     0.29066   0.50000   0.15585   0.00000  Uiso   1.00
C184   C     0.04267   0.50000   0.17748   0.00000  Uiso   1.00
C185   C     0.14663   0.35801   0.12914   0.00000  Uiso   1.00
C186   C     0.18670   0.64199   0.20419   0.00000  Uiso   1.00
C187   C     0.18670   0.35801   0.20419   0.00000  Uiso   1.00
C188   C     0.14663   0.64199   0.12914   0.00000  Uiso   1.00
C189   C     0.03876   0.41338   0.19722   0.00000  Uiso   1.00
C190   C     0.29457   0.58662   0.13612   0.00000  Uiso   1.00
C191   C     0.29457   0.41338   0.13612   0.00000  Uiso   1.00
C192   C     0.24560   0.50000   0.16141   0.00000  Uiso   1.00
C193   C     0.03876   0.58662   0.19722   0.00000  Uiso   1.00
C194   C     0.12510   0.38204   0.08714   0.00000  Uiso   1.00
C195   C     0.20824   0.61796   0.24619   0.00000  Uiso   1.00
C196   C     0.20824   0.38204   0.24619   0.00000  Uiso   1.00
C197   C     0.12510   0.61796   0.08714   0.00000  Uiso   1.00
C198   C     0.16650   0.50000   0.07366   0.00000  Uiso   1.00
C199   C     0.16683   0.50000   0.25968   0.00000  Uiso   1.00
C200   C     0.16661   0.50000   0.02189   0.00000  Uiso   1.00
C201   C     0.16672   0.50000   0.31145   0.00000  Uiso   1.00
C202   C     0.02070   0.45772   0.17533   0.00000  Uiso   1.00
C203   C     0.31264   0.54228   0.15800   0.00000  Uiso   1.00
C204   C     0.31264   0.45772   0.15800   0.00000  Uiso   1.00
Cu205  Cu    0.16667   0.54689   0.16667   0.00000  Uiso   1.00
Cu206  Cu    0.16667   0.45311   0.16667   0.00000  Uiso   1.00
H207   H     0.06531   0.42019   0.22366   0.00000  Uiso   1.00
H208   H     0.06531   0.57981   0.22367   0.00000  Uiso   1.00
H209   H     0.04799   0.61058   0.16797   0.00000  Uiso   1.00
H210   H     0.01545   0.60433   0.21911   0.00000  Uiso   1.00
H211   H     0.07488   0.41695   0.06082   0.00000  Uiso   1.00
H212   H     0.25845   0.58305   0.27251   0.00000  Uiso   1.00
H213   H     0.25845   0.41695   0.27251   0.00000  Uiso   1.00
H214   H     0.07488   0.58305   0.06082   0.00000  Uiso   1.00
H215   H     0.01545   0.39567   0.21911   0.00000  Uiso   1.00
H216   H     0.04799   0.38942   0.16796   0.00000  Uiso   1.00
H217   H     0.26803   0.57981   0.10967   0.00000  Uiso   1.00
H218   H     0.28534   0.61058   0.16537   0.00000  Uiso   1.00
H219   H     0.31789   0.60433   0.11422   0.00000  Uiso   1.00
H220   H     0.26803   0.42019   0.10967   0.00000  Uiso   1.00
H221   H     0.31789   0.39567   0.11422   0.00000  Uiso   1.00
H222   H     0.28534   0.38942   0.16537   0.00000  Uiso   1.00
N223   N     0.16667   0.61736   0.16667   0.00000  Uiso   1.00
N224   N     0.16667   0.38264   0.16667   0.00000  Uiso   1.00
O225   O     0.10655   0.53958   0.16666   0.00000  Uiso   1.00
O226   O     0.08644   0.40203   0.09239   0.00000  Uiso   1.00
O227   O     0.19276   0.61756   0.28633   0.00000  Uiso   1.00
O228   O     0.24689   0.59797   0.24094   0.00000  Uiso   1.00
O229   O     0.19276   0.38245   0.28633   0.00000  Uiso   1.00
O230   O     0.24689   0.40203   0.24094   0.00000  Uiso   1.00
O231   O     0.14057   0.61756   0.04700   0.00000  Uiso   1.00
O232   O     0.08644   0.59798   0.09239   0.00000  Uiso   1.00
O233   O     0.22679   0.46042   0.16667   0.00000  Uiso   1.00
O234   O     0.22679   0.53958   0.16667   0.00000  Uiso   1.00
O235   O     0.10655   0.46042   0.16666   0.00000  Uiso   1.00
O236   O     0.16667   0.53959   0.09613   0.00000  Uiso   1.00
O237   O     0.16667   0.46041   0.23720   0.00000  Uiso   1.00
O238   O     0.16667   0.53959   0.23720   0.00000  Uiso   1.00
O239   O     0.16667   0.46041   0.09613   0.00000  Uiso   1.00
O240   O     0.14057   0.38244   0.04700   0.00000  Uiso   1.00
C241   C     0.42107   0.50000   0.17192   0.00000  Uiso   1.00
C242   C     0.35403   0.54228   0.17533   0.00000  Uiso   1.00
C243   C     0.62400   0.50000   0.15585   0.00000  Uiso   1.00
C244   C     0.37600   0.50000   0.17748   0.00000  Uiso   1.00
C245   C     0.47997   0.35801   0.12914   0.00000  Uiso   1.00
C246   C     0.52003   0.64199   0.20419   0.00000  Uiso   1.00
C247   C     0.52003   0.35801   0.20419   0.00000  Uiso   1.00
C248   C     0.47997   0.64199   0.12914   0.00000  Uiso   1.00
C249   C     0.37210   0.41338   0.19722   0.00000  Uiso   1.00
C250   C     0.62790   0.58662   0.13612   0.00000  Uiso   1.00
C251   C     0.62790   0.41338   0.13612   0.00000  Uiso   1.00
C252   C     0.57893   0.50000   0.16141   0.00000  Uiso   1.00
C253   C     0.37210   0.58662   0.19722   0.00000  Uiso   1.00
C254   C     0.45843   0.38204   0.08714   0.00000  Uiso   1.00
C255   C     0.54157   0.61796   0.24619   0.00000  Uiso   1.00
C256   C     0.54157   0.38204   0.24619   0.00000  Uiso   1.00
C257   C     0.45843   0.61796   0.08714   0.00000  Uiso   1.00
C258   C     0.49983   0.50000   0.07366   0.00000  Uiso   1.00
C259   C     0.50017   0.50000   0.25968   0.00000  Uiso   1.00
C260   C     0.49994   0.50000   0.02189   0.00000  Uiso   1.00
C261   C     0.50006   0.50000   0.31145   0.00000  Uiso   1.00
C262   C     0.35403   0.45772   0.17533   0.00000  Uiso   1.00
C263   C     0.64597   0.54228   0.15800   0.00000  Uiso   1.00
C264   C     0.64597   0.45772   0.15800   0.00000  Uiso   1.00
Cu265  Cu    0.50000   0.54689   0.16667   0.00000  Uiso   1.00
Cu266  Cu    0.50000   0.45311   0.16667   0.00000  Uiso   1.00
H267   H     0.39864   0.42019   0.22366   0.00000  Uiso   1.00
H268   H     0.39864   0.57981   0.22367   0.00000  Uiso   1.00
H269   H     0.38132   0.61058   0.16797   0.00000  Uiso   1.00
H270   H     0.34878   0.60433   0.21911   0.00000  Uiso   1.00
H271   H     0.40822   0.41695   0.06082   0.00000  Uiso   1.00
H272   H     0.59178   0.58305   0.27251   0.00000  Uiso   1.00
H273   H     0.59178   0.41695   0.27251   0.00000  Uiso   1.00
H274   H     0.40822   0.58305   0.06082   0.00000  Uiso   1.00
H275   H     0.34878   0.39567   0.21911   0.00000  Uiso   1.00
H276   H     0.38132   0.38942   0.16796   0.00000  Uiso   1.00
H277   H     0.60136   0.57981   0.10967   0.00000  Uiso   1.00
H278   H     0.61868   0.61058   0.16537   0.00000  Uiso   1.00
H279   H     0.65122   0.60433   0.11422   0.00000  Uiso   1.00
H280   H     0.60136   0.42019   0.10967   0.00000  Uiso   1.00
H281   H     0.65122   0.39567   0.11422   0.00000  Uiso   1.00
H282   H     0.61868   0.38942   0.16537   0.00000  Uiso   1.00
N283   N     0.50000   0.61736   0.16667   0.00000  Uiso   1.00
N284   N     0.50000   0.38264   0.16667   0.00000  Uiso   1.00
O285   O     0.43988   0.53958   0.16666   0.00000  Uiso   1.00
O286   O     0.41977   0.40203   0.09239   0.00000  Uiso   1.00
O287   O     0.52609   0.61756   0.28633   0.00000  Uiso   1.00
O288   O     0.58023   0.59797   0.24094   0.00000  Uiso   1.00
O289   O     0.52609   0.38245   0.28633   0.00000  Uiso   1.00
O290   O     0.58023   0.40203   0.24094   0.00000  Uiso   1.00
O291   O     0.47391   0.61756   0.04700   0.00000  Uiso   1.00
O292   O     0.41977   0.59798   0.09239   0.00000  Uiso   1.00
O293   O     0.56012   0.46042   0.16667   0.00000  Uiso   1.00
O294   O     0.56012   0.53958   0.16667   0.00000  Uiso   1.00
O295   O     0.43988   0.46042   0.16666   0.00000  Uiso   1.00
O296   O     0.50000   0.53959   0.09613   0.00000  Uiso   1.00
O297   O     0.50000   0.46041   0.23720   0.00000  Uiso   1.00
O298   O     0.50000   0.53959   0.23720   0.00000  Uiso   1.00
O299   O     0.50000   0.46041   0.09613   0.00000  Uiso   1.00
O300   O     0.47391   0.38244   0.04700   0.00000  Uiso   1.00
C301   C     0.75440   0.50000   0.17192   0.00000  Uiso   1.00
C302   C     0.68736   0.54228   0.17533   0.00000  Uiso   1.00
C303   C     0.95733   0.50000   0.15585   0.00000  Uiso   1.00
C304   C     0.70934   0.50000   0.17748   0.00000  Uiso   1.00
C305   C     0.81330   0.35801   0.12914   0.00000  Uiso   1.00
C306   C     0.85337   0.64199   0.20419   0.00000  Uiso   1.00
C307   C     0.85337   0.35801   0.20419   0.00000  Uiso   1.00
C308   C     0.81330   0.64199   0.12914   0.00000  Uiso   1.00
C309   C     0.70543   0.41338   0.19722   0.00000  Uiso   1.00
C310   C     0.96124   0.58662   0.13612   0.00000  Uiso   1.00
C311   C     0.96124   0.41338   0.13612   0.00000  Uiso   1.00
C312   C     0.91227   0.50000   0.16141   0.00000  Uiso   1.00
C313   C     0.70543   0.58662   0.19722   0.00000  Uiso   1.00
C314   C     0.79176   0.38204   0.08714   0.00000  Uiso   1.00
C315   C     0.87490   0.61796   0.24619   0.00000  Uiso   1.00
C316   C     0.87490   0.38204   0.24619   0.00000  Uiso   1.00
C317   C     0.79176   0.61796   0.08714   0.00000  Uiso   1.00
C318   C     0.83317   0.50000   0.07366   0.00000  Uiso   1.00
C319   C     0.83350   0.50000   0.25968   0.00000  Uiso   1.00
C320   C     0.83328   0.50000   0.02189   0.00000  Uiso   1.00
C321   C     0.83339   0.50000   0.31145   0.00000  Uiso   1.00
C322   C     0.68736   0.45772   0.17533   0.00000  Uiso   1.00
C323   C     0.97930   0.54228   0.15800   0.00000  Uiso   1.00
C324   C     0.97930   0.45772   0.15800   0.00000  Uiso   1.00
Cu325  Cu    0.83333   0.54689   0.16667   0.00000  Uiso   1.00
Cu326  Cu    0.83333   0.45311   0.16667   0.00000  Uiso   1.00
H327   H     0.73197   0.42019   0.22366   0.00000  Uiso   1.00
H328   H     0.73197   0.57981   0.22367   0.00000  Uiso   1.00
H329   H     0.71466   0.61058   0.16797   0.00000  Uiso   1.00
H330   H     0.68211   0.60433   0.21911   0.00000  Uiso   1.00
H331   H     0.74155   0.41695   0.06082   0.00000  Uiso   1.00
H332   H     0.92511   0.58305   0.27251   0.00000  Uiso   1.00
H333   H     0.92512   0.41695   0.27251   0.00000  Uiso   1.00
H334   H     0.74155   0.58305   0.06082   0.00000  Uiso   1.00
H335   H     0.68211   0.39567   0.21911   0.00000  Uiso   1.00
H336   H     0.71466   0.38942   0.16796   0.00000  Uiso   1.00
H337   H     0.93469   0.57981   0.10967   0.00000  Uiso   1.00
H338   H     0.95201   0.61058   0.16537   0.00000  Uiso   1.00
H339   H     0.98455   0.60433   0.11422   0.00000  Uiso   1.00
H340   H     0.93469   0.42019   0.10967   0.00000  Uiso   1.00
H341   H     0.98455   0.39567   0.11422   0.00000  Uiso   1.00
H342   H     0.95201   0.38942   0.16537   0.00000  Uiso   1.00
N343   N     0.83333   0.61736   0.16667   0.00000  Uiso   1.00
N344   N     0.83333   0.38264   0.16667   0.00000  Uiso   1.00
O345   O     0.77321   0.53958   0.16666   0.00000  Uiso   1.00
O346   O     0.75311   0.40203   0.09239   0.00000  Uiso   1.00
O347   O     0.85943   0.61756   0.28633   0.00000  Uiso   1.00
O348   O     0.91356   0.59797   0.24094   0.00000  Uiso   1.00
O349   O     0.85943   0.38245   0.28633   0.00000  Uiso   1.00
O350   O     0.91356   0.40203   0.24094   0.00000  Uiso   1.00
O351   O     0.80724   0.61756   0.04700   0.00000  Uiso   1.00
O352   O     0.75311   0.59798   0.09239   0.00000  Uiso   1.00
O353   O     0.89345   0.46042   0.16667   0.00000  Uiso   1.00
O354   O     0.89345   0.53958   0.16667   0.00000  Uiso   1.00
O355   O     0.77321   0.46042   0.16666   0.00000  Uiso   1.00
O356   O     0.83333   0.53959   0.09613   0.00000  Uiso   1.00
O357   O     0.83333   0.46041   0.23720   0.00000  Uiso   1.00
O358   O     0.83333   0.53959   0.23720   0.00000  Uiso   1.00
O359   O     0.83333   0.46041   0.09613   0.00000  Uiso   1.00
O360   O     0.80724   0.38244   0.04700   0.00000  Uiso   1.00
C361   C     0.08773   0.83333   0.17192   0.00000  Uiso   1.00
C362   C     0.02070   0.87561   0.17533   0.00000  Uiso   1.00
C363   C     0.29066   0.83333   0.15585   0.00000  Uiso   1.00
C364   C     0.04267   0.83333   0.17748   0.00000  Uiso   1.00
C365   C     0.14663   0.69135   0.12914   0.00000  Uiso   1.00
C366   C     0.18670   0.97532   0.20419   0.00000  Uiso   1.00
C367   C     0.18670   0.69135   0.20419   0.00000  Uiso   1.00
C368   C     0.14663   0.97532   0.12914   0.00000  Uiso   1.00
C369   C     0.03876   0.74672   0.19722   0.00000  Uiso   1.00
C370   C     0.29457   0.91995   0.13612   0.00000  Uiso   1.00
C371   C     0.29457   0.74672   0.13612   0.00000  Uiso   1.00
C372   C     0.24560   0.83333   0.16141   0.00000  Uiso   1.00
C373   C     0.03876   0.91995   0.19722   0.00000  Uiso   1.00
C374   C     0.12510   0.71537   0.08714   0.00000  Uiso   1.00
C375   C     0.20824   0.95129   0.24619   0.00000  Uiso   1.00
C376   C     0.20824   0.71537   0.24619   0.00000  Uiso   1.00
C377   C     0.12510   0.95129   0.08714   0.00000  Uiso   1.00
C378   C     0.16650   0.83333   0.07366   0.00000  Uiso   1.00
C379   C     0.16683   0.83333   0.25968   0.00000  Uiso   1.00
C380   C     0.16661   0.83333   0.02189   0.00000  Uiso   1.00
C381   C     0.16672   0.83333   0.31145   0.00000  Uiso   1.00
C382   C     0.02070   0.79106   0.17533   0.00000  Uiso   1.00
C383   C     0.31264   0.87561   0.15800   0.00000  Uiso   1.00
C384   C     0.31264   0.79106   0.15800   0.00000  Uiso   1.00
Cu385  Cu    0.16667   0.88022   0.16667   0.00000  Uiso   1.00
Cu386  Cu    0.16667   0.78645   0.16667   0.00000  Uiso   1.00
H387   H     0.06531   0.75352   0.22366   0.00000  Uiso   1.00
H388   H     0.06531   0.91315   0.22367   0.00000  Uiso   1.00
H389   H     0.04799   0.94391   0.16797   0.00000  Uiso   1.00
H390   H     0.01545   0.93766   0.21911   0.00000  Uiso   1.00
H391   H     0.07488   0.75028   0.06082   0.00000  Uiso   1.00
H392   H     0.25845   0.91638   0.27251   0.00000  Uiso   1.00
H393   H     0.25845   0.75028   0.27251   0.00000  Uiso   1.00
H394   H     0.07488   0.91638   0.06082   0.00000  Uiso   1.00
H395   H     0.01545   0.72901   0.21911   0.00000  Uiso   1.00
H396   H     0.04799   0.72275   0.16796   0.00000  Uiso   1.00
H397   H     0.26803   0.91315   0.10967   0.00000  Uiso   1.00
H398   H     0.28534   0.94391   0.16537   0.00000  Uiso   1.00
H399   H     0.31789   0.93766   0.11422   0.00000  Uiso   1.00
H400   H     0.26803   0.75352   0.10967   0.00000  Uiso   1.00
H401   H     0.31789   0.72901   0.11422   0.00000  Uiso   1.00
H402   H     0.28534   0.72275   0.16537   0.00000  Uiso   1.00
N403   N     0.16667   0.95069   0.16667   0.00000  Uiso   1.00
N404   N     0.16667   0.71598   0.16667   0.00000  Uiso   1.00
O405   O     0.10655   0.87291   0.16666   0.00000  Uiso   1.00
O406   O     0.08644   0.73536   0.09239   0.00000  Uiso   1.00
O407   O     0.19276   0.95089   0.28633   0.00000  Uiso   1.00
O408   O     0.24689   0.93131   0.24094   0.00000  Uiso   1.00
O409   O     0.19276   0.71578   0.28633   0.00000  Uiso   1.00
O410   O     0.24689   0.73536   0.24094   0.00000  Uiso   1.00
O411   O     0.14057   0.95089   0.04700   0.00000  Uiso   1.00
O412   O     0.08644   0.93131   0.09239   0.00000  Uiso   1.00
O413   O     0.22679   0.79375   0.16667   0.00000  Uiso   1.00
O414   O     0.22679   0.87291   0.16667   0.00000  Uiso   1.00
O415   O     0.10655   0.79375   0.16666   0.00000  Uiso   1.00
O416   O     0.16667   0.87292   0.09613   0.00000  Uiso   1.00
O417   O     0.16667   0.79375   0.23720   0.00000  Uiso   1.00
O418   O     0.16667   0.87292   0.23720   0.00000  Uiso   1.00
O419   O     0.16667   0.79375   0.09613   0.00000  Uiso   1.00
O420   O     0.14057   0.71578   0.04700   0.00000  Uiso   1.00
C421   C     0.42107   0.83333   0.17192   0.00000  Uiso   1.00
C422   C     0.35403   0.87561   0.17533   0.00000  Uiso   1.00
C423   C     0.62400   0.83333   0.15585   0.00000  Uiso   1.00
C424   C     0.37600   0.83333   0.17748   0.00000  Uiso   1.00
C425   C     0.47997   0.69135   0.12914   0.00000  Uiso   1.00
C426   C     0.52003   0.97532   0.20419   0.00000  Uiso   1.00
C427   C     0.52003   0.69135   0.20419   0.00000  Uiso   1.00
C428   C     0.47997   0.97532   0.12914   0.00000  Uiso   1.00
C429   C     0.37210   0.74672   0.19722   0.00000  Uiso   1.00
C430   C     0.62790   0.91995   0.13612   0.00000  Uiso   1.00
C431   C     0.62790   0.74672   0.13612   0.00000  Uiso   1.00
C432   C     0.57893   0.83333   0.16141   0.00000  Uiso   1.00
C433   C     0.37210   0.91995   0.19722   0.00000  Uiso   1.00
C434   C     0.45843   0.71537   0.08714   0.00000  Uiso   1.00
C435   C     0.54157   0.95129   0.24619   0.00000  Uiso   1.00
C436   C     0.54157   0.71537   0.24619   0.00000  Uiso   1.00
C437   C     0.45843   0.95129   0.08714   0.00000  Uiso   1.00
C438   C     0.49983   0.83333   0.07366   0.00000  Uiso   1.00
C439   C     0.50017   0.83333   0.25968   0.00000  Uiso   1.00
C440   C     0.49994   0.83333   0.02189   0.00000  Uiso   1.00
C441   C     0.50006   0.83333   0.31145   0.00000  Uiso   1.00
C442   C     0.35403   0.79106   0.17533   0.00000  Uiso   1.00
C443   C     0.64597   0.87561   0.15800   0.00000  Uiso   1.00
C444   C     0.64597   0.79106   0.15800   0.00000  Uiso   1.00
Cu445  Cu    0.50000   0.88022   0.16667   0.00000  Uiso   1.00
Cu446  Cu    0.50000   0.78645   0.16667   0.00000  Uiso   1.00
H447   H     0.39864   0.75352   0.22366   0.00000  Uiso   1.00
H448   H     0.39864   0.91315   0.22367   0.00000  Uiso   1.00
H449   H     0.38132   0.94391   0.16797   0.00000  Uiso   1.00
H450   H     0.34878   0.93766   0.21911   0.00000  Uiso   1.00
H451   H     0.40822   0.75028   0.06082   0.00000  Uiso   1.00
H452   H     0.59178   0.91638   0.27251   0.00000  Uiso   1.00
H453   H     0.59178   0.75028   0.27251   0.00000  Uiso   1.00
H454   H     0.40822   0.91638   0.06082   0.00000  Uiso   1.00
H455   H     0.34878   0.72901   0.21911   0.00000  Uiso   1.00
H456   H     0.38132   0.72275   0.16796   0.00000  Uiso   1.00
H457   H     0.60136   0.91315   0.10967   0.00000  Uiso   1.00
H458   H     0.61868   0.94391   0.16537   0.00000  Uiso   1.00
H459   H     0.65122   0.93766   0.11422   0.00000  Uiso   1.00
H460   H     0.60136   0.75352   0.10967   0.00000  Uiso   1.00
H461   H     0.65122   0.72901   0.11422   0.00000  Uiso   1.00
H462   H     0.61868   0.72275   0.16537   0.00000  Uiso   1.00
N463   N     0.50000   0.95069   0.16667   0.00000  Uiso   1.00
N464   N     0.50000   0.71598   0.16667   0.00000  Uiso   1.00
O465   O     0.43988   0.87291   0.16666   0.00000  Uiso   1.00
O466   O     0.41977   0.73536   0.09239   0.00000  Uiso   1.00
O467   O     0.52609   0.95089   0.28633   0.00000  Uiso   1.00
O468   O     0.58023   0.93131   0.24094   0.00000  Uiso   1.00
O469   O     0.52609   0.71578   0.28633   0.00000  Uiso   1.00
O470   O     0.58023   0.73536   0.24094   0.00000  Uiso   1.00
O471   O     0.47391   0.95089   0.04700   0.00000  Uiso   1.00
O472   O     0.41977   0.93131   0.09239   0.00000  Uiso   1.00
O473   O     0.56012   0.79375   0.16667   0.00000  Uiso   1.00
O474   O     0.56012   0.87291   0.16667   0.00000  Uiso   1.00
O475   O     0.43988   0.79375   0.16666   0.00000  Uiso   1.00
O476   O     0.50000   0.87292   0.09613   0.00000  Uiso   1.00
O477   O     0.50000   0.79375   0.23720   0.00000  Uiso   1.00
O478   O     0.50000   0.87292   0.23720   0.00000  Uiso   1.00
O479   O     0.50000   0.79375   0.09613   0.00000  Uiso   1.00
O480   O     0.47391   0.71578   0.04700   0.00000  Uiso   1.00
C481   C     0.75440   0.83333   0.17192   0.00000  Uiso   1.00
C482   C     0.68736   0.87561   0.17533   0.00000  Uiso   1.00
C483   C     0.95733   0.83333   0.15585   0.00000  Uiso   1.00
C484   C     0.70934   0.83333   0.17748   0.00000  Uiso   1.00
C485   C     0.81330   0.69135   0.12914   0.00000  Uiso   1.00
C486   C     0.85337   0.97532   0.20419   0.00000  Uiso   1.00
C487   C     0.85337   0.69135   0.20419   0.00000  Uiso   1.00
C488   C     0.81330   0.97532   0.12914   0.00000  Uiso   1.00
C489   C     0.70543   0.74672   0.19722   0.00000  Uiso   1.00
C490   C     0.96124   0.91995   0.13612   0.00000  Uiso   1.00
C491   C     0.96124   0.74672   0.13612   0.00000  Uiso   1.00
C492   C     0.91227   0.83333   0.16141   0.00000  Uiso   1.00
C493   C     0.70543   0.91995   0.19722   0.00000  Uiso   1.00
C494   C     0.79176   0.71537   0.08714   0.00000  Uiso   1.00
C495   C     0.87490   0.95129   0.24619   0.00000  Uiso   1.00
C496   C     0.87490   0.71537   0.24619   0.00000  Uiso   1.00
C497   C     0.79176   0.95129   0.08714   0.00000  Uiso   1.00
C498   C     0.83317   0.83333   0.07366   0.00000  Uiso   1.00
C499   C     0.83350   0.83333   0.25968   0.00000  Uiso   1.00
C500   C     0.83328   0.83333   0.02189   0.00000  Uiso   1.00
C501   C     0.83339   0.83333   0.31145   0.00000  Uiso   1.00
C502   C     0.68736   0.79106   0.17533   0.00000  Uiso   1.00
C503   C     0.97930   0.87561   0.15800   0.00000  Uiso   1.00
C504   C     0.97930   0.79106   0.15800   0.00000  Uiso   1.00
Cu505  Cu    0.83333   0.88022   0.16667   0.00000  Uiso   1.00
Cu506  Cu    0.83333   0.78645   0.16667   0.00000  Uiso   1.00
H507   H     0.73197   0.75352   0.22366   0.00000  Uiso   1.00
H508   H     0.73197   0.91315   0.22367   0.00000  Uiso   1.00
H509   H     0.71466   0.94391   0.16797   0.00000  Uiso   1.00
H510   H     0.68211   0.93766   0.21911   0.00000  Uiso   1.00
H511   H     0.74155   0.75028   0.06082   0.00000  Uiso   1.00
H512   H     0.92511   0.91638   0.27251   0.00000  Uiso   1.00
H513   H     0.92512   0.75028   0.27251   0.00000  Uiso   1.00
H514   H     0.74155   0.91638   0.06082   0.00000  Uiso   1.00
H515   H     0.68211   0.72901   0.21911   0.00000  Uiso   1.00
H516   H     0.71466   0.72275   0.16796   0.00000  Uiso   1.00
H517   H     0.93469   0.91315   0.10967   0.00000  Uiso   1.00
H518   H     0.95201   0.94391   0.16537   0.00000  Uiso   1.00
H519   H     0.98455   0.93766   0.11422   0.00000  Uiso   1.00
H520   H     0.93469   0.75352   0.10967   0.00000  Uiso   1.00
H521   H     0.98455   0.72901   0.11422   0.00000  Uiso   1.00
H522   H     0.95201   0.72275   0.16537   0.00000  Uiso   1.00
N523   N     0.83333   0.95069   0.16667   0.00000  Uiso   1.00
N524   N     0.83333   0.71598   0.16667   0.00000  Uiso   1.00
O525   O     0.77321   0.87291   0.16666   0.00000  Uiso   1.00
O526   O     0.75311   0.73536   0.09239   0.00000  Uiso   1.00
O527   O     0.85943   0.95089   0.28633   0.00000  Uiso   1.00
O528   O     0.91356   0.93131   0.24094   0.00000  Uiso   1.00
O529   O     0.85943   0.71578   0.28633   0.00000  Uiso   1.00
O530   O     0.91356   0.73536   0.24094   0.00000  Uiso   1.00
O531   O     0.80724   0.95089   0.04700   0.00000  Uiso   1.00
O532   O     0.75311   0.93131   0.09239   0.00000  Uiso   1.00
O533   O     0.89345   0.79375   0.16667   0.00000  Uiso   1.00
O534   O     0.89345   0.87291   0.16667   0.00000  Uiso   1.00
O535   O     0.77321   0.79375   0.16666   0.00000  Uiso   1.00
O536   O     0.83333   0.87292   0.09613   0.00000  Uiso   1.00
O537   O     0.83333   0.79375   0.23720   0.00000  Uiso   1.00
O538   O     0.83333   0.87292   0.23720   0.00000  Uiso   1.00
O539   O     0.83333   0.79375   0.09613   0.00000  Uiso   1.00
O540   O     0.80724   0.71578   0.04700   0.00000  Uiso   1.00
C541   C     0.08773   0.16667   0.50526   0.00000  Uiso   1.00
C542   C     0.02070   0.20895   0.50866   0.00000  Uiso   1.00
C543   C     0.29066   0.16667   0.48918   0.00000  Uiso   1.00
C544   C     0.04267   0.16667   0.51081   0.00000  Uiso   1.00
C545   C     0.14663   0.02468   0.46248   0.00000  Uiso   1.00
C546   C     0.18670   0.30865   0.53752   0.00000  Uiso   1.00
C547   C     0.18670   0.02468   0.53752   0.00000  Uiso   1.00
C548   C     0.14663   0.30865   0.46248   0.00000  Uiso   1.00
C549   C     0.03876   0.08005   0.53055   0.00000  Uiso   1.00
C550   C     0.29457   0.25328   0.46945   0.00000  Uiso   1.00
C551   C     0.29457   0.08005   0.46945   0.00000  Uiso   1.00
C552   C     0.24560   0.16667   0.49474   0.00000  Uiso   1.00
C553   C     0.03876   0.25328   0.53055   0.00000  Uiso   1.00
C554   C     0.12510   0.04871   0.42047   0.00000  Uiso   1.00
C555   C     0.20824   0.28463   0.57952   0.00000  Uiso   1.00
C556   C     0.20824   0.04871   0.57952   0.00000  Uiso   1.00
C557   C     0.12510   0.28463   0.42048   0.00000  Uiso   1.00
C558   C     0.16650   0.16667   0.40699   0.00000  Uiso   1.00
C559   C     0.16683   0.16667   0.59301   0.00000  Uiso   1.00
C560   C     0.16661   0.16667   0.35522   0.00000  Uiso   1.00
C561   C     0.16672   0.16667   0.64478   0.00000  Uiso   1.00
C562   C     0.02070   0.12439   0.50866   0.00000  Uiso   1.00
C563   C     0.31264   0.20895   0.49134   0.00000  Uiso   1.00
C564   C     0.31264   0.12439   0.49134   0.00000  Uiso   1.00
Cu565  Cu    0.16667   0.21355   0.50000   0.00000  Uiso   1.00
Cu566  Cu    0.16667   0.11978   0.50000   0.00000  Uiso   1.00
H567   H     0.06531   0.08685   0.55700   0.00000  Uiso   1.00
H568   H     0.06531   0.24648   0.55700   0.00000  Uiso   1.00
H569   H     0.04799   0.27725   0.50130   0.00000  Uiso   1.00
H570   H     0.01545   0.27099   0.55244   0.00000  Uiso   1.00
H571   H     0.07488   0.08362   0.39416   0.00000  Uiso   1.00
H572   H     0.25845   0.24972   0.60584   0.00000  Uiso   1.00
H573   H     0.25845   0.08362   0.60584   0.00000  Uiso   1.00
H574   H     0.07488   0.24972   0.39416   0.00000  Uiso   1.00
H575   H     0.01545   0.06234   0.55244   0.00000  Uiso   1.00
H576   H     0.04799   0.05609   0.50130   0.00000  Uiso   1.00
H577   H     0.26803   0.24648   0.44300   0.00000  Uiso   1.00
H578   H     0.28534   0.27725   0.49870   0.00000  Uiso   1.00
H579   H     0.31789   0.27099   0.44756   0.00000  Uiso   1.00
H580   H     0.26803   0.08685   0.44300   0.00000  Uiso   1.00
H581   H     0.31789   0.06234   0.44756   0.00000  Uiso   1.00
H582   H     0.28534   0.05609   0.49870   0.00000  Uiso   1.00
N583   N     0.16667   0.28402   0.50000   0.00000  Uiso   1.00
N584   N     0.16667   0.04931   0.50000   0.00000  Uiso   1.00
O585   O     0.10655   0.20625   0.50000   0.00000  Uiso   1.00
O586   O     0.08644   0.06869   0.42572   0.00000  Uiso   1.00
O587   O     0.19276   0.28422   0.61966   0.00000  Uiso   1.00
O588   O     0.24689   0.26464   0.57428   0.00000  Uiso   1.00
O589   O     0.19276   0.04911   0.61966   0.00000  Uiso   1.00
O590   O     0.24689   0.06869   0.57428   0.00000  Uiso   1.00
O591   O     0.14057   0.28422   0.38034   0.00000  Uiso   1.00
O592   O     0.08644   0.26464   0.42572   0.00000  Uiso   1.00
O593   O     0.22679   0.12709   0.50000   0.00000  Uiso   1.00
O594   O     0.22679   0.20625   0.50000   0.00000  Uiso   1.00
O595   O     0.10655   0.12709   0.50000   0.00000  Uiso   1.00
O596   O     0.16667   0.20625   0.42946   0.00000  Uiso   1.00
O597   O     0.16667   0.12708   0.57054   0.00000  Uiso   1.00
O598   O     0.16667   0.20625   0.57054   0.00000  Uiso   1.00
O599   O     0.16667   0.12708   0.42946   0.00000  Uiso   1.00
O600   O     0.14057   0.04911   0.38034   0.00000  Uiso   1.00
C601   C     0.42107   0.16667   0.50526   0.00000  Uiso   1.00
C602   C     0.35403   0.20895   0.50866   0.00000  Uiso   1.00
C603   C     0.62400   0.16667   0.48918   0.00000  Uiso   1.00
C604   C     0.37600   0.16667   0.51081   0.00000  Uiso   1.00
C605   C     0.47997   0.02468   0.46248   0.00000  Uiso   1.00
C606   C     0.52003   0.30865   0.53752   0.00000  Uiso   1.00
C607   C     0.52003   0.02468   0.53752   0.00000  Uiso   1.00
C608   C     0.47997   0.30865   0.46248   0.00000  Uiso   1.00
C609   C     0.37210   0.08005   0.53055   0.00000  Uiso   1.00
C610   C     0.62790   0.25328   0.46945   0.00000  Uiso   1.00
C611   C     0.62790   0.08005   0.46945   0.00000  Uiso   1.00
C612   C     0.57893   0.16667   0.49474   0.00000  Uiso   1.00
C613   C     0.37210   0.25328   0.53055   0.00000  Uiso   1.00
C614   C     0.45843   0.04871   0.42047   0.00000  Uiso   1.00
C615   C     0.54157   0.28463   0.57952   0.00000  Uiso   1.00
C616   C     0.54157   0.04871   0.57952   0.00000  Uiso   1.00
C617   C     0.45843   0.28463   0.42048   0.00000  Uiso   1.00
C618   C     0.49983   0.16667   0.40699   0.00000  Uiso   1.00
C619   C     0.50017   0.16667   0.59301   0.00000  Uiso   1.00
C620   C     0.49994   0.16667   0.35522   0.00000  Uiso   1.00
C621   C     0.50006   0.16667   0.64478   0.00000  Uiso   1.00
C622   C     0.35403   0.12439   0.50866   0.00000  Uiso   1.00
C623   C     0.64597   0.20895   0.49134   0.00000  Uiso   1.00
C624   C     0.64597   0.12439   0.49134   0.00000  Uiso   1.00
Cu625  Cu    0.50000   0.21355   0.50000   0.00000  Uiso   1.00
Cu626  Cu    0.50000   0.11978   0.50000   0.00000  Uiso   1.00
H627   H     0.39864   0.08685   0.55700   0.00000  Uiso   1.00
H628   H     0.39864   0.24648   0.55700   0.00000  Uiso   1.00
H629   H     0.38132   0.27725   0.50130   0.00000  Uiso   1.00
H630   H     0.34878   0.27099   0.55244   0.00000  Uiso   1.00
H631   H     0.40822   0.08362   0.39416   0.00000  Uiso   1.00
H632   H     0.59178   0.24972   0.60584   0.00000  Uiso   1.00
H633   H     0.59178   0.08362   0.60584   0.00000  Uiso   1.00
H634   H     0.40822   0.24972   0.39416   0.00000  Uiso   1.00
H635   H     0.34878   0.06234   0.55244   0.00000  Uiso   1.00
H636   H     0.38132   0.05609   0.50130   0.00000  Uiso   1.00
H637   H     0.60136   0.24648   0.44300   0.00000  Uiso   1.00
H638   H     0.61868   0.27725   0.49870   0.00000  Uiso   1.00
H639   H     0.65122   0.27099   0.44756   0.00000  Uiso   1.00
H640   H     0.60136   0.08685   0.44300   0.00000  Uiso   1.00
H641   H     0.65122   0.06234   0.44756   0.00000  Uiso   1.00
H642   H     0.61868   0.05609   0.49870   0.00000  Uiso   1.00
N643   N     0.50000   0.28402   0.50000   0.00000  Uiso   1.00
N644   N     0.50000   0.04931   0.50000   0.00000  Uiso   1.00
O645   O     0.43988   0.20625   0.50000   0.00000  Uiso   1.00
O646   O     0.41977   0.06869   0.42572   0.00000  Uiso   1.00
O647   O     0.52609   0.28422   0.61966   0.00000  Uiso   1.00
O648   O     0.58023   0.26464   0.57428   0.00000  Uiso   1.00
O649   O     0.52609   0.04911   0.61966   0.00000  Uiso   1.00
O650   O     0.58023   0.06869   0.57428   0.00000  Uiso   1.00
O651   O     0.47391   0.28422   0.38034   0.00000  Uiso   1.00
O652   O     0.41977   0.26464   0.42572   0.00000  Uiso   1.00
O653   O     0.56012   0.12709   0.50000   0.00000  Uiso   1.00
O654   O     0.56012   0.20625   0.50000   0.00000  Uiso   1.00
O655   O     0.43988   0.12709   0.50000   0.00000  Uiso   1.00
O656   O     0.50000   0.20625   0.42946   0.00000  Uiso   1.00
O657   O     0.50000   0.12708   0.57054   0.00000  Uiso   1.00
O658   O     0.50000   0.20625   0.57054   0.00000  Uiso   1.00
O659   O     0.50000   0.12708   0.42946   0.00000  Uiso   1.00
O660   O     0.47391   0.04911   0.38034   0.00000  Uiso   1.00
C661   C     0.75440   0.16667   0.50526   0.00000  Uiso   1.00
C662   C     0.68736   0.20895   0.50866   0.00000  Uiso   1.00
C663   C     0.95733   0.16667   0.48918   0.00000  Uiso   1.00
C664   C     0.70934   0.16667   0.51081   0.00000  Uiso   1.00
C665   C     0.81330   0.02468   0.46248   0.00000  Uiso   1.00
C666   C     0.85337   0.30865   0.53752   0.00000  Uiso   1.00
C667   C     0.85337   0.02468   0.53752   0.00000  Uiso   1.00
C668   C     0.81330   0.30865   0.46248   0.00000  Uiso   1.00
C669   C     0.70543   0.08005   0.53055   0.00000  Uiso   1.00
C670   C     0.96124   0.25328   0.46945   0.00000  Uiso   1.00
C671   C     0.96124   0.08005   0.46945   0.00000  Uiso   1.00
C672   C     0.91227   0.16667   0.49474   0.00000  Uiso   1.00
C673   C     0.70543   0.25328   0.53055   0.00000  Uiso   1.00
C674   C     0.79176   0.04871   0.42047   0.00000  Uiso   1.00
C675   C     0.87490   0.28463   0.57952   0.00000  Uiso   1.00
C676   C     0.87490   0.04871   0.57952   0.00000  Uiso   1.00
C677   C     0.79176   0.28463   0.42048   0.00000  Uiso   1.00
C678   C     0.83317   0.16667   0.40699   0.00000  Uiso   1.00
C679   C     0.83350   0.16667   0.59301   0.00000  Uiso   1.00
C680   C     0.83328   0.16667   0.35522   0.00000  Uiso   1.00
C681   C     0.83339   0.16667   0.64478   0.00000  Uiso   1.00
C682   C     0.68736   0.12439   0.50866   0.00000  Uiso   1.00
C683   C     0.97930   0.20895   0.49134   0.00000  Uiso   1.00
C684   C     0.97930   0.12439   0.49134   0.00000  Uiso   1.00
Cu685  Cu    0.83333   0.21355   0.50000   0.00000  Uiso   1.00
Cu686  Cu    0.83333   0.11978   0.50000   0.00000  Uiso   1.00
H687   H     0.73197   0.08685   0.55700   0.00000  Uiso   1.00
H688   H     0.73197   0.24648   0.55700   0.00000  Uiso   1.00
H689   H     0.71466   0.27725   0.50130   0.00000  Uiso   1.00
H690   H     0.68211   0.27099   0.55244   0.00000  Uiso   1.00
H691   H     0.74155   0.08362   0.39416   0.00000  Uiso   1.00
H692   H     0.92511   0.24972   0.60584   0.00000  Uiso   1.00
H693   H     0.92512   0.08362   0.60584   0.00000  Uiso   1.00
H694   H     0.74155   0.24972   0.39416   0.00000  Uiso   1.00
H695   H     0.68211   0.06234   0.55244   0.00000  Uiso   1.00
H696   H     0.71466   0.05609   0.50130   0.00000  Uiso   1.00
H697   H     0.93469   0.24648   0.44300   0.00000  Uiso   1.00
H698   H     0.95201   0.27725   0.49870   0.00000  Uiso   1.00
H699   H     0.98455   0.27099   0.44756   0.00000  Uiso   1.00
H700   H     0.93469   0.08685   0.44300   0.00000  Uiso   1.00
H701   H     0.98455   0.06234   0.44756   0.00000  Uiso   1.00
H702   H     0.95201   0.05609   0.49870   0.00000  Uiso   1.00
N703   N     0.83333   0.28402   0.50000   0.00000  Uiso   1.00
N704   N     0.83333   0.04931   0.50000   0.00000  Uiso   1.00
O705   O     0.77321   0.20625   0.50000   0.00000  Uiso   1.00
O706   O     0.75311   0.06869   0.42572   0.00000  Uiso   1.00
O707   O     0.85943   0.28422   0.61966   0.00000  Uiso   1.00
O708   O     0.91356   0.26464   0.57428   0.00000  Uiso   1.00
O709   O     0.85943   0.04911   0.61966   0.00000  Uiso   1.00
O710   O     0.91356   0.06869   0.57428   0.00000  Uiso   1.00
O711   O     0.80724   0.28422   0.38034   0.00000  Uiso   1.00
O712   O     0.75311   0.26464   0.42572   0.00000  Uiso   1.00
O713   O     0.89345   0.12709   0.50000   0.00000  Uiso   1.00
O714   O     0.89345   0.20625   0.50000   0.00000  Uiso   1.00
O715   O     0.77321   0.12709   0.50000   0.00000  Uiso   1.00
O716   O     0.83333   0.20625   0.42946   0.00000  Uiso   1.00
O717   O     0.83333   0.12708   0.57054   0.00000  Uiso   1.00
O718   O     0.83333   0.20625   0.57054   0.00000  Uiso   1.00
O719   O     0.83333   0.12708   0.42946   0.00000  Uiso   1.00
O720   O     0.80724   0.04911   0.38034   0.00000  Uiso   1.00
C721   C     0.08773   0.50000   0.50526   0.00000  Uiso   1.00
C722   C     0.02070   0.54228   0.50866   0.00000  Uiso   1.00
C723   C     0.29066   0.50000   0.48918   0.00000  Uiso   1.00
C724   C     0.04267   0.50000   0.51081   0.00000  Uiso   1.00
C725   C     0.14663   0.35801   0.46248   0.00000  Uiso   1.00
C726   C     0.18670   0.64199   0.53752   0.00000  Uiso   1.00
C727   C     0.18670   0.35801   0.53752   0.00000  Uiso   1.00
C728   C     0.14663   0.64199   0.46248   0.00000  Uiso   1.00
C729   C     0.03876   0.41338   0.53055   0.00000  Uiso   1.00
C730   C     0.29457   0.58662   0.46945   0.00000  Uiso   1.00
C731   C     0.29457   0.41338   0.46945   0.00000  Uiso   1.00
C732   C     0.24560   0.50000   0.49474   0.00000  Uiso   1.00
C733   C     0.03876   0.58662   0.53055   0.00000  Uiso   1.00
C734   C     0.12510   0.38204   0.42047   0.00000  Uiso   1.00
C735   C     0.20824   0.61796   0.57952   0.00000  Uiso   1.00
C736   C     0.20824   0.38204   0.57952   0.00000  Uiso   1.00
C737   C     0.12510   0.61796   0.42048   0.00000  Uiso   1.00
C738   C     0.16650   0.50000   0.40699   0.00000  Uiso   1.00
C739   C     0.16683   0.50000   0.59301   0.00000  Uiso   1.00
C740   C     0.16661   0.50000   0.35522   0.00000  Uiso   1.00
C741   C     0.16672   0.50000   0.64478   0.00000  Uiso   1.00
C742   C     0.02070   0.45772   0.50866   0.00000  Uiso   1.00
C743   C     0.31264   0.54228   0.49134   0.00000  Uiso   1.00
C744   C     0.31264   0.45772   0.49134   0.00000  Uiso   1.00
Cu745  Cu    0.16667   0.54689   0.50000   0.00000  Uiso   1.00
Cu746  Cu    0.16667   0.45311   0.50000   0.00000  Uiso   1.00
H747   H     0.06531   0.42019   0.55700   0.00000  Uiso   1.00
H748   H     0.06531   0.57981   0.55700   0.00000  Uiso   1.00
H749   H     0.04799   0.61058   0.50130   0.00000  Uiso   1.00
H750   H     0.01545   0.60433   0.55244   0.00000  Uiso   1.00
H751   H     0.07488   0.41695   0.39416   0.00000  Uiso   1.00
H752   H     0.25845   0.58305   0.60584   0.00000  Uiso   1.00
H753   H     0.25845   0.41695   0.60584   0.00000  Uiso   1.00
H754   H     0.07488   0.58305   0.39416   0.00000  Uiso   1.00
H755   H     0.01545   0.39567   0.55244   0.00000  Uiso   1.00
H756   H     0.04799   0.38942   0.50130   0.00000  Uiso   1.00
H757   H     0.26803   0.57981   0.44300   0.00000  Uiso   1.00
H758   H     0.28534   0.61058   0.49870   0.00000  Uiso   1.00
H759   H     0.31789   0.60433   0.44756   0.00000  Uiso   1.00
H760   H     0.26803   0.42019   0.44300   0.00000  Uiso   1.00
H761   H     0.31789   0.39567   0.44756   0.00000  Uiso   1.00
H762   H     0.28534   0.38942   0.49870   0.00000  Uiso   1.00
N763   N     0.16667   0.61736   0.50000   0.00000  Uiso   1.00
N764   N     0.16667   0.38264   0.50000   0.00000  Uiso   1.00
O765   O     0.10655   0.53958   0.50000   0.00000  Uiso   1.00
O766   O     0.08644   0.40203   0.42572   0.00000  Uiso   1.00
O767   O     0.19276   0.61756   0.61966   0.00000  Uiso   1.00
O768   O     0.24689   0.59797   0.57428   0.00000  Uiso   1.00
O769   O     0.19276   0.38245   0.61966   0.00000  Uiso   1.00
O770   O     0.24689   0.40203   0.57428   0.00000  Uiso   1.00
O771   O     0.14057   0.61756   0.38034   0.00000  Uiso   1.00
O772   O     0.08644   0.59798   0.42572   0.00000  Uiso   1.00
O773   O     0.22679   0.46042   0.50000   0.00000  Uiso   1.00
O774   O     0.22679   0.53958   0.50000   0.00000  Uiso   1.00
O775   O     0.10655   0.46042   0.50000   0.00000  Uiso   1.00
O776   O     0.16667   0.53959   0.42946   0.00000  Uiso   1.00
O777   O     0.16667   0.46041   0.57054   0.00000  Uiso   1.00
O778   O     0.16667   0.53959   0.57054   0.00000  Uiso   1.00
O779   O     0.16667   0.46041   0.42946   0.00000  Uiso   1.00
O780   O     0.14057   0.38244   0.38034   0.00000  Uiso   1.00
C781   C     0.42107   0.50000   0.50526   0.00000  Uiso   1.00
C782   C     0.35403   0.54228   0.50866   0.00000  Uiso   1.00
C783   C     0.62400   0.50000   0.48918   0.00000  Uiso   1.00
C784   C     0.37600   0.50000   0.51081   0.00000  Uiso   1.00
C785   C     0.47997   0.35801   0.46248   0.00000  Uiso   1.00
C786   C     0.52003   0.64199   0.53752   0.00000  Uiso   1.00
C787   C     0.52003   0.35801   0.53752   0.00000  Uiso   1.00
C788   C     0.47997   0.64199   0.46248   0.00000  Uiso   1.00
C789   C     0.37210   0.41338   0.53055   0.00000  Uiso   1.00
C790   C     0.62790   0.58662   0.46945   0.00000  Uiso   1.00
C791   C     0.62790   0.41338   0.46945   0.00000  Uiso   1.00
C792   C     0.57893   0.50000   0.49474   0.00000  Uiso   1.00
C793   C     0.37210   0.58662   0.53055   0.00000  Uiso   1.00
C794   C     0.45843   0.38204   0.42047   0.00000  Uiso   1.00
C795   C     0.54157   0.61796   0.57952   0.00000  Uiso   1.00
C796   C     0.54157   0.38204   0.57952   0.00000  Uiso   1.00
C797   C     0.45843   0.61796   0.42048   0.00000  Uiso   1.00
C798   C     0.49983   0.50000   0.40699   0.00000  Uiso   1.00
C799   C     0.50017   0.50000   0.59301   0.00000  Uiso   1.00
C800   C     0.49994   0.50000   0.35522   0.00000  Uiso   1.00
C801   C     0.50006   0.50000   0.64478   0.00000  Uiso   1.00
C802   C     0.35403   0.45772   0.50866   0.00000  Uiso   1.00
C803   C     0.64597   0.54228   0.49134   0.00000  Uiso   1.00
C804   C     0.64597   0.45772   0.49134   0.00000  Uiso   1.00
Cu805  Cu    0.50000   0.54689   0.50000   0.00000  Uiso   1.00
Cu806  Cu    0.50000   0.45311   0.50000   0.00000  Uiso   1.00
H807   H     0.39864   0.42019   0.55700   0.00000  Uiso   1.00
H808   H     0.39864   0.57981   0.55700   0.00000  Uiso   1.00
H809   H     0.38132   0.61058   0.50130   0.00000  Uiso   1.00
H810   H     0.34878   0.60433   0.55244   0.00000  Uiso   1.00
H811   H     0.40822   0.41695   0.39416   0.00000  Uiso   1.00
H812   H     0.59178   0.58305   0.60584   0.00000  Uiso   1.00
H813   H     0.59178   0.41695   0.60584   0.00000  Uiso   1.00
H814   H     0.40822   0.58305   0.39416   0.00000  Uiso   1.00
H815   H     0.34878   0.39567   0.55244   0.00000  Uiso   1.00
H816   H     0.38132   0.38942   0.50130   0.00000  Uiso   1.00
H817   H     0.60136   0.57981   0.44300   0.00000  Uiso   1.00
H818   H     0.61868   0.61058   0.49870   0.00000  Uiso   1.00
H819   H     0.65122   0.60433   0.44756   0.00000  Uiso   1.00
H820   H     0.60136   0.42019   0.44300   0.00000  Uiso   1.00
H821   H     0.65122   0.39567   0.44756   0.00000  Uiso   1.00
H822   H     0.61868   0.38942   0.49870   0.00000  Uiso   1.00
N823   N     0.50000   0.61736   0.50000   0.00000  Uiso   1.00
N824   N     0.50000   0.38264   0.50000   0.00000  Uiso   1.00
O825   O     0.43988   0.53958   0.50000   0.00000  Uiso   1.00
O826   O     0.41977   0.40203   0.42572   0.00000  Uiso   1.00
O827   O     0.52609   0.61756   0.61966   0.00000  Uiso   1.00
O828   O     0.58023   0.59797   0.57428   0.00000  Uiso   1.00
O829   O     0.52609   0.38245   0.61966   0.00000  Uiso   1.00
O830   O     0.58023   0.40203   0.57428   0.00000  Uiso   1.00
O831   O     0.47391   0.61756   0.38034   0.00000  Uiso   1.00
O832   O     0.41977   0.59798   0.42572   0.00000  Uiso   1.00
O833   O     0.56012   0.46042   0.50000   0.00000  Uiso   1.00
O834   O     0.56012   0.53958   0.50000   0.00000  Uiso   1.00
O835   O     0.43988   0.46042   0.50000   0.00000  Uiso   1.00
O836   O     0.50000   0.53959   0.42946   0.00000  Uiso   1.00
O837   O     0.50000   0.46041   0.57054   0.00000  Uiso   1.00
O838   O     0.50000   0.53959   0.57054   0.00000  Uiso   1.00
O839   O     0.50000   0.46041   0.42946   0.00000  Uiso   1.00
O840   O     0.47391   0.38244   0.38034   0.00000  Uiso   1.00
C841   C     0.75440   0.50000   0.50526   0.00000  Uiso   1.00
C842   C     0.68736   0.54228   0.50866   0.00000  Uiso   1.00
C843   C     0.95733   0.50000   0.48918   0.00000  Uiso   1.00
C844   C     0.70934   0.50000   0.51081   0.00000  Uiso   1.00
C845   C     0.81330   0.35801   0.46248   0.00000  Uiso   1.00
C846   C     0.85337   0.64199   0.53752   0.00000  Uiso   1.00
C847   C     0.85337   0.35801   0.53752   0.00000  Uiso   1.00
C848   C     0.81330   0.64199   0.46248   0.00000  Uiso   1.00
C849   C     0.70543   0.41338   0.53055   0.00000  Uiso   1.00
C850   C     0.96124   0.58662   0.46945   0.00000  Uiso   1.00
C851   C     0.96124   0.41338   0.46945   0.00000  Uiso   1.00
C852   C     0.91227   0.50000   0.49474   0.00000  Uiso   1.00
C853   C     0.70543   0.58662   0.53055   0.00000  Uiso   1.00
C854   C     0.79176   0.38204   0.42047   0.00000  Uiso   1.00
C855   C     0.87490   0.61796   0.57952   0.00000  Uiso   1.00
C856   C     0.87490   0.38204   0.57952   0.00000  Uiso   1.00
C857   C     0.79176   0.61796   0.42048   0.00000  Uiso   1.00
C858   C     0.83317   0.50000   0.40699   0.00000  Uiso   1.00
C859   C     0.83350   0.50000   0.59301   0.00000  Uiso   1.00
C860   C     0.83328   0.50000   0.35522   0.00000  Uiso   1.00
C861   C     0.83339   0.50000   0.64478   0.00000  Uiso   1.00
C862   C     0.68736   0.45772   0.50866   0.00000  Uiso   1.00
C863   C     0.97930   0.54228   0.49134   0.00000  Uiso   1.00
C864   C     0.97930   0.45772   0.49134   0.00000  Uiso   1.00
Cu865  Cu    0.83333   0.54689   0.50000   0.00000  Uiso   1.00
Cu866  Cu    0.83333   0.45311   0.50000   0.00000  Uiso   1.00
H867   H     0.73197   0.42019   0.55700   0.00000  Uiso   1.00
H868   H     0.73197   0.57981   0.55700   0.00000  Uiso   1.00
H869   H     0.71466   0.61058   0.50130   0.00000  Uiso   1.00
H870   H     0.68211   0.60433   0.55244   0.00000  Uiso   1.00
H871   H     0.74155   0.41695   0.39416   0.00000  Uiso   1.00
H872   H     0.92511   0.58305   0.60584   0.00000  Uiso   1.00
H873   H     0.92512   0.41695   0.60584   0.00000  Uiso   1.00
H874   H     0.74155   0.58305   0.39416   0.00000  Uiso   1.00
H875   H     0.68211   0.39567   0.55244   0.00000  Uiso   1.00
H876   H     0.71466   0.38942   0.50130   0.00000  Uiso   1.00
H877   H     0.93469   0.57981   0.44300   0.00000  Uiso   1.00
H878   H     0.95201   0.61058   0.49870   0.00000  Uiso   1.00
H879   H     0.98455   0.60433   0.44756   0.00000  Uiso   1.00
H880   H     0.93469   0.42019   0.44300   0.00000  Uiso   1.00
H881   H     0.98455   0.39567   0.44756   0.00000  Uiso   1.00
H882   H     0.95201   0.38942   0.49870   0.00000  Uiso   1.00
N883   N     0.83333   0.61736   0.50000   0.00000  Uiso   1.00
N884   N     0.83333   0.38264   0.50000   0.00000  Uiso   1.00
O885   O     0.77321   0.53958   0.50000   0.00000  Uiso   1.00
O886   O     0.75311   0.40203   0.42572   0.00000  Uiso   1.00
O887   O     0.85943   0.61756   0.61966   0.00000  Uiso   1.00
O888   O     0.91356   0.59797   0.57428   0.00000  Uiso   1.00
O889   O     0.85943   0.38245   0.61966   0.00000  Uiso   1.00
O890   O     0.91356   0.40203   0.57428   0.00000  Uiso   1.00
O891   O     0.80724   0.61756   0.38034   0.00000  Uiso   1.00
O892   O     0.75311   0.59798   0.42572   0.00000  Uiso   1.00
O893   O     0.89345   0.46042   0.50000   0.00000  Uiso   1.00
O894   O     0.89345   0.53958   0.50000   0.00000  Uiso   1.00
O895   O     0.77321   0.46042   0.50000   0.00000  Uiso   1.00
O896   O     0.83333   0.53959   0.42946   0.00000  Uiso   1.00
O897   O     0.83333   0.46041   0.57054   0.00000  Uiso   1.00
O898   O     0.83333   0.53959   0.57054   0.00000  Uiso   1.00
O899   O     0.83333   0.46041   0.42946   0.00000  Uiso   1.00
O900   O     0.80724   0.38244   0.38034   0.00000  Uiso   1.00
C901   C     0.08773   0.83333   0.50526   0.00000  Uiso   1.00
C902   C     0.02070   0.87561   0.50866   0.00000  Uiso   1.00
C903   C     0.29066   0.83333   0.48918   0.00000  Uiso   1.00
C904   C     0.04267   0.83333   0.51081   0.00000  Uiso   1.00
C905   C     0.14663   0.69135   0.46248   0.00000  Uiso   1.00
C906   C     0.18670   0.97532   0.53752   0.00000  Uiso   1.00
C907   C     0.18670   0.69135   0.53752   0.00000  Uiso   1.00
C908   C     0.14663   0.97532   0.46248   0.00000  Uiso   1.00
C909   C     0.03876   0.74672   0.53055   0.00000  Uiso   1.00
C910   C     0.29457   0.91995   0.46945   0.00000  Uiso   1.00
C911   C     0.29457   0.74672   0.46945   0.00000  Uiso   1.00
C912   C     0.24560   0.83333   0.49474   0.00000  Uiso   1.00
C913   C     0.03876   0.91995   0.53055   0.00000  Uiso   1.00
C914   C     0.12510   0.71537   0.42047   0.00000  Uiso   1.00
C915   C     0.20824   0.95129   0.57952   0.00000  Uiso   1.00
C916   C     0.20824   0.71537   0.57952   0.00000  Uiso   1.00
C917   C     0.12510   0.95129   0.42048   0.00000  Uiso   1.00
C918   C     0.16650   0.83333   0.40699   0.00000  Uiso   1.00
C919   C     0.16683   0.83333   0.59301   0.00000  Uiso   1.00
C920   C     0.16661   0.83333   0.35522   0.00000  Uiso   1.00
C921   C     0.16672   0.83333   0.64478   0.00000  Uiso   1.00
C922   C     0.02070   0.79106   0.50866   0.00000  Uiso   1.00
C923   C     0.31264   0.87561   0.49134   0.00000  Uiso   1.00
C924   C     0.31264   0.79106   0.49134   0.00000  Uiso   1.00
Cu925  Cu    0.16667   0.88022   0.50000   0.00000  Uiso   1.00
Cu926  Cu    0.16667   0.78645   0.50000   0.00000  Uiso   1.00
H927   H     0.06531   0.75352   0.55700   0.00000  Uiso   1.00
H928   H     0.06531   0.91315   0.55700   0.00000  Uiso   1.00
H929   H     0.04799   0.94391   0.50130   0.00000  Uiso   1.00
H930   H     0.01545   0.93766   0.55244   0.00000  Uiso   1.00
H931   H     0.07488   0.75028   0.39416   0.00000  Uiso   1.00
H932   H     0.25845   0.91638   0.60584   0.00000  Uiso   1.00
H933   H     0.25845   0.75028   0.60584   0.00000  Uiso   1.00
H934   H     0.07488   0.91638   0.39416   0.00000  Uiso   1.00
H935   H     0.01545   0.72901   0.55244   0.00000  Uiso   1.00
H936   H     0.04799   0.72275   0.50130   0.00000  Uiso   1.00
H937   H     0.26803   0.91315   0.44300   0.00000  Uiso   1.00
H938   H     0.28534   0.94391   0.49870   0.00000  Uiso   1.00
H939   H     0.31789   0.93766   0.44756   0.00000  Uiso   1.00
H940   H     0.26803   0.75352   0.44300   0.00000  Uiso   1.00
H941   H     0.31789   0.72901   0.44756   0.00000  Uiso   1.00
H942   H     0.28534   0.72275   0.49870   0.00000  Uiso   1.00
N943   N     0.16667   0.95069   0.50000   0.00000  Uiso   1.00
N944   N     0.16667   0.71598   0.50000   0.00000  Uiso   1.00
O945   O     0.10655   0.87291   0.50000   0.00000  Uiso   1.00
O946   O     0.08644   0.73536   0.42572   0.00000  Uiso   1.00
O947   O     0.19276   0.95089   0.61966   0.00000  Uiso   1.00
O948   O     0.24689   0.93131   0.57428   0.00000  Uiso   1.00
O949   O     0.19276   0.71578   0.61966   0.00000  Uiso   1.00
O950   O     0.24689   0.73536   0.57428   0.00000  Uiso   1.00
O951   O     0.14057   0.95089   0.38034   0.00000  Uiso   1.00
O952   O     0.08644   0.93131   0.42572   0.00000  Uiso   1.00
O953   O     0.22679   0.79375   0.50000   0.00000  Uiso   1.00
O954   O     0.22679   0.87291   0.50000   0.00000  Uiso   1.00
O955   O     0.10655   0.79375   0.50000   0.00000  Uiso   1.00
O956   O     0.16667   0.87292   0.42946   0.00000  Uiso   1.00
O957   O     0.16667   0.79375   0.57054   0.00000  Uiso   1.00
O958   O     0.16667   0.87292   0.57054   0.00000  Uiso   1.00
O959   O     0.16667   0.79375   0.42946   0.00000  Uiso   1.00
O960   O     0.14057   0.71578   0.38034   0.00000  Uiso   1.00
C961   C     0.42107   0.83333   0.50526   0.00000  Uiso   1.00
C962   C     0.35403   0.87561   0.50866   0.00000  Uiso   1.00
C963   C     0.62400   0.83333   0.48918   0.00000  Uiso   1.00
C964   C     0.37600   0.83333   0.51081   0.00000  Uiso   1.00
C965   C     0.47997   0.69135   0.46248   0.00000  Uiso   1.00
C966   C     0.52003   0.97532   0.53752   0.00000  Uiso   1.00
C967   C     0.52003   0.69135   0.53752   0.00000  Uiso   1.00
C968   C     0.47997   0.97532   0.46248   0.00000  Uiso   1.00
C969   C     0.37210   0.74672   0.53055   0.00000  Uiso   1.00
C970   C     0.62790   0.91995   0.46945   0.00000  Uiso   1.00
C971   C     0.62790   0.74672   0.46945   0.00000  Uiso   1.00
C972   C     0.57893   0.83333   0.49474   0.00000  Uiso   1.00
C973   C     0.37210   0.91995   0.53055   0.00000  Uiso   1.00
C974   C     0.45843   0.71537   0.42047   0.00000  Uiso   1.00
C975   C     0.54157   0.95129   0.57952   0.00000  Uiso   1.00
C976   C     0.54157   0.71537   0.57952   0.00000  Uiso   1.00
C977   C     0.45843   0.95129   0.42048   0.00000  Uiso   1.00
C978   C     0.49983   0.83333   0.40699   0.00000  Uiso   1.00
C979   C     0.50017   0.83333   0.59301   0.00000  Uiso   1.00
C980   C     0.49994   0.83333   0.35522   0.00000  Uiso   1.00
C981   C     0.50006   0.83333   0.64478   0.00000  Uiso   1.00
C982   C     0.35403   0.79106   0.50866   0.00000  Uiso   1.00
C983   C     0.64597   0.87561   0.49134   0.00000  Uiso   1.00
C984   C     0.64597   0.79106   0.49134   0.00000  Uiso   1.00
Cu985  Cu    0.50000   0.88022   0.50000   0.00000  Uiso   1.00
Cu986  Cu    0.50000   0.78645   0.50000   0.00000  Uiso   1.00
H987   H     0.39864   0.75352   0.55700   0.00000  Uiso   1.00
H988   H     0.39864   0.91315   0.55700   0.00000  Uiso   1.00
H989   H     0.38132   0.94391   0.50130   0.00000  Uiso   1.00
H990   H     0.34878   0.93766   0.55244   0.00000  Uiso   1.00
H991   H     0.40822   0.75028   0.39416   0.00000  Uiso   1.00
H992   H     0.59178   0.91638   0.60584   0.00000  Uiso   1.00
H993   H     0.59178   0.75028   0.60584   0.00000  Uiso   1.00
H994   H     0.40822   0.91638   0.39416   0.00000  Uiso   1.00
H995   H     0.34878   0.72901   0.55244   0.00000  Uiso   1.00
H996   H     0.38132   0.72275   0.50130   0.00000  Uiso   1.00
H997   H     0.60136   0.91315   0.44300   0.00000  Uiso   1.00
H998   H     0.61868   0.94391   0.49870   0.00000  Uiso   1.00
H999   H     0.65122   0.93766   0.44756   0.00000  Uiso   1.00
H1000  H     0.60136   0.75352   0.44300   0.00000  Uiso   1.00
H1001  H     0.65122   0.72901   0.44756   0.00000  Uiso   1.00
H1002  H     0.61868   0.72275   0.49870   0.00000  Uiso   1.00
N1003  N     0.50000   0.95069   0.50000   0.00000  Uiso   1.00
N1004  N     0.50000   0.71598   0.50000   0.00000  Uiso   1.00
O1005  O     0.43988   0.87291   0.50000   0.00000  Uiso   1.00
O1006  O     0.41977   0.73536   0.42572   0.00000  Uiso   1.00
O1007  O     0.52609   0.95089   0.61966   0.00000  Uiso   1.00
O1008  O     0.58023   0.93131   0.57428   0.00000  Uiso   1.00
O1009  O     0.52609   0.71578   0.61966   0.00000  Uiso   1.00
O1010  O     0.58023   0.73536   0.57428   0.00000  Uiso   1.00
O1011  O     0.47391   0.95089   0.38034   0.00000  Uiso   1.00
O1012  O     0.41977   0.93131   0.42572   0.00000  Uiso   1.00
O1013  O     0.56012   0.79375   0.50000   0.00000  Uiso   1.00
O1014  O     0.56012   0.87291   0.50000   0.00000  Uiso   1.00
O1015  O     0.43988   0.79375   0.50000   0.00000  Uiso   1.00
O1016  O     0.50000   0.87292   0.42946   0.00000  Uiso   1.00
O1017  O     0.50000   0.79375   0.57054   0.00000  Uiso   1.00
O1018  O     0.50000   0.87292   0.57054   0.00000  Uiso   1.00
O1019  O     0.50000   0.79375   0.42946   0.00000  Uiso   1.00
O1020  O     0.47391   0.71578   0.38034   0.00000  Uiso   1.00
C1021  C     0.75440   0.83333   0.50526   0.00000  Uiso   1.00
C1022  C     0.68736   0.87561   0.50866   0.00000  Uiso   1.00
C1023  C     0.95733   0.83333   0.48918   0.00000  Uiso   1.00
C1024  C     0.70934   0.83333   0.51081   0.00000  Uiso   1.00
C1025  C     0.81330   0.69135   0.46248   0.00000  Uiso   1.00
C1026  C     0.85337   0.97532   0.53752   0.00000  Uiso   1.00
C1027  C     0.85337   0.69135   0.53752   0.00000  Uiso   1.00
C1028  C     0.81330   0.97532   0.46248   0.00000  Uiso   1.00
C1029  C     0.70543   0.74672   0.53055   0.00000  Uiso   1.00
C1030  C     0.96124   0.91995   0.46945   0.00000  Uiso   1.00
C1031  C     0.96124   0.74672   0.46945   0.00000  Uiso   1.00
C1032  C     0.91227   0.83333   0.49474   0.00000  Uiso   1.00
C1033  C     0.70543   0.91995   0.53055   0.00000  Uiso   1.00
C1034  C     0.79176   0.71537   0.42047   0.00000  Uiso   1.00
C1035  C     0.87490   0.95129   0.57952   0.00000  Uiso   1.00
C1036  C     0.87490   0.71537   0.57952   0.00000  Uiso   1.00
C1037  C     0.79176   0.95129   0.42048   0.00000  Uiso   1.00
C1038  C     0.83317   0.83333   0.40699   0.00000  Uiso   1.00
C1039  C     0.83350   0.83333   0.59301   0.00000  Uiso   1.00
C1040  C     0.83328   0.83333   0.35522   0.00000  Uiso   1.00
C1041  C     0.83339   0.83333   0.64478   0.00000  Uiso   1.00
C1042  C     0.68736   0.79106   0.50866   0.00000  Uiso   1.00
C1043  C     0.97930   0.87561   0.49134   0.00000  Uiso   1.00
C1044  C     0.97930   0.79106   0.49134   0.00000  Uiso   1.00
Cu1045 Cu    0.83333   0.88022   0.50000   0.00000  Uiso   1.00
Cu1046 Cu    0.83333   0.78645   0.50000   0.00000  Uiso   1.00
H1047  H     0.73197   0.75352   0.55700   0.00000  Uiso   1.00
H1048  H     0.73197   0.91315   0.55700   0.00000  Uiso   1.00
H1049  H     0.71466   0.94391   0.50130   0.00000  Uiso   1.00
H1050  H     0.68211   0.93766   0.55244   0.00000  Uiso   1.00
H1051  H     0.74155   0.75028   0.39416   0.00000  Uiso   1.00
H1052  H     0.92511   0.91638   0.60584   0.00000  Uiso   1.00
H1053  H     0.92512   0.75028   0.60584   0.00000  Uiso   1.00
H1054  H     0.74155   0.91638   0.39416   0.00000  Uiso   1.00
H1055  H     0.68211   0.72901   0.55244   0.00000  Uiso   1.00
H1056  H     0.71466   0.72275   0.50130   0.00000  Uiso   1.00
H1057  H     0.93469   0.91315   0.44300   0.00000  Uiso   1.00
H1058  H     0.95201   0.94391   0.49870   0.00000  Uiso   1.00
H1059  H     0.98455   0.93766   0.44756   0.00000  Uiso   1.00
H1060  H     0.93469   0.75352   0.44300   0.00000  Uiso   1.00
H1061  H     0.98455   0.72901   0.44756   0.00000  Uiso   1.00
H1062  H     0.95201   0.72275   0.49870   0.00000  Uiso   1.00
N1063  N     0.83333   0.95069   0.50000   0.00000  Uiso   1.00
N1064  N     0.83333   0.71598   0.50000   0.00000  Uiso   1.00
O1065  O     0.77321   0.87291   0.50000   0.00000  Uiso   1.00
O1066  O     0.75311   0.73536   0.42572   0.00000  Uiso   1.00
O1067  O     0.85943   0.95089   0.61966   0.00000  Uiso   1.00
O1068  O     0.91356   0.93131   0.57428   0.00000  Uiso   1.00
O1069  O     0.85943   0.71578   0.61966   0.00000  Uiso   1.00
O1070  O     0.91356   0.73536   0.57428   0.00000  Uiso   1.00
O1071  O     0.80724   0.95089   0.38034   0.00000  Uiso   1.00
O1072  O     0.75311   0.93131   0.42572   0.00000  Uiso   1.00
O1073  O     0.89345   0.79375   0.50000   0.00000  Uiso   1.00
O1074  O     0.89345   0.87291   0.50000   0.00000  Uiso   1.00
O1075  O     0.77321   0.79375   0.50000   0.00000  Uiso   1.00
O1076  O     0.83333   0.87292   0.42946   0.00000  Uiso   1.00
O1077  O     0.83333   0.79375   0.57054   0.00000  Uiso   1.00
O1078  O     0.83333   0.87292   0.57054   0.00000  Uiso   1.00
O1079  O     0.83333   0.79375   0.42946   0.00000  Uiso   1.00
O1080  O     0.80724   0.71578   0.38034   0.00000  Uiso   1.00
C1081  C     0.08773   0.16667   0.83859   0.00000  Uiso   1.00
C1082  C     0.02070   0.20895   0.84200   0.00000  Uiso   1.00
C1083  C     0.29066   0.16667   0.82252   0.00000  Uiso   1.00
C1084  C     0.04267   0.16667   0.84415   0.00000  Uiso   1.00
C1085  C     0.14663   0.02468   0.79581   0.00000  Uiso   1.00
C1086  C     0.18670   0.30865   0.87086   0.00000  Uiso   1.00
C1087  C     0.18670   0.02468   0.87086   0.00000  Uiso   1.00
C1088  C     0.14663   0.30865   0.79581   0.00000  Uiso   1.00
C1089  C     0.03876   0.08005   0.86388   0.00000  Uiso   1.00
C1090  C     0.29457   0.25328   0.80278   0.00000  Uiso   1.00
C1091  C     0.29457   0.08005   0.80278   0.00000  Uiso   1.00
C1092  C     0.24560   0.16667   0.82808   0.00000  Uiso   1.00
C1093  C     0.03876   0.25328   0.86388   0.00000  Uiso   1.00
C1094  C     0.12510   0.04871   0.75381   0.00000  Uiso   1.00
C1095  C     0.20824   0.28463   0.91286   0.00000  Uiso   1.00
C1096  C     0.20824   0.04871   0.91286   0.00000  Uiso   1.00
C1097  C     0.12510   0.28463   0.75381   0.00000  Uiso   1.00
C1098  C     0.16650   0.16667   0.74032   0.00000  Uiso   1.00
C1099  C     0.16683   0.16667   0.92634   0.00000  Uiso   1.00
C1100  C     0.16661   0.16667   0.68855   0.00000  Uiso   1.00
C1101  C     0.16672   0.16667   0.97811   0.00000  Uiso   1.00
C1102  C     0.02070   0.12439   0.84200   0.00000  Uiso   1.00
C1103  C     0.31264   0.20895   0.82467   0.00000  Uiso   1.00
C1104  C     0.31264   0.12439   0.82467   0.00000  Uiso   1.00
Cu1105 Cu    0.16667   0.21355   0.83333   0.00000  Uiso   1.00
Cu1106 Cu    0.16667   0.11978   0.83333   0.00000  Uiso   1.00
H1107  H     0.06531   0.08685   0.89033   0.00000  Uiso   1.00
H1108  H     0.06531   0.24648   0.89033   0.00000  Uiso   1.00
H1109  H     0.04799   0.27725   0.83463   0.00000  Uiso   1.00
H1110  H     0.01545   0.27099   0.88578   0.00000  Uiso   1.00
H1111  H     0.07488   0.08362   0.72749   0.00000  Uiso   1.00
H1112  H     0.25845   0.24972   0.93918   0.00000  Uiso   1.00
H1113  H     0.25845   0.08362   0.93918   0.00000  Uiso   1.00
H1114  H     0.07488   0.24972   0.72749   0.00000  Uiso   1.00
H1115  H     0.01545   0.06234   0.88578   0.00000  Uiso   1.00
H1116  H     0.04799   0.05609   0.83463   0.00000  Uiso   1.00
H1117  H     0.26803   0.24648   0.77633   0.00000  Uiso   1.00
H1118  H     0.28534   0.27725   0.83203   0.00000  Uiso   1.00
H1119  H     0.31789   0.27099   0.78089   0.00000  Uiso   1.00
H1120  H     0.26803   0.08685   0.77633   0.00000  Uiso   1.00
H1121  H     0.31789   0.06234   0.78089   0.00000  Uiso   1.00
H1122  H     0.28534   0.05609   0.83203   0.00000  Uiso   1.00
N1123  N     0.16667   0.28402   0.83333   0.00000  Uiso   1.00
N1124  N     0.16667   0.04931   0.83333   0.00000  Uiso   1.00
O1125  O     0.10655   0.20625   0.83333   0.00000  Uiso   1.00
O1126  O     0.08644   0.06869   0.75906   0.00000  Uiso   1.00
O1127  O     0.19276   0.28422   0.95300   0.00000  Uiso   1.00
O1128  O     0.24689   0.26464   0.90761   0.00000  Uiso   1.00
O1129  O     0.19276   0.04911   0.95300   0.00000  Uiso   1.00
O1130  O     0.24689   0.06869   0.90761   0.00000  Uiso   1.00
O1131  O     0.14057   0.28422   0.71367   0.00000  Uiso   1.00
O1132  O     0.08644   0.26464   0.75906   0.00000  Uiso   1.00
O1133  O     0.22679   0.12709   0.83334   0.00000  Uiso   1.00
O1134  O     0.22679   0.20625   0.83334   0.00000  Uiso   1.00
O1135  O     0.10655   0.12709   0.83333   0.00000  Uiso   1.00
O1136  O     0.16667   0.20625   0.76280   0.00000  Uiso   1.00
O1137  O     0.16667   0.12708   0.90387   0.00000  Uiso   1.00
O1138  O     0.16667   0.20625   0.90387   0.00000  Uiso   1.00
O1139  O     0.16667   0.12708   0.76280   0.00000  Uiso   1.00
O1140  O     0.14057   0.04911   0.71367   0.00000  Uiso   1.00
C1141  C     0.42107   0.16667   0.83859   0.00000  Uiso   1.00
C1142  C     0.35403   0.20895   0.84200   0.00000  Uiso   1.00
C1143  C     0.62400   0.16667   0.82252   0.00000  Uiso   1.00
C1144  C     0.37600   0.16667   0.84415   0.00000  Uiso   1.00
C1145  C     0.47997   0.02468   0.79581   0.00000  Uiso   1.00
C1146  C     0.52003   0.30865   0.87086   0.00000  Uiso   1.00
C1147  C     0.52003   0.02468   0.87086   0.00000  Uiso   1.00
C1148  C     0.47997   0.30865   0.79581   0.00000  Uiso   1.00
C1149  C     0.37210   0.08005   0.86388   0.00000  Uiso   1.00
C1150  C     0.62790   0.25328   0.80278   0.00000  Uiso   1.00
C1151  C     0.62790   0.08005   0.80278   0.00000  Uiso   1.00
C1152  C     0.57893   0.16667   0.82808   0.00000  Uiso   1.00
C1153  C     0.37210   0.25328   0.86388   0.00000  Uiso   1.00
C1154  C     0.45843   0.04871   0.75381   0.00000  Uiso   1.00
C1155  C     0.54157   0.28463   0.91286   0.00000  Uiso   1.00
C1156  C     0.54157   0.04871   0.91286   0.00000  Uiso   1.00
C1157  C     0.45843   0.28463   0.75381   0.00000  Uiso   1.00
C1158  C     0.49983   0.16667   0.74032   0.00000  Uiso   1.00
C1159  C     0.50017   0.16667   0.92634   0.00000  Uiso   1.00
C1160  C     0.49994   0.16667   0.68855   0.00000  Uiso   1.00
C1161  C     0.50006   0.16667   0.97811   0.00000  Uiso   1.00
C1162  C     0.35403   0.12439   0.84200   0.00000  Uiso   1.00
C1163  C     0.64597   0.20895   0.82467   0.00000  Uiso   1.00
C1164  C     0.64597   0.12439   0.82467   0.00000  Uiso   1.00
Cu1165 Cu    0.50000   0.21355   0.83333   0.00000  Uiso   1.00
Cu1166 Cu    0.50000   0.11978   0.83333   0.00000  Uiso   1.00
H1167  H     0.39864   0.08685   0.89033   0.00000  Uiso   1.00
H1168  H     0.39864   0.24648   0.89033   0.00000  Uiso   1.00
H1169  H     0.38132   0.27725   0.83463   0.00000  Uiso   1.00
H1170  H     0.34878   0.27099   0.88578   0.00000  Uiso   1.00
H1171  H     0.40822   0.08362   0.72749   0.00000  Uiso   1.00
H1172  H     0.59178   0.24972   0.93918   0.00000  Uiso   1.00
H1173  H     0.59178   0.08362   0.93918   0.00000  Uiso   1.00
H1174  H     0.40822   0.24972   0.72749   0.00000  Uiso   1.00
H1175  H     0.34878   0.06234   0.88578   0.00000  Uiso   1.00
H1176  H     0.38132   0.05609   0.83463   0.00000  Uiso   1.00
H1177  H     0.60136   0.24648   0.77633   0.00000  Uiso   1.00
H1178  H     0.61868   0.27725   0.83203   0.00000  Uiso   1.00
H1179  H     0.65122   0.27099   0.78089   0.00000  Uiso   1.00
H1180  H     0.60136   0.08685   0.77633   0.00000  Uiso   1.00
H1181  H     0.65122   0.06234   0.78089   0.00000  Uiso   1.00
H1182  H     0.61868   0.05609   0.83203   0.00000  Uiso   1.00
N1183  N     0.50000   0.28402   0.83333   0.00000  Uiso   1.00
N1184  N     0.50000   0.04931   0.83333   0.00000  Uiso   1.00
O1185  O     0.43988   0.20625   0.83333   0.00000  Uiso   1.00
O1186  O     0.41977   0.06869   0.75906   0.00000  Uiso   1.00
O1187  O     0.52609   0.28422   0.95300   0.00000  Uiso   1.00
O1188  O     0.58023   0.26464   0.90761   0.00000  Uiso   1.00
O1189  O     0.52609   0.04911   0.95300   0.00000  Uiso   1.00
O1190  O     0.58023   0.06869   0.90761   0.00000  Uiso   1.00
O1191  O     0.47391   0.28422   0.71367   0.00000  Uiso   1.00
O1192  O     0.41977   0.26464   0.75906   0.00000  Uiso   1.00
O1193  O     0.56012   0.12709   0.83334   0.00000  Uiso   1.00
O1194  O     0.56012   0.20625   0.83334   0.00000  Uiso   1.00
O1195  O     0.43988   0.12709   0.83333   0.00000  Uiso   1.00
O1196  O     0.50000   0.20625   0.76280   0.00000  Uiso   1.00
O1197  O     0.50000   0.12708   0.90387   0.00000  Uiso   1.00
O1198  O     0.50000   0.20625   0.90387   0.00000  Uiso   1.00
O1199  O     0.50000   0.12708   0.76280   0.00000  Uiso   1.00
O1200  O     0.47391   0.04911   0.71367   0.00000  Uiso   1.00
C1201  C     0.75440   0.16667   0.83859   0.00000  Uiso   1.00
C1202  C     0.68736   0.20895   0.84200   0.00000  Uiso   1.00
C1203  C     0.95733   0.16667   0.82252   0.00000  Uiso   1.00
C1204  C     0.70934   0.16667   0.84415   0.00000  Uiso   1.00
C1205  C     0.81330   0.02468   0.79581   0.00000  Uiso   1.00
C1206  C     0.85337   0.30865   0.87086   0.00000  Uiso   1.00
C1207  C     0.85337   0.02468   0.87086   0.00000  Uiso   1.00
C1208  C     0.81330   0.30865   0.79581   0.00000  Uiso   1.00
C1209  C     0.70543   0.08005   0.86388   0.00000  Uiso   1.00
C1210  C     0.96124   0.25328   0.80278   0.00000  Uiso   1.00
C1211  C     0.96124   0.08005   0.80278   0.00000  Uiso   1.00
C1212  C     0.91227   0.16667   0.82808   0.00000  Uiso   1.00
C1213  C     0.70543   0.25328   0.86388   0.00000  Uiso   1.00
C1214  C     0.79176   0.04871   0.75381   0.00000  Uiso   1.00
C1215  C     0.87490   0.28463   0.91286   0.00000  Uiso   1.00
C1216  C     0.87490   0.04871   0.91286   0.00000  Uiso   1.00
C1217  C     0.79176   0.28463   0.75381   0.00000  Uiso   1.00
C1218  C     0.83317   0.16667   0.74032   0.00000  Uiso   1.00
C1219  C     0.83350   0.16667   0.92634   0.00000  Uiso   1.00
C1220  C     0.83328   0.16667   0.68855   0.00000  Uiso   1.00
C1221  C     0.83339   0.16667   0.97811   0.00000  Uiso   1.00
C1222  C     0.68736   0.12439   0.84200   0.00000  Uiso   1.00
C1223  C     0.97930   0.20895   0.82467   0.00000  Uiso   1.00
C1224  C     0.97930   0.12439   0.82467   0.00000  Uiso   1.00
Cu1225 Cu    0.83333   0.21355   0.83333   0.00000  Uiso   1.00
Cu1226 Cu    0.83333   0.11978   0.83333   0.00000  Uiso   1.00
H1227  H     0.73197   0.08685   0.89033   0.00000  Uiso   1.00
H1228  H     0.73197   0.24648   0.89033   0.00000  Uiso   1.00
H1229  H     0.71466   0.27725   0.83463   0.00000  Uiso   1.00
H1230  H     0.68211   0.27099   0.88578   0.00000  Uiso   1.00
H1231  H     0.74155   0.08362   0.72749   0.00000  Uiso   1.00
H1232  H     0.92511   0.24972   0.93918   0.00000  Uiso   1.00
H1233  H     0.92512   0.08362   0.93918   0.00000  Uiso   1.00
H1234  H     0.74155   0.24972   0.72749   0.00000  Uiso   1.00
H1235  H     0.68211   0.06234   0.88578   0.00000  Uiso   1.00
H1236  H     0.71466   0.05609   0.83463   0.00000  Uiso   1.00
H1237  H     0.93469   0.24648   0.77633   0.00000  Uiso   1.00
H1238  H     0.95201   0.27725   0.83203   0.00000  Uiso   1.00
H1239  H     0.98455   0.27099   0.78089   0.00000  Uiso   1.00
H1240  H     0.93469   0.08685   0.77633   0.00000  Uiso   1.00
H1241  H     0.98455   0.06234   0.78089   0.00000  Uiso   1.00
H1242  H     0.95201   0.05609   0.83203   0.00000  Uiso   1.00
N1243  N     0.83333   0.28402   0.83333   0.00000  Uiso   1.00
N1244  N     0.83333   0.04931   0.83333   0.00000  Uiso   1.00
O1245  O     0.77321   0.20625   0.83333   0.00000  Uiso   1.00
O1246  O     0.75311   0.06869   0.75906   0.00000  Uiso   1.00
O1247  O     0.85943   0.28422   0.95300   0.00000  Uiso   1.00
O1248  O     0.91356   0.26464   0.90761   0.00000  Uiso   1.00
O1249  O     0.85943   0.04911   0.95300   0.00000  Uiso   1.00
O1250  O     0.91356   0.06869   0.90761   0.00000  Uiso   1.00
O1251  O     0.80724   0.28422   0.71367   0.00000  Uiso   1.00
O1252  O     0.75311   0.26464   0.75906   0.00000  Uiso   1.00
O1253  O     0.89345   0.12709   0.83334   0.00000  Uiso   1.00
O1254  O     0.89345   0.20625   0.83334   0.00000  Uiso   1.00
O1255  O     0.77321   0.12709   0.83333   0.00000  Uiso   1.00
O1256  O     0.83333   0.20625   0.76280   0.00000  Uiso   1.00
O1257  O     0.83333   0.12708   0.90387   0.00000  Uiso   1.00
O1258  O     0.83333   0.20625   0.90387   0.00000  Uiso   1.00
O1259  O     0.83333   0.12708   0.76280   0.00000  Uiso   1.00
O1260  O     0.80724   0.04911   0.71367   0.00000  Uiso   1.00
C1261  C     0.08773   0.50000   0.83859   0.00000  Uiso   1.00
C1262  C     0.02070   0.54228   0.84200   0.00000  Uiso   1.00
C1263  C     0.29066   0.50000   0.82252   0.00000  Uiso   1.00
C1264  C     0.04267   0.50000   0.84415   0.00000  Uiso   1.00
C1265  C     0.14663   0.35801   0.79581   0.00000  Uiso   1.00
C1266  C     0.18670   0.64199   0.87086   0.00000  Uiso   1.00
C1267  C     0.18670   0.35801   0.87086   0.00000  Uiso   1.00
C1268  C     0.14663   0.64199   0.79581   0.00000  Uiso   1.00
C1269  C     0.03876   0.41338   0.86388   0.00000  Uiso   1.00
C1270  C     0.29457   0.58662   0.80278   0.00000  Uiso   1.00
C1271  C     0.29457   0.41338   0.80278   0.00000  Uiso   1.00
C1272  C     0.24560   0.50000   0.82808   0.00000  Uiso   1.00
C1273  C     0.03876   0.58662   0.86388   0.00000  Uiso   1.00
C1274  C     0.12510   0.38204   0.75381   0.00000  Uiso   1.00
C1275  C     0.20824   0.61796   0.91286   0.00000  Uiso   1.00
C1276  C     0.20824   0.38204   0.91286   0.00000  Uiso   1.00
C1277  C     0.12510   0.61796   0.75381   0.00000  Uiso   1.00
C1278  C     0.16650   0.50000   0.74032   0.00000  Uiso   1.00
C1279  C     0.16683   0.50000   0.92634   0.00000  Uiso   1.00
C1280  C     0.16661   0.50000   0.68855   0.00000  Uiso   1.00
C1281  C     0.16672   0.50000   0.97811   0.00000  Uiso   1.00
C1282  C     0.02070   0.45772   0.84200   0.00000  Uiso   1.00
C1283  C     0.31264   0.54228   0.82467   0.00000  Uiso   1.00
C1284  C     0.31264   0.45772   0.82467   0.00000  Uiso   1.00
Cu1285 Cu    0.16667   0.54689   0.83333   0.00000  Uiso   1.00
Cu1286 Cu    0.16667   0.45311   0.83333   0.00000  Uiso   1.00
H1287  H     0.06531   0.42019   0.89033   0.00000  Uiso   1.00
H1288  H     0.06531   0.57981   0.89033   0.00000  Uiso   1.00
H1289  H     0.04799   0.61058   0.83463   0.00000  Uiso   1.00
H1290  H     0.01545   0.60433   0.88578   0.00000  Uiso   1.00
H1291  H     0.07488   0.41695   0.72749   0.00000  Uiso   1.00
H1292  H     0.25845   0.58305   0.93918   0.00000  Uiso   1.00
H1293  H     0.25845   0.41695   0.93918   0.00000  Uiso   1.00
H1294  H     0.07488   0.58305   0.72749   0.00000  Uiso   1.00
H1295  H     0.01545   0.39567   0.88578   0.00000  Uiso   1.00
H1296  H     0.04799   0.38942   0.83463   0.00000  Uiso   1.00
H1297  H     0.26803   0.57981   0.77633   0.00000  Uiso   1.00
H1298  H     0.28534   0.61058   0.83203   0.00000  Uiso   1.00
H1299  H     0.31789   0.60433   0.78089   0.00000  Uiso   1.00
H1300  H     0.26803   0.42019   0.77633   0.00000  Uiso   1.00
H1301  H     0.31789   0.39567   0.78089   0.00000  Uiso   1.00
H1302  H     0.28534   0.38942   0.83203   0.00000  Uiso   1.00
N1303  N     0.16667   0.61736   0.83333   0.00000  Uiso   1.00
N1304  N     0.16667   0.38264   0.83333   0.00000  Uiso   1.00
O1305  O     0.10655   0.53958   0.83333   0.00000  Uiso   1.00
O1306  O     0.08644   0.40203   0.75906   0.00000  Uiso   1.00
O1307  O     0.19276   0.61756   0.95300   0.00000  Uiso   1.00
O1308  O     0.24689   0.59797   0.90761   0.00000  Uiso   1.00
O1309  O     0.19276   0.38245   0.95300   0.00000  Uiso   1.00
O1310  O     0.24689   0.40203   0.90761   0.00000  Uiso   1.00
O1311  O     0.14057   0.61756   0.71367   0.00000  Uiso   1.00
O1312  O     0.08644   0.59798   0.75906   0.00000  Uiso   1.00
O1313  O     0.22679   0.46042   0.83334   0.00000  Uiso   1.00
O1314  O     0.22679   0.53958   0.83334   0.00000  Uiso   1.00
O1315  O     0.10655   0.46042   0.83333   0.00000  Uiso   1.00
O1316  O     0.16667   0.53959   0.76280   0.00000  Uiso   1.00
O1317  O     0.16667   0.46041   0.90387   0.00000  Uiso   1.00
O1318  O     0.16667   0.53959   0.90387   0.00000  Uiso   1.00
O1319  O     0.16667   0.46041   0.76280   0.00000  Uiso   1.00
O1320  O     0.14057   0.38244   0.71367   0.00000  Uiso   1.00
C1321  C     0.42107   0.50000   0.83859   0.00000  Uiso   1.00
C1322  C     0.35403   0.54228   0.84200   0.00000  Uiso   1.00
C1323  C     0.62400   0.50000   0.82252   0.00000  Uiso   1.00
C1324  C     0.37600   0.50000   0.84415   0.00000  Uiso   1.00
C1325  C     0.47997   0.35801   0.79581   0.00000  Uiso   1.00
C1326  C     0.52003   0.64199   0.87086   0.00000  Uiso   1.00
C1327  C     0.52003   0.35801   0.87086   0.00000  Uiso   1.00
C1328  C     0.47997   0.64199   0.79581   0.00000  Uiso   1.00
C1329  C     0.37210   0.41338   0.86388   0.00000  Uiso   1.00
C1330  C     0.62790   0.58662   0.80278   0.00000  Uiso   1.00
C1331  C     0.62790   0.41338   0.80278   0.00000  Uiso   1.00
C1332  C     0.57893   0.50000   0.82808   0.00000  Uiso   1.00
C1333  C     0.37210   0.58662   0.86388   0.00000  Uiso   1.00
C1334  C     0.45843   0.38204   0.75381   0.00000  Uiso   1.00
C1335  C     0.54157   0.61796   0.91286   0.00000  Uiso   1.00
C1336  C     0.54157   0.38204   0.91286   0.00000  Uiso   1.00
C1337  C     0.45843   0.61796   0.75381   0.00000  Uiso   1.00
C1338  C     0.49983   0.50000   0.74032   0.00000  Uiso   1.00
C1339  C     0.50017   0.50000   0.92634   0.00000  Uiso   1.00
C1340  C     0.49994   0.50000   0.68855   0.00000  Uiso   1.00
C1341  C     0.50006   0.50000   0.97811   0.00000  Uiso   1.00
C1342  C     0.35403   0.45772   0.84200   0.00000  Uiso   1.00
C1343  C     0.64597   0.54228   0.82467   0.00000  Uiso   1.00
C1344  C     0.64597   0.45772   0.82467   0.00000  Uiso   1.00
Cu1345 Cu    0.50000   0.54689   0.83333   0.00000  Uiso   1.00
Cu1346 Cu    0.50000   0.45311   0.83333   0.00000  Uiso   1.00
H1347  H     0.39864   0.42019   0.89033   0.00000  Uiso   1.00
H1348  H     0.39864   0.57981   0.89033   0.00000  Uiso   1.00
H1349  H     0.38132   0.61058   0.83463   0.00000  Uiso   1.00
H1350  H     0.34878   0.60433   0.88578   0.00000  Uiso   1.00
H1351  H     0.40822   0.41695   0.72749   0.00000  Uiso   1.00
H1352  H     0.59178   0.58305   0.93918   0.00000  Uiso   1.00
H1353  H     0.59178   0.41695   0.93918   0.00000  Uiso   1.00
H1354  H     0.40822   0.58305   0.72749   0.00000  Uiso   1.00
H1355  H     0.34878   0.39567   0.88578   0.00000  Uiso   1.00
H1356  H     0.38132   0.38942   0.83463   0.00000  Uiso   1.00
H1357  H     0.60136   0.57981   0.77633   0.00000  Uiso   1.00
H1358  H     0.61868   0.61058   0.83203   0.00000  Uiso   1.00
H1359  H     0.65122   0.60433   0.78089   0.00000  Uiso   1.00
H1360  H     0.60136   0.42019   0.77633   0.00000  Uiso   1.00
H1361  H     0.65122   0.39567   0.78089   0.00000  Uiso   1.00
H1362  H     0.61868   0.38942   0.83203   0.00000  Uiso   1.00
N1363  N     0.50000   0.61736   0.83333   0.00000  Uiso   1.00
N1364  N     0.50000   0.38264   0.83333   0.00000  Uiso   1.00
O1365  O     0.43988   0.53958   0.83333   0.00000  Uiso   1.00
O1366  O     0.41977   0.40203   0.75906   0.00000  Uiso   1.00
O1367  O     0.52609   0.61756   0.95300   0.00000  Uiso   1.00
O1368  O     0.58023   0.59797   0.90761   0.00000  Uiso   1.00
O1369  O     0.52609   0.38245   0.95300   0.00000  Uiso   1.00
O1370  O     0.58023   0.40203   0.90761   0.00000  Uiso   1.00
O1371  O     0.47391   0.61756   0.71367   0.00000  Uiso   1.00
O1372  O     0.41977   0.59798   0.75906   0.00000  Uiso   1.00
O1373  O     0.56012   0.46042   0.83334   0.00000  Uiso   1.00
O1374  O     0.56012   0.53958   0.83334   0.00000  Uiso   1.00
O1375  O     0.43988   0.46042   0.83333   0.00000  Uiso   1.00
O1376  O     0.50000   0.53959   0.76280   0.00000  Uiso   1.00
O1377  O     0.50000   0.46041   0.90387   0.00000  Uiso   1.00
O1378  O     0.50000   0.53959   0.90387   0.00000  Uiso   1.00
O1379  O     0.50000   0.46041   0.76280   0.00000  Uiso   1.00
O1380  O     0.47391   0.38244   0.71367   0.00000  Uiso   1.00
C1381  C     0.75440   0.50000   0.83859   0.00000  Uiso   1.00
C1382  C     0.68736   0.54228   0.84200   0.00000  Uiso   1.00
C1383  C     0.95733   0.50000   0.82252   0.00000  Uiso   1.00
C1384  C     0.70934   0.50000   0.84415   0.00000  Uiso   1.00
C1385  C     0.81330   0.35801   0.79581   0.00000  Uiso   1.00
C1386  C     0.85337   0.64199   0.87086   0.00000  Uiso   1.00
C1387  C     0.85337   0.35801   0.87086   0.00000  Uiso   1.00
C1388  C     0.81330   0.64199   0.79581   0.00000  Uiso   1.00
C1389  C     0.70543   0.41338   0.86388   0.00000  Uiso   1.00
C1390  C     0.96124   0.58662   0.80278   0.00000  Uiso   1.00
C1391  C     0.96124   0.41338   0.80278   0.00000  Uiso   1.00
C1392  C     0.91227   0.50000   0.82808   0.00000  Uiso   1.00
C1393  C     0.70543   0.58662   0.86388   0.00000  Uiso   1.00
C1394  C     0.79176   0.38204   0.75381   0.00000  Uiso   1.00
C1395  C     0.87490   0.61796   0.91286   0.00000  Uiso   1.00
C1396  C     0.87490   0.38204   0.91286   0.00000  Uiso   1.00
C1397  C     0.79176   0.61796   0.75381   0.00000  Uiso   1.00
C1398  C     0.83317   0.50000   0.74032   0.00000  Uiso   1.00
C1399  C     0.83350   0.50000   0.92634   0.00000  Uiso   1.00
C1400  C     0.83328   0.50000   0.68855   0.00000  Uiso   1.00
C1401  C     0.83339   0.50000   0.97811   0.00000  Uiso   1.00
C1402  C     0.68736   0.45772   0.84200   0.00000  Uiso   1.00
C1403  C     0.97930   0.54228   0.82467   0.00000  Uiso   1.00
C1404  C     0.97930   0.45772   0.82467   0.00000  Uiso   1.00
Cu1405 Cu    0.83333   0.54689   0.83333   0.00000  Uiso   1.00
Cu1406 Cu    0.83333   0.45311   0.83333   0.00000  Uiso   1.00
H1407  H     0.73197   0.42019   0.89033   0.00000  Uiso   1.00
H1408  H     0.73197   0.57981   0.89033   0.00000  Uiso   1.00
H1409  H     0.71466   0.61058   0.83463   0.00000  Uiso   1.00
H1410  H     0.68211   0.60433   0.88578   0.00000  Uiso   1.00
H1411  H     0.74155   0.41695   0.72749   0.00000  Uiso   1.00
H1412  H     0.92511   0.58305   0.93918   0.00000  Uiso   1.00
H1413  H     0.92512   0.41695   0.93918   0.00000  Uiso   1.00
H1414  H     0.74155   0.58305   0.72749   0.00000  Uiso   1.00
H1415  H     0.68211   0.39567   0.88578   0.00000  Uiso   1.00
H1416  H     0.71466   0.38942   0.83463   0.00000  Uiso   1.00
H1417  H     0.93469   0.57981   0.77633   0.00000  Uiso   1.00
H1418  H     0.95201   0.61058   0.83203   0.00000  Uiso   1.00
H1419  H     0.98455   0.60433   0.78089   0.00000  Uiso   1.00
H1420  H     0.93469   0.42019   0.77633   0.00000  Uiso   1.00
H1421  H     0.98455   0.39567   0.78089   0.00000  Uiso   1.00
H1422  H     0.95201   0.38942   0.83203   0.00000  Uiso   1.00
N1423  N     0.83333   0.61736   0.83333   0.00000  Uiso   1.00
N1424  N     0.83333   0.38264   0.83333   0.00000  Uiso   1.00
O1425  O     0.77321   0.53958   0.83333   0.00000  Uiso   1.00
O1426  O     0.75311   0.40203   0.75906   0.00000  Uiso   1.00
O1427  O     0.85943   0.61756   0.95300   0.00000  Uiso   1.00
O1428  O     0.91356   0.59797   0.90761   0.00000  Uiso   1.00
O1429  O     0.85943   0.38245   0.95300   0.00000  Uiso   1.00
O1430  O     0.91356   0.40203   0.90761   0.00000  Uiso   1.00
O1431  O     0.80724   0.61756   0.71367   0.00000  Uiso   1.00
O1432  O     0.75311   0.59798   0.75906   0.00000  Uiso   1.00
O1433  O     0.89345   0.46042   0.83334   0.00000  Uiso   1.00
O1434  O     0.89345   0.53958   0.83334   0.00000  Uiso   1.00
O1435  O     0.77321   0.46042   0.83333   0.00000  Uiso   1.00
O1436  O     0.83333   0.53959   0.76280   0.00000  Uiso   1.00
O1437  O     0.83333   0.46041   0.90387   0.00000  Uiso   1.00
O1438  O     0.83333   0.53959   0.90387   0.00000  Uiso   1.00
O1439  O     0.83333   0.46041   0.76280   0.00000  Uiso   1.00
O1440  O     0.80724   0.38244   0.71367   0.00000  Uiso   1.00
C1441  C     0.08773   0.83333   0.83859   0.00000  Uiso   1.00
C1442  C     0.02070   0.87561   0.84200   0.00000  Uiso   1.00
C1443  C     0.29066   0.83333   0.82252   0.00000  Uiso   1.00
C1444  C     0.04267   0.83333   0.84415   0.00000  Uiso   1.00
C1445  C     0.14663   0.69135   0.79581   0.00000  Uiso   1.00
C1446  C     0.18670   0.97532   0.87086   0.00000  Uiso   1.00
C1447  C     0.18670   0.69135   0.87086   0.00000  Uiso   1.00
C1448  C     0.14663   0.97532   0.79581   0.00000  Uiso   1.00
C1449  C     0.03876   0.74672   0.86388   0.00000  Uiso   1.00
C1450  C     0.29457   0.91995   0.80278   0.00000  Uiso   1.00
C1451  C     0.29457   0.74672   0.80278   0.00000  Uiso   1.00
C1452  C     0.24560   0.83333   0.82808   0.00000  Uiso   1.00
C1453  C     0.03876   0.91995   0.86388   0.00000  Uiso   1.00
C1454  C     0.12510   0.71537   0.75381   0.00000  Uiso   1.00
C1455  C     0.20824   0.95129   0.91286   0.00000  Uiso   1.00
C1456  C     0.20824   0.71537   0.91286   0.00000  Uiso   1.00
C1457  C     0.12510   0.95129   0.75381   0.00000  Uiso   1.00
C1458  C     0.16650   0.83333   0.74032   0.00000  Uiso   1.00
C1459  C     0.16683   0.83333   0.92634   0.00000  Uiso   1.00
C1460  C     0.16661   0.83333   0.68855   0.00000  Uiso   1.00
C1461  C     0.16672   0.83333   0.97811   0.00000  Uiso   1.00
C1462  C     0.02070   0.79106   0.84200   0.00000  Uiso   1.00
C1463  C     0.31264   0.87561   0.82467   0.00000  Uiso   1.00
C1464  C     0.31264   0.79106   0.82467   0.00000  Uiso   1.00
Cu1465 Cu    0.16667   0.88022   0.83333   0.00000  Uiso   1.00
Cu1466 Cu    0.16667   0.78645   0.83333   0.00000  Uiso   1.00
H1467  H     0.06531   0.75352   0.89033   0.00000  Uiso   1.00
H1468  H     0.06531   0.91315   0.89033   0.00000  Uiso   1.00
H1469  H     0.04799   0.94391   0.83463   0.00000  Uiso   1.00
H1470  H     0.01545   0.93766   0.88578   0.00000  Uiso   1.00
H1471  H     0.07488   0.75028   0.72749   0.00000  Uiso   1.00
H1472  H     0.25845   0.91638   0.93918   0.00000  Uiso   1.00
H1473  H     0.25845   0.75028   0.93918   0.00000  Uiso   1.00
H1474  H     0.07488   0.91638   0.72749   0.00000  Uiso   1.00
H1475  H     0.01545   0.72901   0.88578   0.00000  Uiso   1.00
H1476  H     0.04799   0.72275   0.83463   0.00000  Uiso   1.00
H1477  H     0.26803   0.91315   0.77633   0.00000  Uiso   1.00
H1478  H     0.28534   0.94391   0.83203   0.00000  Uiso   1.00
H1479  H     0.31789   0.93766   0.78089   0.00000  Uiso   1.00
H1480  H     0.26803   0.75352   0.77633   0.00000  Uiso   1.00
H1481  H     0.31789   0.72901   0.78089   0.00000  Uiso   1.00
H1482  H     0.28534   0.72275   0.83203   0.00000  Uiso   1.00
N1483  N     0.16667   0.95069   0.83333   0.00000  Uiso   1.00
N1484  N     0.16667   0.71598   0.83333   0.00000  Uiso   1.00
O1485  O     0.10655   0.87291   0.83333   0.00000  Uiso   1.00
O1486  O     0.08644   0.73536   0.75906   0.00000  Uiso   1.00
O1487  O     0.19276   0.95089   0.95300   0.00000  Uiso   1.00
O1488  O     0.24689   0.93131   0.90761   0.00000  Uiso   1.00
O1489  O     0.19276   0.71578   0.95300   0.00000  Uiso   1.00
O1490  O     0.24689   0.73536   0.90761   0.00000  Uiso   1.00
O1491  O     0.14057   0.95089   0.71367   0.00000  Uiso   1.00
O1492  O     0.08644   0.93131   0.75906   0.00000  Uiso   1.00
O1493  O     0.22679   0.79375   0.83334   0.00000  Uiso   1.00
O1494  O     0.22679   0.87291   0.83334   0.00000  Uiso   1.00
O1495  O     0.10655   0.79375   0.83333   0.00000  Uiso   1.00
O1496  O     0.16667   0.87292   0.76280   0.00000  Uiso   1.00
O1497  O     0.16667   0.79375   0.90387   0.00000  Uiso   1.00
O1498  O     0.16667   0.87292   0.90387   0.00000  Uiso   1.00
O1499  O     0.16667   0.79375   0.76280   0.00000  Uiso   1.00
O1500  O     0.14057   0.71578   0.71367   0.00000  Uiso   1.00
C1501  C     0.42107   0.83333   0.83859   0.00000  Uiso   1.00
C1502  C     0.35403   0.87561   0.84200   0.00000  Uiso   1.00
C1503  C     0.62400   0.83333   0.82252   0.00000  Uiso   1.00
C1504  C     0.37600   0.83333   0.84415   0.00000  Uiso   1.00
C1505  C     0.47997   0.69135   0.79581   0.00000  Uiso   1.00
C1506  C     0.52003   0.97532   0.87086   0.00000  Uiso   1.00
C1507  C     0.52003   0.69135   0.87086   0.00000  Uiso   1.00
C1508  C     0.47997   0.97532   0.79581   0.00000  Uiso   1.00
C1509  C     0.37210   0.74672   0.86388   0.00000  Uiso   1.00
C1510  C     0.62790   0.91995   0.80278   0.00000  Uiso   1.00
C1511  C     0.62790   0.74672   0.80278   0.00000  Uiso   1.00
C1512  C     0.57893   0.83333   0.82808   0.00000  Uiso   1.00
C1513  C     0.37210   0.91995   0.86388   0.00000  Uiso   1.00
C1514  C     0.45843   0.71537   0.75381   0.00000  Uiso   1.00
C1515  C     0.54157   0.95129   0.91286   0.00000  Uiso   1.00
C1516  C     0.54157   0.71537   0.91286   0.00000  Uiso   1.00
C1517  C     0.45843   0.95129   0.75381   0.00000  Uiso   1.00
C1518  C     0.49983   0.83333   0.74032   0.00000  Uiso   1.00
C1519  C     0.50017   0.83333   0.92634   0.00000  Uiso   1.00
C1520  C     0.49994   0.83333   0.68855   0.00000  Uiso   1.00
C1521  C     0.50006   0.83333   0.97811   0.00000  Uiso   1.00
C1522  C     0.35403   0.79106   0.84200   0.00000  Uiso   1.00
C1523  C     0.64597   0.87561   0.82467   0.00000  Uiso   1.00
C1524  C     0.64597   0.79106   0.82467   0.00000  Uiso   1.00
Cu1525 Cu    0.50000   0.88022   0.83333   0.00000  Uiso   1.00
Cu1526 Cu    0.50000   0.78645   0.83333   0.00000  Uiso   1.00
H1527  H     0.39864   0.75352   0.89033   0.00000  Uiso   1.00
H1528  H     0.39864   0.91315   0.89033   0.00000  Uiso   1.00
H1529  H     0.38132   0.94391   0.83463   0.00000  Uiso   1.00
H1530  H     0.34878   0.93766   0.88578   0.00000  Uiso   1.00
H1531  H     0.40822   0.75028   0.72749   0.00000  Uiso   1.00
H1532  H     0.59178   0.91638   0.93918   0.00000  Uiso   1.00
H1533  H     0.59178   0.75028   0.93918   0.00000  Uiso   1.00
H1534  H     0.40822   0.91638   0.72749   0.00000  Uiso   1.00
H1535  H     0.34878   0.72901   0.88578   0.00000  Uiso   1.00
H1536  H     0.38132   0.72275   0.83463   0.00000  Uiso   1.00
H1537  H     0.60136   0.91315   0.77633   0.00000  Uiso   1.00
H1538  H     0.61868   0.94391   0.83203   0.00000  Uiso   1.00
H1539  H     0.65122   0.93766   0.78089   0.00000  Uiso   1.00
H1540  H     0.60136   0.75352   0.77633   0.00000  Uiso   1.00
H1541  H     0.65122   0.72901   0.78089   0.00000  Uiso   1.00
H1542  H     0.61868   0.72275   0.83203   0.00000  Uiso   1.00
N1543  N     0.50000   0.95069   0.83333   0.00000  Uiso   1.00
N1544  N     0.50000   0.71598   0.83333   0.00000  Uiso   1.00
O1545  O     0.43988   0.87291   0.83333   0.00000  Uiso   1.00
O1546  O     0.41977   0.73536   0.75906   0.00000  Uiso   1.00
O1547  O     0.52609   0.95089   0.95300   0.00000  Uiso   1.00
O1548  O     0.58023   0.93131   0.90761   0.00000  Uiso   1.00
O1549  O     0.52609   0.71578   0.95300   0.00000  Uiso   1.00
O1550  O     0.58023   0.73536   0.90761   0.00000  Uiso   1.00
O1551  O     0.47391   0.95089   0.71367   0.00000  Uiso   1.00
O1552  O     0.41977   0.93131   0.75906   0.00000  Uiso   1.00
O1553  O     0.56012   0.79375   0.83334   0.00000  Uiso   1.00
O1554  O     0.56012   0.87291   0.83334   0.00000  Uiso   1.00
O1555  O     0.43988   0.79375   0.83333   0.00000  Uiso   1.00
O1556  O     0.50000   0.87292   0.76280   0.00000  Uiso   1.00
O1557  O     0.50000   0.79375   0.90387   0.00000  Uiso   1.00
O1558  O     0.50000   0.87292   0.90387   0.00000  Uiso   1.00
O1559  O     0.50000   0.79375   0.76280   0.00000  Uiso   1.00
O1560  O     0.47391   0.71578   0.71367   0.00000  Uiso   1.00
C1561  C     0.75440   0.83333   0.83859   0.00000  Uiso   1.00
C1562  C     0.68736   0.87561   0.84200   0.00000  Uiso   1.00
C1563  C     0.95733   0.83333   0.82252   0.00000  Uiso   1.00
C1564  C     0.70934   0.83333   0.84415   0.00000  Uiso   1.00
C1565  C     0.81330   0.69135   0.79581   0.00000  Uiso   1.00
C1566  C     0.85337   0.97532   0.87086   0.00000  Uiso   1.00
C1567  C     0.85337   0.69135   0.87086   0.00000  Uiso   1.00
C1568  C     0.81330   0.97532   0.79581   0.00000  Uiso   1.00
C1569  C     0.70543   0.74672   0.86388   0.00000  Uiso   1.00
C1570  C     0.96124   0.91995   0.80278   0.00000  Uiso   1.00
C1571  C     0.96124   0.74672   0.80278   0.00000  Uiso   1.00
C1572  C     0.91227   0.83333   0.82808   0.00000  Uiso   1.00
C1573  C     0.70543   0.91995   0.86388   0.00000  Uiso   1.00
C1574  C     0.79176   0.71537   0.75381   0.00000  Uiso   1.00
C1575  C     0.87490   0.95129   0.91286   0.00000  Uiso   1.00
C1576  C     0.87490   0.71537   0.91286   0.00000  Uiso   1.00
C1577  C     0.79176   0.95129   0.75381   0.00000  Uiso   1.00
C1578  C     0.83317   0.83333   0.74032   0.00000  Uiso   1.00
C1579  C     0.83350   0.83333   0.92634   0.00000  Uiso   1.00
C1580  C     0.83328   0.83333   0.68855   0.00000  Uiso   1.00
C1581  C     0.83339   0.83333   0.97811   0.00000  Uiso   1.00
C1582  C     0.68736   0.79106   0.84200   0.00000  Uiso   1.00
C1583  C     0.97930   0.87561   0.82467   0.00000  Uiso   1.00
C1584  C     0.97930   0.79106   0.82467   0.00000  Uiso   1.00
Cu1585 Cu    0.83333   0.88022   0.83333   0.00000  Uiso   1.00
Cu1586 Cu    0.83333   0.78645   0.83333   0.00000  Uiso   1.00
H1587  H     0.73197   0.75352   0.89033   0.00000  Uiso   1.00
H1588  H     0.73197   0.91315   0.89033   0.00000  Uiso   1.00
H1589  H     0.71466   0.94391   0.83463   0.00000  Uiso   1.00
H1590  H     0.68211   0.93766   0.88578   0.00000  Uiso   1.00
H1591  H     0.74155   0.75028   0.72749   0.00000  Uiso   1.00
H1592  H     0.92511   0.91638   0.93918   0.00000  Uiso   1.00
H1593  H     0.92512   0.75028   0.93918   0.00000  Uiso   1.00
H1594  H     0.74155   0.91638   0.72749   0.00000  Uiso   1.00
H1595  H     0.68211   0.72901   0.88578   0.00000  Uiso   1.00
H1596  H     0.71466   0.72275   0.83463   0.00000  Uiso   1.00
H1597  H     0.93469   0.91315   0.77633   0.00000  Uiso   1.00
H1598  H     0.95201   0.94391   0.83203   0.00000  Uiso   1.00
H1599  H     0.98455   0.93766   0.78089   0.00000  Uiso   1.00
H1600  H     0.93469   0.75352   0.77633   0.00000  Uiso   1.00
H1601  H     0.98455   0.72901   0.78089   0.00000  Uiso   1.00
H1602  H     0.95201   0.72275   0.83203   0.00000  Uiso   1.00
N1603  N     0.83333   0.95069   0.83333   0.00000  Uiso   1.00
N1604  N     0.83333   0.71598   0.83333   0.00000  Uiso   1.00
O1605  O     0.77321   0.87291   0.83333   0.00000  Uiso   1.00
O1606  O     0.75311   0.73536   0.75906   0.00000  Uiso   1.00
O1607  O     0.85943   0.95089   0.95300   0.00000  Uiso   1.00
O1608  O     0.91356   0.93131   0.90761   0.00000  Uiso   1.00
O1609  O     0.85943   0.71578   0.95300   0.00000  Uiso   1.00
O1610  O     0.91356   0.73536   0.90761   0.00000  Uiso   1.00
O1611  O     0.80724   0.95089   0.71367   0.00000  Uiso   1.00
O1612  O     0.75311   0.93131   0.75906   0.00000  Uiso   1.00
O1613  O     0.89345   0.79375   0.83334   0.00000  Uiso   1.00
O1614  O     0.89345   0.87291   0.83334   0.00000  Uiso   1.00
O1615  O     0.77321   0.79375   0.83333   0.00000  Uiso   1.00
O1616  O     0.83333   0.87292   0.76280   0.00000  Uiso   1.00
O1617  O     0.83333   0.79375   0.90387   0.00000  Uiso   1.00
O1618  O     0.83333   0.87292   0.90387   0.00000  Uiso   1.00
O1619  O     0.83333   0.79375   0.76280   0.00000  Uiso   1.00
O1620  O     0.80724   0.71578   0.71367   0.00000  Uiso   1.00
loop_
_geom_bond_atom_site_label_1
_geom_bond_atom_site_label_2
_geom_bond_distance
_geom_bond_site_symmetry_2
_ccdc_geom_bond_type
C1     C4      1.477   .     S
C1     O55     1.308   .     A
C1     O45     1.308   .     A
C2     C4      1.415   .     A
C2     C13     1.518   .     S
C2     C143    1.399   1_455 S
C3     C12     1.477   .     S
C3     C23     1.415   .     A
C3     C24     1.415   .     A
C4     C22     1.415   .     A
C5     C14     1.479   .     S
C5     N44     1.378   .     A
C5     C368    1.427   1_545 S
C6     N43     1.378   .     A
C6     C15     1.479   .     S
C6     C187    1.427   .     S
C7     N44     1.378   .     A
C7     C16     1.479   .     S
C7     C366    1.427   1_545 S
C8     C17     1.479   .     S
C8     N43     1.378   .     A
C8     C185    1.427   .     S
C9     H36     1.107   .     S
C9     C22     1.518   .     S
C9     H27     1.110   .     S
C9     H35     1.111   .     S
C10    C23     1.518   .     S
C10    H38     1.107   .     S
C10    H37     1.110   .     S
C10    H39     1.111   .     S
C11    C24     1.518   .     S
C11    H42     1.107   .     S
C11    H41     1.111   .     S
C11    H40     1.110   .     S
C12    O54     1.308   .     A
C12    O53     1.308   .     A
C13    H28     1.110   .     S
C13    H29     1.107   .     S
C13    H30     1.111   .     S
C14    O60     1.223   .     D
C14    O46     1.394   .     S
C15    O47     1.223   .     D
C15    O48     1.394   .     S
C16    O50     1.394   .     S
C16    O49     1.223   .     D
C17    O52     1.394   .     S
C17    O51     1.223   .     D
C18    O56     1.297   .     A
C18    C20     1.406   .     S
C18    O59     1.297   .     A
C19    O57     1.297   .     A
C19    C21     1.406   .     S
C19    O58     1.297   .     A
C20    C1101   1.188   1_554 S
C21    C560    1.188   .     S
C22    C144    1.399   1_455 S
C23    C62     1.399   .     S
C24    C82     1.399   .     S
Cu25   O56     1.926   .     S
Cu25   N43     2.037   .     S
Cu25   O58     1.926   .     S
Cu25   O45     1.961   .     S
Cu25   O54     1.961   .     S
Cu25   Cu26    2.711   .     S
Cu26   O59     1.926   .     S
Cu26   O55     1.961   .     S
Cu26   N44     2.037   .     S
Cu26   O57     1.926   .     S
Cu26   O53     1.961   .     S
H31    O46     1.014   .     S
H32    O48     1.014   .     S
H33    O50     1.014   .     S
H34    O52     1.014   .     S
C61    C64     1.477   .     S
C61    O115    1.308   .     A
C61    O105    1.308   .     A
C62    C64     1.415   .     A
C62    C73     1.518   .     S
C63    C72     1.477   .     S
C63    C83     1.415   .     A
C63    C84     1.415   .     A
C64    C82     1.415   .     A
C65    C74     1.479   .     S
C65    N104    1.378   .     A
C65    C428    1.427   1_545 S
C66    N103    1.378   .     A
C66    C75     1.479   .     S
C66    C247    1.427   .     S
C67    N104    1.378   .     A
C67    C76     1.479   .     S
C67    C426    1.427   1_545 S
C68    C77     1.479   .     S
C68    N103    1.378   .     A
C68    C245    1.427   .     S
C69    H96     1.107   .     S
C69    C82     1.518   .     S
C69    H87     1.110   .     S
C69    H95     1.111   .     S
C70    C83     1.518   .     S
C70    H98     1.107   .     S
C70    H97     1.110   .     S
C70    H99     1.111   .     S
C71    C84     1.518   .     S
C71    H102    1.107   .     S
C71    H101    1.111   .     S
C71    H100    1.110   .     S
C72    O114    1.308   .     A
C72    O113    1.308   .     A
C73    H88     1.110   .     S
C73    H89     1.107   .     S
C73    H90     1.111   .     S
C74    O120    1.223   .     D
C74    O106    1.394   .     S
C75    O107    1.223   .     D
C75    O108    1.394   .     S
C76    O110    1.394   .     S
C76    O109    1.223   .     D
C77    O112    1.394   .     S
C77    O111    1.223   .     D
C78    O116    1.297   .     A
C78    C80     1.406   .     S
C78    O119    1.297   .     A
C79    O117    1.297   .     A
C79    C81     1.406   .     S
C79    O118    1.297   .     A
C80    C1161   1.188   1_554 S
C81    C620    1.188   .     S
C83    C122    1.399   .     S
C84    C142    1.399   .     S
Cu85   O116    1.926   .     S
Cu85   N103    2.037   .     S
Cu85   O118    1.926   .     S
Cu85   O105    1.961   .     S
Cu85   O114    1.961   .     S
Cu85   Cu86    2.711   .     S
Cu86   O119    1.926   .     S
Cu86   O115    1.961   .     S
Cu86   N104    2.037   .     S
Cu86   O117    1.926   .     S
Cu86   O113    1.961   .     S
H91    O106    1.014   .     S
H92    O108    1.014   .     S
H93    O110    1.014   .     S
H94    O112    1.014   .     S
C121   C124    1.477   .     S
C121   O175    1.308   .     A
C121   O165    1.308   .     A
C122   C124    1.415   .     A
C122   C133    1.518   .     S
C123   C132    1.477   .     S
C123   C143    1.415   .     A
C123   C144    1.415   .     A
C124   C142    1.415   .     A
C125   C134    1.479   .     S
C125   N164    1.378   .     A
C125   C488    1.427   1_545 S
C126   N163    1.378   .     A
C126   C135    1.479   .     S
C126   C307    1.427   .     S
C127   N164    1.378   .     A
C127   C136    1.479   .     S
C127   C486    1.427   1_545 S
C128   C137    1.479   .     S
C128   N163    1.378   .     A
C128   C305    1.427   .     S
C129   H156    1.107   .     S
C129   C142    1.518   .     S
C129   H147    1.110   .     S
C129   H155    1.111   .     S
C130   C143    1.518   .     S
C130   H158    1.107   .     S
C130   H157    1.110   .     S
C130   H159    1.111   .     S
C131   C144    1.518   .     S
C131   H162    1.107   .     S
C131   H161    1.111   .     S
C131   H160    1.110   .     S
C132   O174    1.308   .     A
C132   O173    1.308   .     A
C133   H148    1.110   .     S
C133   H149    1.107   .     S
C133   H150    1.111   .     S
C134   O180    1.223   .     D
C134   O166    1.394   .     S
C135   O167    1.223   .     D
C135   O168    1.394   .     S
C136   O170    1.394   .     S
C136   O169    1.223   .     D
C137   O172    1.394   .     S
C137   O171    1.223   .     D
C138   O176    1.297   .     A
C138   C140    1.406   .     S
C138   O179    1.297   .     A
C139   O177    1.297   .     A
C139   C141    1.406   .     S
C139   O178    1.297   .     A
C140   C1221   1.188   1_554 S
C141   C680    1.188   .     S
C143   C2      1.399   1_655 S
C144   C22     1.399   1_655 S
Cu145  O176    1.926   .     S
Cu145  N163    2.037   .     S
Cu145  O178    1.926   .     S
Cu145  O165    1.961   .     S
Cu145  O174    1.961   .     S
Cu145  Cu146   2.711   .     S
Cu146  O179    1.926   .     S
Cu146  O175    1.961   .     S
Cu146  N164    2.037   .     S
Cu146  O177    1.926   .     S
Cu146  O173    1.961   .     S
H151   O166    1.014   .     S
H152   O168    1.014   .     S
H153   O170    1.014   .     S
H154   O172    1.014   .     S
C181   C184    1.477   .     S
C181   O235    1.308   .     A
C181   O225    1.308   .     A
C182   C184    1.415   .     A
C182   C193    1.518   .     S
C182   C323    1.399   1_455 S
C183   C192    1.477   .     S
C183   C203    1.415   .     A
C183   C204    1.415   .     A
C184   C202    1.415   .     A
C185   C194    1.479   .     S
C185   N224    1.378   .     A
C186   N223    1.378   .     A
C186   C195    1.479   .     S
C186   C367    1.427   .     S
C187   N224    1.378   .     A
C187   C196    1.479   .     S
C188   C197    1.479   .     S
C188   N223    1.378   .     A
C188   C365    1.427   .     S
C189   H216    1.107   .     S
C189   C202    1.518   .     S
C189   H207    1.110   .     S
C189   H215    1.111   .     S
C190   C203    1.518   .     S
C190   H218    1.107   .     S
C190   H217    1.110   .     S
C190   H219    1.111   .     S
C191   C204    1.518   .     S
C191   H222    1.107   .     S
C191   H221    1.111   .     S
C191   H220    1.110   .     S
C192   O234    1.308   .     A
C192   O233    1.308   .     A
C193   H208    1.110   .     S
C193   H209    1.107   .     S
C193   H210    1.111   .     S
C194   O240    1.223   .     D
C194   O226    1.394   .     S
C195   O227    1.223   .     D
C195   O228    1.394   .     S
C196   O230    1.394   .     S
C196   O229    1.223   .     D
C197   O232    1.394   .     S
C197   O231    1.223   .     D
C198   O236    1.297   .     A
C198   C200    1.406   .     S
C198   O239    1.297   .     A
C199   O237    1.297   .     A
C199   C201    1.406   .     S
C199   O238    1.297   .     A
C200   C1281   1.188   1_554 S
C201   C740    1.188   .     S
C202   C324    1.399   1_455 S
C203   C242    1.399   .     S
C204   C262    1.399   .     S
Cu205  O236    1.926   .     S
Cu205  N223    2.037   .     S
Cu205  O238    1.926   .     S
Cu205  O225    1.961   .     S
Cu205  O234    1.961   .     S
Cu205  Cu206   2.711   .     S
Cu206  O239    1.926   .     S
Cu206  O235    1.961   .     S
Cu206  N224    2.037   .     S
Cu206  O237    1.926   .     S
Cu206  O233    1.961   .     S
H211   O226    1.014   .     S
H212   O228    1.014   .     S
H213   O230    1.014   .     S
H214   O232    1.014   .     S
C241   C244    1.477   .     S
C241   O295    1.308   .     A
C241   O285    1.308   .     A
C242   C244    1.415   .     A
C242   C253    1.518   .     S
C243   C252    1.477   .     S
C243   C263    1.415   .     A
C243   C264    1.415   .     A
C244   C262    1.415   .     A
C245   C254    1.479   .     S
C245   N284    1.378   .     A
C246   N283    1.378   .     A
C246   C255    1.479   .     S
C246   C427    1.427   .     S
C247   N284    1.378   .     A
C247   C256    1.479   .     S
C248   C257    1.479   .     S
C248   N283    1.378   .     A
C248   C425    1.427   .     S
C249   H276    1.107   .     S
C249   C262    1.518   .     S
C249   H267    1.110   .     S
C249   H275    1.111   .     S
C250   C263    1.518   .     S
C250   H278    1.107   .     S
C250   H277    1.110   .     S
C250   H279    1.111   .     S
C251   C264    1.518   .     S
C251   H282    1.107   .     S
C251   H281    1.111   .     S
C251   H280    1.110   .     S
C252   O294    1.308   .     A
C252   O293    1.308   .     A
C253   H268    1.110   .     S
C253   H269    1.107   .     S
C253   H270    1.111   .     S
C254   O300    1.223   .     D
C254   O286    1.394   .     S
C255   O287    1.223   .     D
C255   O288    1.394   .     S
C256   O290    1.394   .     S
C256   O289    1.223   .     D
C257   O292    1.394   .     S
C257   O291    1.223   .     D
C258   O296    1.297   .     A
C258   C260    1.406   .     S
C258   O299    1.297   .     A
C259   O297    1.297   .     A
C259   C261    1.406   .     S
C259   O298    1.297   .     A
C260   C1341   1.188   1_554 S
C261   C800    1.188   .     S
C263   C302    1.399   .     S
C264   C322    1.399   .     S
Cu265  O296    1.926   .     S
Cu265  N283    2.037   .     S
Cu265  O298    1.926   .     S
Cu265  O285    1.961   .     S
Cu265  O294    1.961   .     S
Cu265  Cu266   2.711   .     S
Cu266  O299    1.926   .     S
Cu266  O295    1.961   .     S
Cu266  N284    2.037   .     S
Cu266  O297    1.926   .     S
Cu266  O293    1.961   .     S
H271   O286    1.014   .     S
H272   O288    1.014   .     S
H273   O290    1.014   .     S
H274   O292    1.014   .     S
C301   C304    1.477   .     S
C301   O355    1.308   .     A
C301   O345    1.308   .     A
C302   C304    1.415   .     A
C302   C313    1.518   .     S
C303   C312    1.477   .     S
C303   C323    1.415   .     A
C303   C324    1.415   .     A
C304   C322    1.415   .     A
C305   C314    1.479   .     S
C305   N344    1.378   .     A
C306   N343    1.378   .     A
C306   C315    1.479   .     S
C306   C487    1.427   .     S
C307   N344    1.378   .     A
C307   C316    1.479   .     S
C308   C317    1.479   .     S
C308   N343    1.378   .     A
C308   C485    1.427   .     S
C309   H336    1.107   .     S
C309   C322    1.518   .     S
C309   H327    1.110   .     S
C309   H335    1.111   .     S
C310   C323    1.518   .     S
C310   H338    1.107   .     S
C310   H337    1.110   .     S
C310   H339    1.111   .     S
C311   C324    1.518   .     S
C311   H342    1.107   .     S
C311   H341    1.111   .     S
C311   H340    1.110   .     S
C312   O354    1.308   .     A
C312   O353    1.308   .     A
C313   H328    1.110   .     S
C313   H329    1.107   .     S
C313   H330    1.111   .     S
C314   O360    1.223   .     D
C314   O346    1.394   .     S
C315   O347    1.223   .     D
C315   O348    1.394   .     S
C316   O350    1.394   .     S
C316   O349    1.223   .     D
C317   O352    1.394   .     S
C317   O351    1.223   .     D
C318   O356    1.297   .     A
C318   C320    1.406   .     S
C318   O359    1.297   .     A
C319   O357    1.297   .     A
C319   C321    1.406   .     S
C319   O358    1.297   .     A
C320   C1401   1.188   1_554 S
C321   C860    1.188   .     S
C323   C182    1.399   1_655 S
C324   C202    1.399   1_655 S
Cu325  O356    1.926   .     S
Cu325  N343    2.037   .     S
Cu325  O358    1.926   .     S
Cu325  O345    1.961   .     S
Cu325  O354    1.961   .     S
Cu325  Cu326   2.711   .     S
Cu326  O359    1.926   .     S
Cu326  O355    1.961   .     S
Cu326  N344    2.037   .     S
Cu326  O357    1.926   .     S
Cu326  O353    1.961   .     S
H331   O346    1.014   .     S
H332   O348    1.014   .     S
H333   O350    1.014   .     S
H334   O352    1.014   .     S
C361   C364    1.477   .     S
C361   O415    1.308   .     A
C361   O405    1.308   .     A
C362   C364    1.415   .     A
C362   C373    1.518   .     S
C362   C503    1.399   1_455 S
C363   C372    1.477   .     S
C363   C383    1.415   .     A
C363   C384    1.415   .     A
C364   C382    1.415   .     A
C365   C374    1.479   .     S
C365   N404    1.378   .     A
C366   N403    1.378   .     A
C366   C375    1.479   .     S
C366   C7      1.427   1_565 S
C367   N404    1.378   .     A
C367   C376    1.479   .     S
C368   C377    1.479   .     S
C368   N403    1.378   .     A
C368   C5      1.427   1_565 S
C369   H396    1.107   .     S
C369   C382    1.518   .     S
C369   H387    1.110   .     S
C369   H395    1.111   .     S
C370   C383    1.518   .     S
C370   H398    1.107   .     S
C370   H397    1.110   .     S
C370   H399    1.111   .     S
C371   C384    1.518   .     S
C371   H402    1.107   .     S
C371   H401    1.111   .     S
C371   H400    1.110   .     S
C372   O414    1.308   .     A
C372   O413    1.308   .     A
C373   H388    1.110   .     S
C373   H389    1.107   .     S
C373   H390    1.111   .     S
C374   O420    1.223   .     D
C374   O406    1.394   .     S
C375   O407    1.223   .     D
C375   O408    1.394   .     S
C376   O410    1.394   .     S
C376   O409    1.223   .     D
C377   O412    1.394   .     S
C377   O411    1.223   .     D
C378   O416    1.297   .     A
C378   C380    1.406   .     S
C378   O419    1.297   .     A
C379   O417    1.297   .     A
C379   C381    1.406   .     S
C379   O418    1.297   .     A
C380   C1461   1.188   1_554 S
C381   C920    1.188   .     S
C382   C504    1.399   1_455 S
C383   C422    1.399   .     S
C384   C442    1.399   .     S
Cu385  O416    1.926   .     S
Cu385  N403    2.037   .     S
Cu385  O418    1.926   .     S
Cu385  O405    1.961   .     S
Cu385  O414    1.961   .     S
Cu385  Cu386   2.711   .     S
Cu386  O419    1.926   .     S
Cu386  O415    1.961   .     S
Cu386  N404    2.037   .     S
Cu386  O417    1.926   .     S
Cu386  O413    1.961   .     S
H391   O406    1.014   .     S
H392   O408    1.014   .     S
H393   O410    1.014   .     S
H394   O412    1.014   .     S
C421   C424    1.477   .     S
C421   O475    1.308   .     A
C421   O465    1.308   .     A
C422   C424    1.415   .     A
C422   C433    1.518   .     S
C423   C432    1.477   .     S
C423   C443    1.415   .     A
C423   C444    1.415   .     A
C424   C442    1.415   .     A
C425   C434    1.479   .     S
C425   N464    1.378   .     A
C426   N463    1.378   .     A
C426   C435    1.479   .     S
C426   C67     1.427   1_565 S
C427   N464    1.378   .     A
C427   C436    1.479   .     S
C428   C437    1.479   .     S
C428   N463    1.378   .     A
C428   C65     1.427   1_565 S
C429   H456    1.107   .     S
C429   C442    1.518   .     S
C429   H447    1.110   .     S
C429   H455    1.111   .     S
C430   C443    1.518   .     S
C430   H458    1.107   .     S
C430   H457    1.110   .     S
C430   H459    1.111   .     S
C431   C444    1.518   .     S
C431   H462    1.107   .     S
C431   H461    1.111   .     S
C431   H460    1.110   .     S
C432   O474    1.308   .     A
C432   O473    1.308   .     A
C433   H448    1.110   .     S
C433   H449    1.107   .     S
C433   H450    1.111   .     S
C434   O480    1.223   .     D
C434   O466    1.394   .     S
C435   O467    1.223   .     D
C435   O468    1.394   .     S
C436   O470    1.394   .     S
C436   O469    1.223   .     D
C437   O472    1.394   .     S
C437   O471    1.223   .     D
C438   O476    1.297   .     A
C438   C440    1.406   .     S
C438   O479    1.297   .     A
C439   O477    1.297   .     A
C439   C441    1.406   .     S
C439   O478    1.297   .     A
C440   C1521   1.188   1_554 S
C441   C980    1.188   .     S
C443   C482    1.399   .     S
C444   C502    1.399   .     S
Cu445  O476    1.926   .     S
Cu445  N463    2.037   .     S
Cu445  O478    1.926   .     S
Cu445  O465    1.961   .     S
Cu445  O474    1.961   .     S
Cu445  Cu446   2.711   .     S
Cu446  O479    1.926   .     S
Cu446  O475    1.961   .     S
Cu446  N464    2.037   .     S
Cu446  O477    1.926   .     S
Cu446  O473    1.961   .     S
H451   O466    1.014   .     S
H452   O468    1.014   .     S
H453   O470    1.014   .     S
H454   O472    1.014   .     S
C481   C484    1.477   .     S
C481   O535    1.308   .     A
C481   O525    1.308   .     A
C482   C484    1.415   .     A
C482   C493    1.518   .     S
C483   C492    1.477   .     S
C483   C503    1.415   .     A
C483   C504    1.415   .     A
C484   C502    1.415   .     A
C485   C494    1.479   .     S
C485   N524    1.378   .     A
C486   N523    1.378   .     A
C486   C495    1.479   .     S
C486   C127    1.427   1_565 S
C487   N524    1.378   .     A
C487   C496    1.479   .     S
C488   C497    1.479   .     S
C488   N523    1.378   .     A
C488   C125    1.427   1_565 S
C489   H516    1.107   .     S
C489   C502    1.518   .     S
C489   H507    1.110   .     S
C489   H515    1.111   .     S
C490   C503    1.518   .     S
C490   H518    1.107   .     S
C490   H517    1.110   .     S
C490   H519    1.111   .     S
C491   C504    1.518   .     S
C491   H522    1.107   .     S
C491   H521    1.111   .     S
C491   H520    1.110   .     S
C492   O534    1.308   .     A
C492   O533    1.308   .     A
C493   H508    1.110   .     S
C493   H509    1.107   .     S
C493   H510    1.111   .     S
C494   O540    1.223   .     D
C494   O526    1.394   .     S
C495   O527    1.223   .     D
C495   O528    1.394   .     S
C496   O530    1.394   .     S
C496   O529    1.223   .     D
C497   O532    1.394   .     S
C497   O531    1.223   .     D
C498   O536    1.297   .     A
C498   C500    1.406   .     S
C498   O539    1.297   .     A
C499   O537    1.297   .     A
C499   C501    1.406   .     S
C499   O538    1.297   .     A
C500   C1581   1.188   1_554 S
C501   C1040   1.188   .     S
C503   C362    1.399   1_655 S
C504   C382    1.399   1_655 S
Cu505  O536    1.926   .     S
Cu505  N523    2.037   .     S
Cu505  O538    1.926   .     S
Cu505  O525    1.961   .     S
Cu505  O534    1.961   .     S
Cu505  Cu506   2.711   .     S
Cu506  O539    1.926   .     S
Cu506  O535    1.961   .     S
Cu506  N524    2.037   .     S
Cu506  O537    1.926   .     S
Cu506  O533    1.961   .     S
H511   O526    1.014   .     S
H512   O528    1.014   .     S
H513   O530    1.014   .     S
H514   O532    1.014   .     S
C541   C544    1.477   .     S
C541   O595    1.308   .     A
C541   O585    1.308   .     A
C542   C544    1.415   .     A
C542   C553    1.518   .     S
C542   C683    1.399   1_455 S
C543   C552    1.477   .     S
C543   C563    1.415   .     A
C543   C564    1.415   .     A
C544   C562    1.415   .     A
C545   C554    1.479   .     S
C545   N584    1.378   .     A
C545   C908    1.427   1_545 S
C546   N583    1.378   .     A
C546   C555    1.479   .     S
C546   C727    1.427   .     S
C547   N584    1.378   .     A
C547   C556    1.479   .     S
C547   C906    1.427   1_545 S
C548   C557    1.479   .     S
C548   N583    1.378   .     A
C548   C725    1.427   .     S
C549   H576    1.107   .     S
C549   C562    1.518   .     S
C549   H567    1.110   .     S
C549   H575    1.111   .     S
C550   C563    1.518   .     S
C550   H578    1.107   .     S
C550   H577    1.110   .     S
C550   H579    1.111   .     S
C551   C564    1.518   .     S
C551   H582    1.107   .     S
C551   H581    1.111   .     S
C551   H580    1.110   .     S
C552   O594    1.308   .     A
C552   O593    1.308   .     A
C553   H568    1.110   .     S
C553   H569    1.107   .     S
C553   H570    1.111   .     S
C554   O600    1.223   .     D
C554   O586    1.394   .     S
C555   O587    1.223   .     D
C555   O588    1.394   .     S
C556   O590    1.394   .     S
C556   O589    1.223   .     D
C557   O592    1.394   .     S
C557   O591    1.223   .     D
C558   O596    1.297   .     A
C558   C560    1.406   .     S
C558   O599    1.297   .     A
C559   O597    1.297   .     A
C559   C561    1.406   .     S
C559   O598    1.297   .     A
C561   C1100   1.188   .     S
C562   C684    1.399   1_455 S
C563   C602    1.399   .     S
C564   C622    1.399   .     S
Cu565  O596    1.926   .     S
Cu565  N583    2.037   .     S
Cu565  O598    1.926   .     S
Cu565  O585    1.961   .     S
Cu565  O594    1.961   .     S
Cu565  Cu566   2.711   .     S
Cu566  O599    1.926   .     S
Cu566  O595    1.961   .     S
Cu566  N584    2.037   .     S
Cu566  O597    1.926   .     S
Cu566  O593    1.961   .     S
H571   O586    1.014   .     S
H572   O588    1.014   .     S
H573   O590    1.014   .     S
H574   O592    1.014   .     S
C601   C604    1.477   .     S
C601   O655    1.308   .     A
C601   O645    1.308   .     A
C602   C604    1.415   .     A
C602   C613    1.518   .     S
C603   C612    1.477   .     S
C603   C623    1.415   .     A
C603   C624    1.415   .     A
C604   C622    1.415   .     A
C605   C614    1.479   .     S
C605   N644    1.378   .     A
C605   C968    1.427   1_545 S
C606   N643    1.378   .     A
C606   C615    1.479   .     S
C606   C787    1.427   .     S
C607   N644    1.378   .     A
C607   C616    1.479   .     S
C607   C966    1.427   1_545 S
C608   C617    1.479   .     S
C608   N643    1.378   .     A
C608   C785    1.427   .     S
C609   H636    1.107   .     S
C609   C622    1.518   .     S
C609   H627    1.110   .     S
C609   H635    1.111   .     S
C610   C623    1.518   .     S
C610   H638    1.107   .     S
C610   H637    1.110   .     S
C610   H639    1.111   .     S
C611   C624    1.518   .     S
C611   H642    1.107   .     S
C611   H641    1.111   .     S
C611   H640    1.110   .     S
C612   O654    1.308   .     A
C612   O653    1.308   .     A
C613   H628    1.110   .     S
C613   H629    1.107   .     S
C613   H630    1.111   .     S
C614   O660    1.223   .     D
C614   O646    1.394   .     S
C615   O647    1.223   .     D
C615   O648    1.394   .     S
C616   O650    1.394   .     S
C616   O649    1.223   .     D
C617   O652    1.394   .     S
C617   O651    1.223   .     D
C618   O656    1.297   .     A
C618   C620    1.406   .     S
C618   O659    1.297   .     A
C619   O657    1.297   .     A
C619   C621    1.406   .     S
C619   O658    1.297   .     A
C621   C1160   1.188   .     S
C623   C662    1.399   .     S
C624   C682    1.399   .     S
Cu625  O656    1.926   .     S
Cu625  N643    2.037   .     S
Cu625  O658    1.926   .     S
Cu625  O645    1.961   .     S
Cu625  O654    1.961   .     S
Cu625  Cu626   2.711   .     S
Cu626  O659    1.926   .     S
Cu626  O655    1.961   .     S
Cu626  N644    2.037   .     S
Cu626  O657    1.926   .     S
Cu626  O653    1.961   .     S
H631   O646    1.014   .     S
H632   O648    1.014   .     S
H633   O650    1.014   .     S
H634   O652    1.014   .     S
C661   C664    1.477   .     S
C661   O715    1.308   .     A
C661   O705    1.308   .     A
C662   C664    1.415   .     A
C662   C673    1.518   .     S
C663   C672    1.477   .     S
C663   C683    1.415   .     A
C663   C684    1.415   .     A
C664   C682    1.415   .     A
C665   C674    1.479   .     S
C665   N704    1.378   .     A
C665   C1028   1.427   1_545 S
C666   N703    1.378   .     A
C666   C675    1.479   .     S
C666   C847    1.427   .     S
C667   N704    1.378   .     A
C667   C676    1.479   .     S
C667   C1026   1.427   1_545 S
C668   C677    1.479   .     S
C668   N703    1.378   .     A
C668   C845    1.427   .     S
C669   H696    1.107   .     S
C669   C682    1.518   .     S
C669   H687    1.110   .     S
C669   H695    1.111   .     S
C670   C683    1.518   .     S
C670   H698    1.107   .     S
C670   H697    1.110   .     S
C670   H699    1.111   .     S
C671   C684    1.518   .     S
C671   H702    1.107   .     S
C671   H701    1.111   .     S
C671   H700    1.110   .     S
C672   O714    1.308   .     A
C672   O713    1.308   .     A
C673   H688    1.110   .     S
C673   H689    1.107   .     S
C673   H690    1.111   .     S
C674   O720    1.223   .     D
C674   O706    1.394   .     S
C675   O707    1.223   .     D
C675   O708    1.394   .     S
C676   O710    1.394   .     S
C676   O709    1.223   .     D
C677   O712    1.394   .     S
C677   O711    1.223   .     D
C678   O716    1.297   .     A
C678   C680    1.406   .     S
C678   O719    1.297   .     A
C679   O717    1.297   .     A
C679   C681    1.406   .     S
C679   O718    1.297   .     A
C681   C1220   1.188   .     S
C683   C542    1.399   1_655 S
C684   C562    1.399   1_655 S
Cu685  O716    1.926   .     S
Cu685  N703    2.037   .     S
Cu685  O718    1.926   .     S
Cu685  O705    1.961   .     S
Cu685  O714    1.961   .     S
Cu685  Cu686   2.711   .     S
Cu686  O719    1.926   .     S
Cu686  O715    1.961   .     S
Cu686  N704    2.037   .     S
Cu686  O717    1.926   .     S
Cu686  O713    1.961   .     S
H691   O706    1.014   .     S
H692   O708    1.014   .     S
H693   O710    1.014   .     S
H694   O712    1.014   .     S
C721   C724    1.477   .     S
C721   O775    1.308   .     A
C721   O765    1.308   .     A
C722   C724    1.415   .     A
C722   C733    1.518   .     S
C722   C863    1.399   1_455 S
C723   C732    1.477   .     S
C723   C743    1.415   .     A
C723   C744    1.415   .     A
C724   C742    1.415   .     A
C725   C734    1.479   .     S
C725   N764    1.378   .     A
C726   N763    1.378   .     A
C726   C735    1.479   .     S
C726   C907    1.427   .     S
C727   N764    1.378   .     A
C727   C736    1.479   .     S
C728   C737    1.479   .     S
C728   N763    1.378   .     A
C728   C905    1.427   .     S
C729   H756    1.107   .     S
C729   C742    1.518   .     S
C729   H747    1.110   .     S
C729   H755    1.111   .     S
C730   C743    1.518   .     S
C730   H758    1.107   .     S
C730   H757    1.110   .     S
C730   H759    1.111   .     S
C731   C744    1.518   .     S
C731   H762    1.107   .     S
C731   H761    1.111   .     S
C731   H760    1.110   .     S
C732   O774    1.308   .     A
C732   O773    1.308   .     A
C733   H748    1.110   .     S
C733   H749    1.107   .     S
C733   H750    1.111   .     S
C734   O780    1.223   .     D
C734   O766    1.394   .     S
C735   O767    1.223   .     D
C735   O768    1.394   .     S
C736   O770    1.394   .     S
C736   O769    1.223   .     D
C737   O772    1.394   .     S
C737   O771    1.223   .     D
C738   O776    1.297   .     A
C738   C740    1.406   .     S
C738   O779    1.297   .     A
C739   O777    1.297   .     A
C739   C741    1.406   .     S
C739   O778    1.297   .     A
C741   C1280   1.188   .     S
C742   C864    1.399   1_455 S
C743   C782    1.399   .     S
C744   C802    1.399   .     S
Cu745  O776    1.926   .     S
Cu745  N763    2.037   .     S
Cu745  O778    1.926   .     S
Cu745  O765    1.961   .     S
Cu745  O774    1.961   .     S
Cu745  Cu746   2.711   .     S
Cu746  O779    1.926   .     S
Cu746  O775    1.961   .     S
Cu746  N764    2.037   .     S
Cu746  O777    1.926   .     S
Cu746  O773    1.961   .     S
H751   O766    1.014   .     S
H752   O768    1.014   .     S
H753   O770    1.014   .     S
H754   O772    1.014   .     S
C781   C784    1.477   .     S
C781   O835    1.308   .     A
C781   O825    1.308   .     A
C782   C784    1.415   .     A
C782   C793    1.518   .     S
C783   C792    1.477   .     S
C783   C803    1.415   .     A
C783   C804    1.415   .     A
C784   C802    1.415   .     A
C785   C794    1.479   .     S
C785   N824    1.378   .     A
C786   N823    1.378   .     A
C786   C795    1.479   .     S
C786   C967    1.427   .     S
C787   N824    1.378   .     A
C787   C796    1.479   .     S
C788   C797    1.479   .     S
C788   N823    1.378   .     A
C788   C965    1.427   .     S
C789   H816    1.107   .     S
C789   C802    1.518   .     S
C789   H807    1.110   .     S
C789   H815    1.111   .     S
C790   C803    1.518   .     S
C790   H818    1.107   .     S
C790   H817    1.110   .     S
C790   H819    1.111   .     S
C791   C804    1.518   .     S
C791   H822    1.107   .     S
C791   H821    1.111   .     S
C791   H820    1.110   .     S
C792   O834    1.308   .     A
C792   O833    1.308   .     A
C793   H808    1.110   .     S
C793   H809    1.107   .     S
C793   H810    1.111   .     S
C794   O840    1.223   .     D
C794   O826    1.394   .     S
C795   O827    1.223   .     D
C795   O828    1.394   .     S
C796   O830    1.394   .     S
C796   O829    1.223   .     D
C797   O832    1.394   .     S
C797   O831    1.223   .     D
C798   O836    1.297   .     A
C798   C800    1.406   .     S
C798   O839    1.297   .     A
C799   O837    1.297   .     A
C799   C801    1.406   .     S
C799   O838    1.297   .     A
C801   C1340   1.188   .     S
C803   C842    1.399   .     S
C804   C862    1.399   .     S
Cu805  O836    1.926   .     S
Cu805  N823    2.037   .     S
Cu805  O838    1.926   .     S
Cu805  O825    1.961   .     S
Cu805  O834    1.961   .     S
Cu805  Cu806   2.711   .     S
Cu806  O839    1.926   .     S
Cu806  O835    1.961   .     S
Cu806  N824    2.037   .     S
Cu806  O837    1.926   .     S
Cu806  O833    1.961   .     S
H811   O826    1.014   .     S
H812   O828    1.014   .     S
H813   O830    1.014   .     S
H814   O832    1.014   .     S
C841   C844    1.477   .     S
C841   O895    1.308   .     A
C841   O885    1.308   .     A
C842   C844    1.415   .     A
C842   C853    1.518   .     S
C843   C852    1.477   .     S
C843   C863    1.415   .     A
C843   C864    1.415   .     A
C844   C862    1.415   .     A
C845   C854    1.479   .     S
C845   N884    1.378   .     A
C846   N883    1.378   .     A
C846   C855    1.479   .     S
C846   C1027   1.427   .     S
C847   N884    1.378   .     A
C847   C856    1.479   .     S
C848   C857    1.479   .     S
C848   N883    1.378   .     A
C848   C1025   1.427   .     S
C849   H876    1.107   .     S
C849   C862    1.518   .     S
C849   H867    1.110   .     S
C849   H875    1.111   .     S
C850   C863    1.518   .     S
C850   H878    1.107   .     S
C850   H877    1.110   .     S
C850   H879    1.111   .     S
C851   C864    1.518   .     S
C851   H882    1.107   .     S
C851   H881    1.111   .     S
C851   H880    1.110   .     S
C852   O894    1.308   .     A
C852   O893    1.308   .     A
C853   H868    1.110   .     S
C853   H869    1.107   .     S
C853   H870    1.111   .     S
C854   O900    1.223   .     D
C854   O886    1.394   .     S
C855   O887    1.223   .     D
C855   O888    1.394   .     S
C856   O890    1.394   .     S
C856   O889    1.223   .     D
C857   O892    1.394   .     S
C857   O891    1.223   .     D
C858   O896    1.297   .     A
C858   C860    1.406   .     S
C858   O899    1.297   .     A
C859   O897    1.297   .     A
C859   C861    1.406   .     S
C859   O898    1.297   .     A
C861   C1400   1.188   .     S
C863   C722    1.399   1_655 S
C864   C742    1.399   1_655 S
Cu865  O896    1.926   .     S
Cu865  N883    2.037   .     S
Cu865  O898    1.926   .     S
Cu865  O885    1.961   .     S
Cu865  O894    1.961   .     S
Cu865  Cu866   2.711   .     S
Cu866  O899    1.926   .     S
Cu866  O895    1.961   .     S
Cu866  N884    2.037   .     S
Cu866  O897    1.926   .     S
Cu866  O893    1.961   .     S
H871   O886    1.014   .     S
H872   O888    1.014   .     S
H873   O890    1.014   .     S
H874   O892    1.014   .     S
C901   C904    1.477   .     S
C901   O955    1.308   .     A
C901   O945    1.308   .     A
C902   C904    1.415   .     A
C902   C913    1.518   .     S
C902   C1043   1.399   1_455 S
C903   C912    1.477   .     S
C903   C923    1.415   .     A
C903   C924    1.415   .     A
C904   C922    1.415   .     A
C905   C914    1.479   .     S
C905   N944    1.378   .     A
C906   N943    1.378   .     A
C906   C915    1.479   .     S
C906   C547    1.427   1_565 S
C907   N944    1.378   .     A
C907   C916    1.479   .     S
C908   C917    1.479   .     S
C908   N943    1.378   .     A
C908   C545    1.427   1_565 S
C909   H936    1.107   .     S
C909   C922    1.518   .     S
C909   H927    1.110   .     S
C909   H935    1.111   .     S
C910   C923    1.518   .     S
C910   H938    1.107   .     S
C910   H937    1.110   .     S
C910   H939    1.111   .     S
C911   C924    1.518   .     S
C911   H942    1.107   .     S
C911   H941    1.111   .     S
C911   H940    1.110   .     S
C912   O954    1.308   .     A
C912   O953    1.308   .     A
C913   H928    1.110   .     S
C913   H929    1.107   .     S
C913   H930    1.111   .     S
C914   O960    1.223   .     D
C914   O946    1.394   .     S
C915   O947    1.223   .     D
C915   O948    1.394   .     S
C916   O950    1.394   .     S
C916   O949    1.223   .     D
C917   O952    1.394   .     S
C917   O951    1.223   .     D
C918   O956    1.297   .     A
C918   C920    1.406   .     S
C918   O959    1.297   .     A
C919   O957    1.297   .     A
C919   C921    1.406   .     S
C919   O958    1.297   .     A
C921   C1460   1.188   .     S
C922   C1044   1.399   1_455 S
C923   C962    1.399   .     S
C924   C982    1.399   .     S
Cu925  O956    1.926   .     S
Cu925  N943    2.037   .     S
Cu925  O958    1.926   .     S
Cu925  O945    1.961   .     S
Cu925  O954    1.961   .     S
Cu925  Cu926   2.711   .     S
Cu926  O959    1.926   .     S
Cu926  O955    1.961   .     S
Cu926  N944    2.037   .     S
Cu926  O957    1.926   .     S
Cu926  O953    1.961   .     S
H931   O946    1.014   .     S
H932   O948    1.014   .     S
H933   O950    1.014   .     S
H934   O952    1.014   .     S
C961   C964    1.477   .     S
C961   O1015   1.308   .     A
C961   O1005   1.308   .     A
C962   C964    1.415   .     A
C962   C973    1.518   .     S
C963   C972    1.477   .     S
C963   C983    1.415   .     A
C963   C984    1.415   .     A
C964   C982    1.415   .     A
C965   C974    1.479   .     S
C965   N1004   1.378   .     A
C966   N1003   1.378   .     A
C966   C975    1.479   .     S
C966   C607    1.427   1_565 S
C967   N1004   1.378   .     A
C967   C976    1.479   .     S
C968   C977    1.479   .     S
C968   N1003   1.378   .     A
C968   C605    1.427   1_565 S
C969   H996    1.107   .     S
C969   C982    1.518   .     S
C969   H987    1.110   .     S
C969   H995    1.111   .     S
C970   C983    1.518   .     S
C970   H998    1.107   .     S
C970   H997    1.110   .     S
C970   H999    1.111   .     S
C971   C984    1.518   .     S
C971   H1002   1.107   .     S
C971   H1001   1.111   .     S
C971   H1000   1.110   .     S
C972   O1014   1.308   .     A
C972   O1013   1.308   .     A
C973   H988    1.110   .     S
C973   H989    1.107   .     S
C973   H990    1.111   .     S
C974   O1020   1.223   .     D
C974   O1006   1.394   .     S
C975   O1007   1.223   .     D
C975   O1008   1.394   .     S
C976   O1010   1.394   .     S
C976   O1009   1.223   .     D
C977   O1012   1.394   .     S
C977   O1011   1.223   .     D
C978   O1016   1.297   .     A
C978   C980    1.406   .     S
C978   O1019   1.297   .     A
C979   O1017   1.297   .     A
C979   C981    1.406   .     S
C979   O1018   1.297   .     A
C981   C1520   1.188   .     S
C983   C1022   1.399   .     S
C984   C1042   1.399   .     S
Cu985  O1016   1.926   .     S
Cu985  N1003   2.037   .     S
Cu985  O1018   1.926   .     S
Cu985  O1005   1.961   .     S
Cu985  O1014   1.961   .     S
Cu985  Cu986   2.711   .     S
Cu986  O1019   1.926   .     S
Cu986  O1015   1.961   .     S
Cu986  N1004   2.037   .     S
Cu986  O1017   1.926   .     S
Cu986  O1013   1.961   .     S
H991   O1006   1.014   .     S
H992   O1008   1.014   .     S
H993   O1010   1.014   .     S
H994   O1012   1.014   .     S
C1021  C1024   1.477   .     S
C1021  O1075   1.308   .     A
C1021  O1065   1.308   .     A
C1022  C1024   1.415   .     A
C1022  C1033   1.518   .     S
C1023  C1032   1.477   .     S
C1023  C1043   1.415   .     A
C1023  C1044   1.415   .     A
C1024  C1042   1.415   .     A
C1025  C1034   1.479   .     S
C1025  N1064   1.378   .     A
C1026  N1063   1.378   .     A
C1026  C1035   1.479   .     S
C1026  C667    1.427   1_565 S
C1027  N1064   1.378   .     A
C1027  C1036   1.479   .     S
C1028  C1037   1.479   .     S
C1028  N1063   1.378   .     A
C1028  C665    1.427   1_565 S
C1029  H1056   1.107   .     S
C1029  C1042   1.518   .     S
C1029  H1047   1.110   .     S
C1029  H1055   1.111   .     S
C1030  C1043   1.518   .     S
C1030  H1058   1.107   .     S
C1030  H1057   1.110   .     S
C1030  H1059   1.111   .     S
C1031  C1044   1.518   .     S
C1031  H1062   1.107   .     S
C1031  H1061   1.111   .     S
C1031  H1060   1.110   .     S
C1032  O1074   1.308   .     A
C1032  O1073   1.308   .     A
C1033  H1048   1.110   .     S
C1033  H1049   1.107   .     S
C1033  H1050   1.111   .     S
C1034  O1080   1.223   .     D
C1034  O1066   1.394   .     S
C1035  O1067   1.223   .     D
C1035  O1068   1.394   .     S
C1036  O1070   1.394   .     S
C1036  O1069   1.223   .     D
C1037  O1072   1.394   .     S
C1037  O1071   1.223   .     D
C1038  O1076   1.297   .     A
C1038  C1040   1.406   .     S
C1038  O1079   1.297   .     A
C1039  O1077   1.297   .     A
C1039  C1041   1.406   .     S
C1039  O1078   1.297   .     A
C1041  C1580   1.188   .     S
C1043  C902    1.399   1_655 S
C1044  C922    1.399   1_655 S
Cu1045 O1076   1.926   .     S
Cu1045 N1063   2.037   .     S
Cu1045 O1078   1.926   .     S
Cu1045 O1065   1.961   .     S
Cu1045 O1074   1.961   .     S
Cu1045 Cu1046  2.711   .     S
Cu1046 O1079   1.926   .     S
Cu1046 O1075   1.961   .     S
Cu1046 N1064   2.037   .     S
Cu1046 O1077   1.926   .     S
Cu1046 O1073   1.961   .     S
H1051  O1066   1.014   .     S
H1052  O1068   1.014   .     S
H1053  O1070   1.014   .     S
H1054  O1072   1.014   .     S
C1081  C1084   1.477   .     S
C1081  O1135   1.308   .     A
C1081  O1125   1.308   .     A
C1082  C1084   1.415   .     A
C1082  C1093   1.518   .     S
C1082  C1223   1.399   1_455 S
C1083  C1092   1.477   .     S
C1083  C1103   1.415   .     A
C1083  C1104   1.415   .     A
C1084  C1102   1.415   .     A
C1085  C1094   1.479   .     S
C1085  N1124   1.378   .     A
C1085  C1448   1.427   1_545 S
C1086  N1123   1.378   .     A
C1086  C1095   1.479   .     S
C1086  C1267   1.427   .     S
C1087  N1124   1.378   .     A
C1087  C1096   1.479   .     S
C1087  C1446   1.427   1_545 S
C1088  C1097   1.479   .     S
C1088  N1123   1.378   .     A
C1088  C1265   1.427   .     S
C1089  H1116   1.107   .     S
C1089  C1102   1.518   .     S
C1089  H1107   1.110   .     S
C1089  H1115   1.111   .     S
C1090  C1103   1.518   .     S
C1090  H1118   1.107   .     S
C1090  H1117   1.110   .     S
C1090  H1119   1.111   .     S
C1091  C1104   1.518   .     S
C1091  H1122   1.107   .     S
C1091  H1121   1.111   .     S
C1091  H1120   1.110   .     S
C1092  O1134   1.308   .     A
C1092  O1133   1.308   .     A
C1093  H1108   1.110   .     S
C1093  H1109   1.107   .     S
C1093  H1110   1.111   .     S
C1094  O1140   1.223   .     D
C1094  O1126   1.394   .     S
C1095  O1127   1.223   .     D
C1095  O1128   1.394   .     S
C1096  O1130   1.394   .     S
C1096  O1129   1.223   .     D
C1097  O1132   1.394   .     S
C1097  O1131   1.223   .     D
C1098  O1136   1.297   .     A
C1098  C1100   1.406   .     S
C1098  O1139   1.297   .     A
C1099  O1137   1.297   .     A
C1099  C1101   1.406   .     S
C1099  O1138   1.297   .     A
C1101  C20     1.188   1_556 S
C1102  C1224   1.399   1_455 S
C1103  C1142   1.399   .     S
C1104  C1162   1.399   .     S
Cu1105 O1136   1.926   .     S
Cu1105 N1123   2.037   .     S
Cu1105 O1138   1.926   .     S
Cu1105 O1125   1.961   .     S
Cu1105 O1134   1.961   .     S
Cu1105 Cu1106  2.711   .     S
Cu1106 O1139   1.926   .     S
Cu1106 O1135   1.961   .     S
Cu1106 N1124   2.037   .     S
Cu1106 O1137   1.926   .     S
Cu1106 O1133   1.961   .     S
H1111  O1126   1.014   .     S
H1112  O1128   1.014   .     S
H1113  O1130   1.014   .     S
H1114  O1132   1.014   .     S
C1141  C1144   1.477   .     S
C1141  O1195   1.308   .     A
C1141  O1185   1.308   .     A
C1142  C1144   1.415   .     A
C1142  C1153   1.518   .     S
C1143  C1152   1.477   .     S
C1143  C1163   1.415   .     A
C1143  C1164   1.415   .     A
C1144  C1162   1.415   .     A
C1145  C1154   1.479   .     S
C1145  N1184   1.378   .     A
C1145  C1508   1.427   1_545 S
C1146  N1183   1.378   .     A
C1146  C1155   1.479   .     S
C1146  C1327   1.427   .     S
C1147  N1184   1.378   .     A
C1147  C1156   1.479   .     S
C1147  C1506   1.427   1_545 S
C1148  C1157   1.479   .     S
C1148  N1183   1.378   .     A
C1148  C1325   1.427   .     S
C1149  H1176   1.107   .     S
C1149  C1162   1.518   .     S
C1149  H1167   1.110   .     S
C1149  H1175   1.111   .     S
C1150  C1163   1.518   .     S
C1150  H1178   1.107   .     S
C1150  H1177   1.110   .     S
C1150  H1179   1.111   .     S
C1151  C1164   1.518   .     S
C1151  H1182   1.107   .     S
C1151  H1181   1.111   .     S
C1151  H1180   1.110   .     S
C1152  O1194   1.308   .     A
C1152  O1193   1.308   .     A
C1153  H1168   1.110   .     S
C1153  H1169   1.107   .     S
C1153  H1170   1.111   .     S
C1154  O1200   1.223   .     D
C1154  O1186   1.394   .     S
C1155  O1187   1.223   .     D
C1155  O1188   1.394   .     S
C1156  O1190   1.394   .     S
C1156  O1189   1.223   .     D
C1157  O1192   1.394   .     S
C1157  O1191   1.223   .     D
C1158  O1196   1.297   .     A
C1158  C1160   1.406   .     S
C1158  O1199   1.297   .     A
C1159  O1197   1.297   .     A
C1159  C1161   1.406   .     S
C1159  O1198   1.297   .     A
C1161  C80     1.188   1_556 S
C1163  C1202   1.399   .     S
C1164  C1222   1.399   .     S
Cu1165 O1196   1.926   .     S
Cu1165 N1183   2.037   .     S
Cu1165 O1198   1.926   .     S
Cu1165 O1185   1.961   .     S
Cu1165 O1194   1.961   .     S
Cu1165 Cu1166  2.711   .     S
Cu1166 O1199   1.926   .     S
Cu1166 O1195   1.961   .     S
Cu1166 N1184   2.037   .     S
Cu1166 O1197   1.926   .     S
Cu1166 O1193   1.961   .     S
H1171  O1186   1.014   .     S
H1172  O1188   1.014   .     S
H1173  O1190   1.014   .     S
H1174  O1192   1.014   .     S
C1201  C1204   1.477   .     S
C1201  O1255   1.308   .     A
C1201  O1245   1.308   .     A
C1202  C1204   1.415   .     A
C1202  C1213   1.518   .     S
C1203  C1212   1.477   .     S
C1203  C1223   1.415   .     A
C1203  C1224   1.415   .     A
C1204  C1222   1.415   .     A
C1205  C1214   1.479   .     S
C1205  N1244   1.378   .     A
C1205  C1568   1.427   1_545 S
C1206  N1243   1.378   .     A
C1206  C1215   1.479   .     S
C1206  C1387   1.427   .     S
C1207  N1244   1.378   .     A
C1207  C1216   1.479   .     S
C1207  C1566   1.427   1_545 S
C1208  C1217   1.479   .     S
C1208  N1243   1.378   .     A
C1208  C1385   1.427   .     S
C1209  H1236   1.107   .     S
C1209  C1222   1.518   .     S
C1209  H1227   1.110   .     S
C1209  H1235   1.111   .     S
C1210  C1223   1.518   .     S
C1210  H1238   1.107   .     S
C1210  H1237   1.110   .     S
C1210  H1239   1.111   .     S
C1211  C1224   1.518   .     S
C1211  H1242   1.107   .     S
C1211  H1241   1.111   .     S
C1211  H1240   1.110   .     S
C1212  O1254   1.308   .     A
C1212  O1253   1.308   .     A
C1213  H1228   1.110   .     S
C1213  H1229   1.107   .     S
C1213  H1230   1.111   .     S
C1214  O1260   1.223   .     D
C1214  O1246   1.394   .     S
C1215  O1247   1.223   .     D
C1215  O1248   1.394   .     S
C1216  O1250   1.394   .     S
C1216  O1249   1.223   .     D
C1217  O1252   1.394   .     S
C1217  O1251   1.223   .     D
C1218  O1256   1.297   .     A
C1218  C1220   1.406   .     S
C1218  O1259   1.297   .     A
C1219  O1257   1.297   .     A
C1219  C1221   1.406   .     S
C1219  O1258   1.297   .     A
C1221  C140    1.188   1_556 S
C1223  C1082   1.399   1_655 S
C1224  C1102   1.399   1_655 S
Cu1225 O1256   1.926   .     S
Cu1225 N1243   2.037   .     S
Cu1225 O1258   1.926   .     S
Cu1225 O1245   1.961   .     S
Cu1225 O1254   1.961   .     S
Cu1225 Cu1226  2.711   .     S
Cu1226 O1259   1.926   .     S
Cu1226 O1255   1.961   .     S
Cu1226 N1244   2.037   .     S
Cu1226 O1257   1.926   .     S
Cu1226 O1253   1.961   .     S
H1231  O1246   1.014   .     S
H1232  O1248   1.014   .     S
H1233  O1250   1.014   .     S
H1234  O1252   1.014   .     S
C1261  C1264   1.477   .     S
C1261  O1315   1.308   .     A
C1261  O1305   1.308   .     A
C1262  C1264   1.415   .     A
C1262  C1273   1.518   .     S
C1262  C1403   1.399   1_455 S
C1263  C1272   1.477   .     S
C1263  C1283   1.415   .     A
C1263  C1284   1.415   .     A
C1264  C1282   1.415   .     A
C1265  C1274   1.479   .     S
C1265  N1304   1.378   .     A
C1266  N1303   1.378   .     A
C1266  C1275   1.479   .     S
C1266  C1447   1.427   .     S
C1267  N1304   1.378   .     A
C1267  C1276   1.479   .     S
C1268  C1277   1.479   .     S
C1268  N1303   1.378   .     A
C1268  C1445   1.427   .     S
C1269  H1296   1.107   .     S
C1269  C1282   1.518   .     S
C1269  H1287   1.110   .     S
C1269  H1295   1.111   .     S
C1270  C1283   1.518   .     S
C1270  H1298   1.107   .     S
C1270  H1297   1.110   .     S
C1270  H1299   1.111   .     S
C1271  C1284   1.518   .     S
C1271  H1302   1.107   .     S
C1271  H1301   1.111   .     S
C1271  H1300   1.110   .     S
C1272  O1314   1.308   .     A
C1272  O1313   1.308   .     A
C1273  H1288   1.110   .     S
C1273  H1289   1.107   .     S
C1273  H1290   1.111   .     S
C1274  O1320   1.223   .     D
C1274  O1306   1.394   .     S
C1275  O1307   1.223   .     D
C1275  O1308   1.394   .     S
C1276  O1310   1.394   .     S
C1276  O1309   1.223   .     D
C1277  O1312   1.394   .     S
C1277  O1311   1.223   .     D
C1278  O1316   1.297   .     A
C1278  C1280   1.406   .     S
C1278  O1319   1.297   .     A
C1279  O1317   1.297   .     A
C1279  C1281   1.406   .     S
C1279  O1318   1.297   .     A
C1281  C200    1.188   1_556 S
C1282  C1404   1.399   1_455 S
C1283  C1322   1.399   .     S
C1284  C1342   1.399   .     S
Cu1285 O1316   1.926   .     S
Cu1285 N1303   2.037   .     S
Cu1285 O1318   1.926   .     S
Cu1285 O1305   1.961   .     S
Cu1285 O1314   1.961   .     S
Cu1285 Cu1286  2.711   .     S
Cu1286 O1319   1.926   .     S
Cu1286 O1315   1.961   .     S
Cu1286 N1304   2.037   .     S
Cu1286 O1317   1.926   .     S
Cu1286 O1313   1.961   .     S
H1291  O1306   1.014   .     S
H1292  O1308   1.014   .     S
H1293  O1310   1.014   .     S
H1294  O1312   1.014   .     S
C1321  C1324   1.477   .     S
C1321  O1375   1.308   .     A
C1321  O1365   1.308   .     A
C1322  C1324   1.415   .     A
C1322  C1333   1.518   .     S
C1323  C1332   1.477   .     S
C1323  C1343   1.415   .     A
C1323  C1344   1.415   .     A
C1324  C1342   1.415   .     A
C1325  C1334   1.479   .     S
C1325  N1364   1.378   .     A
C1326  N1363   1.378   .     A
C1326  C1335   1.479   .     S
C1326  C1507   1.427   .     S
C1327  N1364   1.378   .     A
C1327  C1336   1.479   .     S
C1328  C1337   1.479   .     S
C1328  N1363   1.378   .     A
C1328  C1505   1.427   .     S
C1329  H1356   1.107   .     S
C1329  C1342   1.518   .     S
C1329  H1347   1.110   .     S
C1329  H1355   1.111   .     S
C1330  C1343   1.518   .     S
C1330  H1358   1.107   .     S
C1330  H1357   1.110   .     S
C1330  H1359   1.111   .     S
C1331  C1344   1.518   .     S
C1331  H1362   1.107   .     S
C1331  H1361   1.111   .     S
C1331  H1360   1.110   .     S
C1332  O1374   1.308   .     A
C1332  O1373   1.308   .     A
C1333  H1348   1.110   .     S
C1333  H1349   1.107   .     S
C1333  H1350   1.111   .     S
C1334  O1380   1.223   .     D
C1334  O1366   1.394   .     S
C1335  O1367   1.223   .     D
C1335  O1368   1.394   .     S
C1336  O1370   1.394   .     S
C1336  O1369   1.223   .     D
C1337  O1372   1.394   .     S
C1337  O1371   1.223   .     D
C1338  O1376   1.297   .     A
C1338  C1340   1.406   .     S
C1338  O1379   1.297   .     A
C1339  O1377   1.297   .     A
C1339  C1341   1.406   .     S
C1339  O1378   1.297   .     A
C1341  C260    1.188   1_556 S
C1343  C1382   1.399   .     S
C1344  C1402   1.399   .     S
Cu1345 O1376   1.926   .     S
Cu1345 N1363   2.037   .     S
Cu1345 O1378   1.926   .     S
Cu1345 O1365   1.961   .     S
Cu1345 O1374   1.961   .     S
Cu1345 Cu1346  2.711   .     S
Cu1346 O1379   1.926   .     S
Cu1346 O1375   1.961   .     S
Cu1346 N1364   2.037   .     S
Cu1346 O1377   1.926   .     S
Cu1346 O1373   1.961   .     S
H1351  O1366   1.014   .     S
H1352  O1368   1.014   .     S
H1353  O1370   1.014   .     S
H1354  O1372   1.014   .     S
C1381  C1384   1.477   .     S
C1381  O1435   1.308   .     A
C1381  O1425   1.308   .     A
C1382  C1384   1.415   .     A
C1382  C1393   1.518   .     S
C1383  C1392   1.477   .     S
C1383  C1403   1.415   .     A
C1383  C1404   1.415   .     A
C1384  C1402   1.415   .     A
C1385  C1394   1.479   .     S
C1385  N1424   1.378   .     A
C1386  N1423   1.378   .     A
C1386  C1395   1.479   .     S
C1386  C1567   1.427   .     S
C1387  N1424   1.378   .     A
C1387  C1396   1.479   .     S
C1388  C1397   1.479   .     S
C1388  N1423   1.378   .     A
C1388  C1565   1.427   .     S
C1389  H1416   1.107   .     S
C1389  C1402   1.518   .     S
C1389  H1407   1.110   .     S
C1389  H1415   1.111   .     S
C1390  C1403   1.518   .     S
C1390  H1418   1.107   .     S
C1390  H1417   1.110   .     S
C1390  H1419   1.111   .     S
C1391  C1404   1.518   .     S
C1391  H1422   1.107   .     S
C1391  H1421   1.111   .     S
C1391  H1420   1.110   .     S
C1392  O1434   1.308   .     A
C1392  O1433   1.308   .     A
C1393  H1408   1.110   .     S
C1393  H1409   1.107   .     S
C1393  H1410   1.111   .     S
C1394  O1440   1.223   .     D
C1394  O1426   1.394   .     S
C1395  O1427   1.223   .     D
C1395  O1428   1.394   .     S
C1396  O1430   1.394   .     S
C1396  O1429   1.223   .     D
C1397  O1432   1.394   .     S
C1397  O1431   1.223   .     D
C1398  O1436   1.297   .     A
C1398  C1400   1.406   .     S
C1398  O1439   1.297   .     A
C1399  O1437   1.297   .     A
C1399  C1401   1.406   .     S
C1399  O1438   1.297   .     A
C1401  C320    1.188   1_556 S
C1403  C1262   1.399   1_655 S
C1404  C1282   1.399   1_655 S
Cu1405 O1436   1.926   .     S
Cu1405 N1423   2.037   .     S
Cu1405 O1438   1.926   .     S
Cu1405 O1425   1.961   .     S
Cu1405 O1434   1.961   .     S
Cu1405 Cu1406  2.711   .     S
Cu1406 O1439   1.926   .     S
Cu1406 O1435   1.961   .     S
Cu1406 N1424   2.037   .     S
Cu1406 O1437   1.926   .     S
Cu1406 O1433   1.961   .     S
H1411  O1426   1.014   .     S
H1412  O1428   1.014   .     S
H1413  O1430   1.014   .     S
H1414  O1432   1.014   .     S
C1441  C1444   1.477   .     S
C1441  O1495   1.308   .     A
C1441  O1485   1.308   .     A
C1442  C1444   1.415   .     A
C1442  C1453   1.518   .     S
C1442  C1583   1.399   1_455 S
C1443  C1452   1.477   .     S
C1443  C1463   1.415   .     A
C1443  C1464   1.415   .     A
C1444  C1462   1.415   .     A
C1445  C1454   1.479   .     S
C1445  N1484   1.378   .     A
C1446  N1483   1.378   .     A
C1446  C1455   1.479   .     S
C1446  C1087   1.427   1_565 S
C1447  N1484   1.378   .     A
C1447  C1456   1.479   .     S
C1448  C1457   1.479   .     S
C1448  N1483   1.378   .     A
C1448  C1085   1.427   1_565 S
C1449  H1476   1.107   .     S
C1449  C1462   1.518   .     S
C1449  H1467   1.110   .     S
C1449  H1475   1.111   .     S
C1450  C1463   1.518   .     S
C1450  H1478   1.107   .     S
C1450  H1477   1.110   .     S
C1450  H1479   1.111   .     S
C1451  C1464   1.518   .     S
C1451  H1482   1.107   .     S
C1451  H1481   1.111   .     S
C1451  H1480   1.110   .     S
C1452  O1494   1.308   .     A
C1452  O1493   1.308   .     A
C1453  H1468   1.110   .     S
C1453  H1469   1.107   .     S
C1453  H1470   1.111   .     S
C1454  O1500   1.223   .     D
C1454  O1486   1.394   .     S
C1455  O1487   1.223   .     D
C1455  O1488   1.394   .     S
C1456  O1490   1.394   .     S
C1456  O1489   1.223   .     D
C1457  O1492   1.394   .     S
C1457  O1491   1.223   .     D
C1458  O1496   1.297   .     A
C1458  C1460   1.406   .     S
C1458  O1499   1.297   .     A
C1459  O1497   1.297   .     A
C1459  C1461   1.406   .     S
C1459  O1498   1.297   .     A
C1461  C380    1.188   1_556 S
C1462  C1584   1.399   1_455 S
C1463  C1502   1.399   .     S
C1464  C1522   1.399   .     S
Cu1465 O1496   1.926   .     S
Cu1465 N1483   2.037   .     S
Cu1465 O1498   1.926   .     S
Cu1465 O1485   1.961   .     S
Cu1465 O1494   1.961   .     S
Cu1465 Cu1466  2.711   .     S
Cu1466 O1499   1.926   .     S
Cu1466 O1495   1.961   .     S
Cu1466 N1484   2.037   .     S
Cu1466 O1497   1.926   .     S
Cu1466 O1493   1.961   .     S
H1471  O1486   1.014   .     S
H1472  O1488   1.014   .     S
H1473  O1490   1.014   .     S
H1474  O1492   1.014   .     S
C1501  C1504   1.477   .     S
C1501  O1555   1.308   .     A
C1501  O1545   1.308   .     A
C1502  C1504   1.415   .     A
C1502  C1513   1.518   .     S
C1503  C1512   1.477   .     S
C1503  C1523   1.415   .     A
C1503  C1524   1.415   .     A
C1504  C1522   1.415   .     A
C1505  C1514   1.479   .     S
C1505  N1544   1.378   .     A
C1506  N1543   1.378   .     A
C1506  C1515   1.479   .     S
C1506  C1147   1.427   1_565 S
C1507  N1544   1.378   .     A
C1507  C1516   1.479   .     S
C1508  C1517   1.479   .     S
C1508  N1543   1.378   .     A
C1508  C1145   1.427   1_565 S
C1509  H1536   1.107   .     S
C1509  C1522   1.518   .     S
C1509  H1527   1.110   .     S
C1509  H1535   1.111   .     S
C1510  C1523   1.518   .     S
C1510  H1538   1.107   .     S
C1510  H1537   1.110   .     S
C1510  H1539   1.111   .     S
C1511  C1524   1.518   .     S
C1511  H1542   1.107   .     S
C1511  H1541   1.111   .     S
C1511  H1540   1.110   .     S
C1512  O1554   1.308   .     A
C1512  O1553   1.308   .     A
C1513  H1528   1.110   .     S
C1513  H1529   1.107   .     S
C1513  H1530   1.111   .     S
C1514  O1560   1.223   .     D
C1514  O1546   1.394   .     S
C1515  O1547   1.223   .     D
C1515  O1548   1.394   .     S
C1516  O1550   1.394   .     S
C1516  O1549   1.223   .     D
C1517  O1552   1.394   .     S
C1517  O1551   1.223   .     D
C1518  O1556   1.297   .     A
C1518  C1520   1.406   .     S
C1518  O1559   1.297   .     A
C1519  O1557   1.297   .     A
C1519  C1521   1.406   .     S
C1519  O1558   1.297   .     A
C1521  C440    1.188   1_556 S
C1523  C1562   1.399   .     S
C1524  C1582   1.399   .     S
Cu1525 O1556   1.926   .     S
Cu1525 N1543   2.037   .     S
Cu1525 O1558   1.926   .     S
Cu1525 O1545   1.961   .     S
Cu1525 O1554   1.961   .     S
Cu1525 Cu1526  2.711   .     S
Cu1526 O1559   1.926   .     S
Cu1526 O1555   1.961   .     S
Cu1526 N1544   2.037   .     S
Cu1526 O1557   1.926   .     S
Cu1526 O1553   1.961   .     S
H1531  O1546   1.014   .     S
H1532  O1548   1.014   .     S
H1533  O1550   1.014   .     S
H1534  O1552   1.014   .     S
C1561  C1564   1.477   .     S
C1561  O1615   1.308   .     A
C1561  O1605   1.308   .     A
C1562  C1564   1.415   .     A
C1562  C1573   1.518   .     S
C1563  C1572   1.477   .     S
C1563  C1583   1.415   .     A
C1563  C1584   1.415   .     A
C1564  C1582   1.415   .     A
C1565  C1574   1.479   .     S
C1565  N1604   1.378   .     A
C1566  N1603   1.378   .     A
C1566  C1575   1.479   .     S
C1566  C1207   1.427   1_565 S
C1567  N1604   1.378   .     A
C1567  C1576   1.479   .     S
C1568  C1577   1.479   .     S
C1568  N1603   1.378   .     A
C1568  C1205   1.427   1_565 S
C1569  H1596   1.107   .     S
C1569  C1582   1.518   .     S
C1569  H1587   1.110   .     S
C1569  H1595   1.111   .     S
C1570  C1583   1.518   .     S
C1570  H1598   1.107   .     S
C1570  H1597   1.110   .     S
C1570  H1599   1.111   .     S
C1571  C1584   1.518   .     S
C1571  H1602   1.107   .     S
C1571  H1601   1.111   .     S
C1571  H1600   1.110   .     S
C1572  O1614   1.308   .     A
C1572  O1613   1.308   .     A
C1573  H1588   1.110   .     S
C1573  H1589   1.107   .     S
C1573  H1590   1.111   .     S
C1574  O1620   1.223   .     D
C1574  O1606   1.394   .     S
C1575  O1607   1.223   .     D
C1575  O1608   1.394   .     S
C1576  O1610   1.394   .     S
C1576  O1609   1.223   .     D
C1577  O1612   1.394   .     S
C1577  O1611   1.223   .     D
C1578  O1616   1.297   .     A
C1578  C1580   1.406   .     S
C1578  O1619   1.297   .     A
C1579  O1617   1.297   .     A
C1579  C1581   1.406   .     S
C1579  O1618   1.297   .     A
C1581  C500    1.188   1_556 S
C1583  C1442   1.399   1_655 S
C1584  C1462   1.399   1_655 S
Cu1585 O1616   1.926   .     S
Cu1585 N1603   2.037   .     S
Cu1585 O1618   1.926   .     S
Cu1585 O1605   1.961   .     S
Cu1585 O1614   1.961   .     S
Cu1585 Cu1586  2.711   .     S
Cu1586 O1619   1.926   .     S
Cu1586 O1615   1.961   .     S
Cu1586 N1604   2.037   .     S
Cu1586 O1617   1.926   .     S
Cu1586 O1613   1.961   .     S
H1591  O1606   1.014   .     S
H1592  O1608   1.014   .     S
H1593  O1610   1.014   .     S
H1594  O1612   1.014   .     S
