data_str_m2_o2_o10_pcu_sym.240
_audit_creation_date              2020-01-03
_audit_creation_method            'Materials Studio'
_symmetry_space_group_name_H-M    'P1'
_symmetry_Int_Tables_number       1
_symmetry_cell_setting            triclinic
loop_
_symmetry_equiv_pos_as_xyz
  x,y,z
_cell_length_a                    26.2020
_cell_length_b                    30.2995
_cell_length_c                    27.7235
_cell_angle_alpha                 89.5148
_cell_angle_beta                  97.9352
_cell_angle_gamma                 90.2376
loop_
_atom_site_label
_atom_site_type_symbol
_atom_site_fract_x
_atom_site_fract_y
_atom_site_fract_z
_atom_site_U_iso_or_equiv
_atom_site_adp_type
_atom_site_occupancy
C1     C     0.16718   0.16492   0.25032   0.00000  Uiso   1.00
C2     C     0.16709   0.33513   0.24978   0.00000  Uiso   1.00
C3     C     0.20678   0.26994   0.05900   0.00000  Uiso   1.00
C4     C     0.14100   0.21684   0.44295   0.00000  Uiso   1.00
C5     C     0.20584   0.26988   0.10961   0.00000  Uiso   1.00
C6     C     0.14108   0.21772   0.39222   0.00000  Uiso   1.00
C7     C     0.12743   0.23021   0.09977   0.00000  Uiso   1.00
C8     C     0.19204   0.28238   0.39830   0.00000  Uiso   1.00
C9     C     0.12642   0.23017   0.04891   0.00000  Uiso   1.00
C10    C     0.19211   0.28322   0.44903   0.00000  Uiso   1.00
C11    C     0.16660   0.25004   0.02732   0.00000  Uiso   1.00
C12    C     0.16658   0.25002   0.47262   0.00000  Uiso   1.00
C13    C     0.06789   0.24999   0.23755   0.00000  Uiso   1.00
C14    C     0.26544   0.25001   0.26245   0.00000  Uiso   1.00
C15    C     0.01263   0.25002   0.23067   0.00000  Uiso   1.00
C16    C     0.32070   0.24999   0.26932   0.00000  Uiso   1.00
C17    C     0.18659   0.04663   0.29239   0.00000  Uiso   1.00
C18    C     0.18141   0.45360   0.21007   0.00000  Uiso   1.00
C19    C     0.18644   0.09284   0.29367   0.00000  Uiso   1.00
C20    C     0.18118   0.40748   0.20892   0.00000  Uiso   1.00
C21    C     0.16731   0.11660   0.25099   0.00000  Uiso   1.00
C22    C     0.16702   0.38352   0.24902   0.00000  Uiso   1.00
C23    C     0.14723   0.09396   0.20863   0.00000  Uiso   1.00
C24    C     0.15182   0.40616   0.28859   0.00000  Uiso   1.00
C25    C     0.14620   0.04816   0.20830   0.00000  Uiso   1.00
C26    C     0.15093   0.45197   0.28872   0.00000  Uiso   1.00
C27    C     0.16592   0.02427   0.25013   0.00000  Uiso   1.00
C28    C     0.16581   0.47591   0.24953   0.00000  Uiso   1.00
Cu29   Cu    0.16667   0.25000   0.29821   0.00000  Uiso   1.00
Cu30   Cu    0.16667   0.25001   0.20178   0.00000  Uiso   1.00
H31    H     0.32599   0.25007   0.19358   0.00000  Uiso   1.00
H32    H     0.00735   0.24993   0.30640   0.00000  Uiso   1.00
H33    H     0.20402   0.02810   0.32394   0.00000  Uiso   1.00
H34    H     0.19482   0.47199   0.18056   0.00000  Uiso   1.00
H35    H     0.13170   0.11173   0.17583   0.00000  Uiso   1.00
H36    H     0.14011   0.38844   0.31936   0.00000  Uiso   1.00
H37    H     0.12976   0.03135   0.17542   0.00000  Uiso   1.00
H38    H     0.13838   0.46875   0.31935   0.00000  Uiso   1.00
H39    H     0.23934   0.28507   0.04518   0.00000  Uiso   1.00
H40    H     0.12145   0.18987   0.45855   0.00000  Uiso   1.00
H41    H     0.23678   0.28577   0.13308   0.00000  Uiso   1.00
H42    H     0.12072   0.19230   0.37008   0.00000  Uiso   1.00
H43    H     0.09645   0.21442   0.11551   0.00000  Uiso   1.00
H44    H     0.21221   0.30797   0.38105   0.00000  Uiso   1.00
H45    H     0.09382   0.21509   0.02688   0.00000  Uiso   1.00
H46    H     0.21157   0.31022   0.46925   0.00000  Uiso   1.00
N47    N     0.16667   0.25001   0.12934   0.00000  Uiso   1.00
N48    N     0.16667   0.24999   0.37065   0.00000  Uiso   1.00
O49    O     0.16667   0.18573   0.29071   0.00000  Uiso   1.00
O50    O     0.16666   0.31428   0.20928   0.00000  Uiso   1.00
O51    O     0.16667   0.18573   0.20928   0.00000  Uiso   1.00
O52    O     0.16666   0.31427   0.29072   0.00000  Uiso   1.00
O53    O     0.09161   0.25000   0.28132   0.00000  Uiso   1.00
O54    O     0.24172   0.25001   0.21868   0.00000  Uiso   1.00
O55    O     0.09161   0.25000   0.19988   0.00000  Uiso   1.00
O56    O     0.24172   0.25000   0.30011   0.00000  Uiso   1.00
O57    O     0.20991   0.11502   0.33442   0.00000  Uiso   1.00
C58    C     0.18399   0.10542   0.37466   0.00000  Uiso   1.00
H59    H     0.14143   0.10886   0.36543   0.00000  Uiso   1.00
H60    H     0.19688   0.12939   0.40389   0.00000  Uiso   1.00
H61    H     0.19400   0.07197   0.38963   0.00000  Uiso   1.00
O62    O     0.19977   0.38595   0.17111   0.00000  Uiso   1.00
C63    C     0.16347   0.38980   0.12870   0.00000  Uiso   1.00
H64    H     0.12478   0.37749   0.13498   0.00000  Uiso   1.00
H65    H     0.17640   0.36912   0.09988   0.00000  Uiso   1.00
H66    H     0.16081   0.42437   0.11485   0.00000  Uiso   1.00
C67    C     0.50051   0.16492   0.25032   0.00000  Uiso   1.00
C68    C     0.50042   0.33513   0.24978   0.00000  Uiso   1.00
C69    C     0.54012   0.26994   0.05900   0.00000  Uiso   1.00
C70    C     0.47433   0.21684   0.44295   0.00000  Uiso   1.00
C71    C     0.53917   0.26988   0.10961   0.00000  Uiso   1.00
C72    C     0.47441   0.21772   0.39222   0.00000  Uiso   1.00
C73    C     0.46076   0.23021   0.09977   0.00000  Uiso   1.00
C74    C     0.52537   0.28238   0.39830   0.00000  Uiso   1.00
C75    C     0.45975   0.23017   0.04891   0.00000  Uiso   1.00
C76    C     0.52544   0.28322   0.44903   0.00000  Uiso   1.00
C77    C     0.49993   0.25004   0.02732   0.00000  Uiso   1.00
C78    C     0.49992   0.25002   0.47262   0.00000  Uiso   1.00
C79    C     0.40122   0.24999   0.23755   0.00000  Uiso   1.00
C80    C     0.59877   0.25001   0.26245   0.00000  Uiso   1.00
C81    C     0.34596   0.25002   0.23067   0.00000  Uiso   1.00
C82    C     0.65403   0.24999   0.26932   0.00000  Uiso   1.00
C83    C     0.51992   0.04663   0.29239   0.00000  Uiso   1.00
C84    C     0.51474   0.45360   0.21007   0.00000  Uiso   1.00
C85    C     0.51978   0.09284   0.29367   0.00000  Uiso   1.00
C86    C     0.51451   0.40748   0.20892   0.00000  Uiso   1.00
C87    C     0.50064   0.11660   0.25099   0.00000  Uiso   1.00
C88    C     0.50036   0.38352   0.24902   0.00000  Uiso   1.00
C89    C     0.48057   0.09396   0.20863   0.00000  Uiso   1.00
C90    C     0.48515   0.40616   0.28859   0.00000  Uiso   1.00
C91    C     0.47953   0.04816   0.20830   0.00000  Uiso   1.00
C92    C     0.48427   0.45197   0.28872   0.00000  Uiso   1.00
C93    C     0.49926   0.02427   0.25013   0.00000  Uiso   1.00
C94    C     0.49915   0.47591   0.24953   0.00000  Uiso   1.00
Cu95   Cu    0.50000   0.25000   0.29821   0.00000  Uiso   1.00
Cu96   Cu    0.50000   0.25001   0.20178   0.00000  Uiso   1.00
H97    H     0.65932   0.25007   0.19358   0.00000  Uiso   1.00
H98    H     0.34068   0.24993   0.30640   0.00000  Uiso   1.00
H99    H     0.53735   0.02810   0.32394   0.00000  Uiso   1.00
H100   H     0.52816   0.47199   0.18056   0.00000  Uiso   1.00
H101   H     0.46503   0.11173   0.17583   0.00000  Uiso   1.00
H102   H     0.47344   0.38844   0.31936   0.00000  Uiso   1.00
H103   H     0.46309   0.03135   0.17542   0.00000  Uiso   1.00
H104   H     0.47172   0.46875   0.31935   0.00000  Uiso   1.00
H105   H     0.57267   0.28507   0.04518   0.00000  Uiso   1.00
H106   H     0.45479   0.18987   0.45855   0.00000  Uiso   1.00
H107   H     0.57011   0.28577   0.13308   0.00000  Uiso   1.00
H108   H     0.45406   0.19230   0.37008   0.00000  Uiso   1.00
H109   H     0.42978   0.21442   0.11551   0.00000  Uiso   1.00
H110   H     0.54554   0.30797   0.38105   0.00000  Uiso   1.00
H111   H     0.42715   0.21509   0.02688   0.00000  Uiso   1.00
H112   H     0.54491   0.31022   0.46925   0.00000  Uiso   1.00
N113   N     0.50000   0.25001   0.12934   0.00000  Uiso   1.00
N114   N     0.50000   0.24999   0.37065   0.00000  Uiso   1.00
O115   O     0.50000   0.18573   0.29071   0.00000  Uiso   1.00
O116   O     0.50000   0.31428   0.20928   0.00000  Uiso   1.00
O117   O     0.50000   0.18573   0.20928   0.00000  Uiso   1.00
O118   O     0.50000   0.31427   0.29072   0.00000  Uiso   1.00
O119   O     0.42495   0.25000   0.28132   0.00000  Uiso   1.00
O120   O     0.57505   0.25001   0.21868   0.00000  Uiso   1.00
O121   O     0.42495   0.25000   0.19988   0.00000  Uiso   1.00
O122   O     0.57505   0.25000   0.30011   0.00000  Uiso   1.00
O123   O     0.54324   0.11502   0.33442   0.00000  Uiso   1.00
C124   C     0.51733   0.10542   0.37466   0.00000  Uiso   1.00
H125   H     0.47476   0.10886   0.36543   0.00000  Uiso   1.00
H126   H     0.53021   0.12939   0.40389   0.00000  Uiso   1.00
H127   H     0.52734   0.07197   0.38963   0.00000  Uiso   1.00
O128   O     0.53311   0.38595   0.17111   0.00000  Uiso   1.00
C129   C     0.49680   0.38980   0.12870   0.00000  Uiso   1.00
H130   H     0.45812   0.37749   0.13498   0.00000  Uiso   1.00
H131   H     0.50974   0.36912   0.09988   0.00000  Uiso   1.00
H132   H     0.49414   0.42437   0.11485   0.00000  Uiso   1.00
C133   C     0.83385   0.16492   0.25032   0.00000  Uiso   1.00
C134   C     0.83375   0.33513   0.24978   0.00000  Uiso   1.00
C135   C     0.87345   0.26994   0.05900   0.00000  Uiso   1.00
C136   C     0.80767   0.21684   0.44295   0.00000  Uiso   1.00
C137   C     0.87250   0.26988   0.10961   0.00000  Uiso   1.00
C138   C     0.80775   0.21772   0.39222   0.00000  Uiso   1.00
C139   C     0.79409   0.23021   0.09977   0.00000  Uiso   1.00
C140   C     0.85871   0.28238   0.39830   0.00000  Uiso   1.00
C141   C     0.79309   0.23017   0.04891   0.00000  Uiso   1.00
C142   C     0.85878   0.28322   0.44903   0.00000  Uiso   1.00
C143   C     0.83327   0.25004   0.02732   0.00000  Uiso   1.00
C144   C     0.83325   0.25002   0.47262   0.00000  Uiso   1.00
C145   C     0.73456   0.24999   0.23755   0.00000  Uiso   1.00
C146   C     0.93211   0.25001   0.26245   0.00000  Uiso   1.00
C147   C     0.67930   0.25002   0.23067   0.00000  Uiso   1.00
C148   C     0.98737   0.24999   0.26932   0.00000  Uiso   1.00
C149   C     0.85325   0.04663   0.29239   0.00000  Uiso   1.00
C150   C     0.84807   0.45360   0.21007   0.00000  Uiso   1.00
C151   C     0.85311   0.09284   0.29367   0.00000  Uiso   1.00
C152   C     0.84785   0.40748   0.20892   0.00000  Uiso   1.00
C153   C     0.83398   0.11660   0.25099   0.00000  Uiso   1.00
C154   C     0.83369   0.38352   0.24902   0.00000  Uiso   1.00
C155   C     0.81390   0.09396   0.20863   0.00000  Uiso   1.00
C156   C     0.81849   0.40616   0.28859   0.00000  Uiso   1.00
C157   C     0.81286   0.04816   0.20830   0.00000  Uiso   1.00
C158   C     0.81760   0.45197   0.28872   0.00000  Uiso   1.00
C159   C     0.83259   0.02427   0.25013   0.00000  Uiso   1.00
C160   C     0.83248   0.47591   0.24953   0.00000  Uiso   1.00
Cu161  Cu    0.83333   0.25000   0.29821   0.00000  Uiso   1.00
Cu162  Cu    0.83333   0.25001   0.20178   0.00000  Uiso   1.00
H163   H     0.99265   0.25007   0.19358   0.00000  Uiso   1.00
H164   H     0.67401   0.24993   0.30640   0.00000  Uiso   1.00
H165   H     0.87069   0.02810   0.32394   0.00000  Uiso   1.00
H166   H     0.86149   0.47199   0.18056   0.00000  Uiso   1.00
H167   H     0.79836   0.11173   0.17583   0.00000  Uiso   1.00
H168   H     0.80677   0.38844   0.31936   0.00000  Uiso   1.00
H169   H     0.79642   0.03135   0.17542   0.00000  Uiso   1.00
H170   H     0.80505   0.46875   0.31935   0.00000  Uiso   1.00
H171   H     0.90601   0.28507   0.04518   0.00000  Uiso   1.00
H172   H     0.78812   0.18987   0.45855   0.00000  Uiso   1.00
H173   H     0.90345   0.28577   0.13308   0.00000  Uiso   1.00
H174   H     0.78739   0.19230   0.37008   0.00000  Uiso   1.00
H175   H     0.76311   0.21442   0.11551   0.00000  Uiso   1.00
H176   H     0.87887   0.30797   0.38105   0.00000  Uiso   1.00
H177   H     0.76049   0.21509   0.02688   0.00000  Uiso   1.00
H178   H     0.87824   0.31022   0.46925   0.00000  Uiso   1.00
N179   N     0.83333   0.25001   0.12934   0.00000  Uiso   1.00
N180   N     0.83333   0.24999   0.37065   0.00000  Uiso   1.00
O181   O     0.83334   0.18573   0.29071   0.00000  Uiso   1.00
O182   O     0.83333   0.31428   0.20928   0.00000  Uiso   1.00
O183   O     0.83334   0.18573   0.20928   0.00000  Uiso   1.00
O184   O     0.83333   0.31427   0.29072   0.00000  Uiso   1.00
O185   O     0.75828   0.25000   0.28132   0.00000  Uiso   1.00
O186   O     0.90839   0.25001   0.21868   0.00000  Uiso   1.00
O187   O     0.75828   0.25000   0.19988   0.00000  Uiso   1.00
O188   O     0.90839   0.25000   0.30011   0.00000  Uiso   1.00
O189   O     0.87658   0.11502   0.33442   0.00000  Uiso   1.00
C190   C     0.85066   0.10542   0.37466   0.00000  Uiso   1.00
H191   H     0.80809   0.10886   0.36543   0.00000  Uiso   1.00
H192   H     0.86354   0.12939   0.40389   0.00000  Uiso   1.00
H193   H     0.86067   0.07197   0.38963   0.00000  Uiso   1.00
O194   O     0.86644   0.38595   0.17111   0.00000  Uiso   1.00
C195   C     0.83013   0.38980   0.12870   0.00000  Uiso   1.00
H196   H     0.79145   0.37749   0.13498   0.00000  Uiso   1.00
H197   H     0.84307   0.36912   0.09988   0.00000  Uiso   1.00
H198   H     0.82747   0.42437   0.11485   0.00000  Uiso   1.00
C199   C     0.16718   0.66492   0.25032   0.00000  Uiso   1.00
C200   C     0.16709   0.83513   0.24978   0.00000  Uiso   1.00
C201   C     0.20678   0.76994   0.05900   0.00000  Uiso   1.00
C202   C     0.14100   0.71684   0.44295   0.00000  Uiso   1.00
C203   C     0.20584   0.76988   0.10961   0.00000  Uiso   1.00
C204   C     0.14108   0.71772   0.39222   0.00000  Uiso   1.00
C205   C     0.12743   0.73021   0.09977   0.00000  Uiso   1.00
C206   C     0.19204   0.78238   0.39830   0.00000  Uiso   1.00
C207   C     0.12642   0.73017   0.04891   0.00000  Uiso   1.00
C208   C     0.19211   0.78322   0.44903   0.00000  Uiso   1.00
C209   C     0.16660   0.75004   0.02732   0.00000  Uiso   1.00
C210   C     0.16658   0.75002   0.47262   0.00000  Uiso   1.00
C211   C     0.06789   0.74999   0.23755   0.00000  Uiso   1.00
C212   C     0.26544   0.75001   0.26245   0.00000  Uiso   1.00
C213   C     0.01263   0.75002   0.23067   0.00000  Uiso   1.00
C214   C     0.32070   0.74999   0.26932   0.00000  Uiso   1.00
C215   C     0.18659   0.54663   0.29239   0.00000  Uiso   1.00
C216   C     0.18141   0.95360   0.21007   0.00000  Uiso   1.00
C217   C     0.18644   0.59284   0.29367   0.00000  Uiso   1.00
C218   C     0.18118   0.90748   0.20892   0.00000  Uiso   1.00
C219   C     0.16731   0.61660   0.25099   0.00000  Uiso   1.00
C220   C     0.16702   0.88352   0.24902   0.00000  Uiso   1.00
C221   C     0.14723   0.59396   0.20863   0.00000  Uiso   1.00
C222   C     0.15182   0.90616   0.28859   0.00000  Uiso   1.00
C223   C     0.14620   0.54816   0.20830   0.00000  Uiso   1.00
C224   C     0.15093   0.95197   0.28872   0.00000  Uiso   1.00
C225   C     0.16592   0.52427   0.25013   0.00000  Uiso   1.00
C226   C     0.16581   0.97591   0.24953   0.00000  Uiso   1.00
Cu227  Cu    0.16667   0.75000   0.29821   0.00000  Uiso   1.00
Cu228  Cu    0.16667   0.75001   0.20178   0.00000  Uiso   1.00
H229   H     0.32599   0.75007   0.19358   0.00000  Uiso   1.00
H230   H     0.00735   0.74993   0.30640   0.00000  Uiso   1.00
H231   H     0.20402   0.52810   0.32394   0.00000  Uiso   1.00
H232   H     0.19482   0.97199   0.18056   0.00000  Uiso   1.00
H233   H     0.13170   0.61173   0.17583   0.00000  Uiso   1.00
H234   H     0.14011   0.88844   0.31936   0.00000  Uiso   1.00
H235   H     0.12976   0.53135   0.17542   0.00000  Uiso   1.00
H236   H     0.13838   0.96875   0.31935   0.00000  Uiso   1.00
H237   H     0.23934   0.78507   0.04518   0.00000  Uiso   1.00
H238   H     0.12145   0.68987   0.45855   0.00000  Uiso   1.00
H239   H     0.23678   0.78577   0.13308   0.00000  Uiso   1.00
H240   H     0.12072   0.69230   0.37008   0.00000  Uiso   1.00
H241   H     0.09645   0.71442   0.11551   0.00000  Uiso   1.00
H242   H     0.21221   0.80797   0.38105   0.00000  Uiso   1.00
H243   H     0.09382   0.71509   0.02688   0.00000  Uiso   1.00
H244   H     0.21157   0.81022   0.46925   0.00000  Uiso   1.00
N245   N     0.16667   0.75001   0.12934   0.00000  Uiso   1.00
N246   N     0.16667   0.74999   0.37065   0.00000  Uiso   1.00
O247   O     0.16667   0.68573   0.29071   0.00000  Uiso   1.00
O248   O     0.16666   0.81428   0.20928   0.00000  Uiso   1.00
O249   O     0.16667   0.68573   0.20928   0.00000  Uiso   1.00
O250   O     0.16666   0.81427   0.29072   0.00000  Uiso   1.00
O251   O     0.09161   0.75000   0.28132   0.00000  Uiso   1.00
O252   O     0.24172   0.75001   0.21868   0.00000  Uiso   1.00
O253   O     0.09161   0.75000   0.19988   0.00000  Uiso   1.00
O254   O     0.24172   0.75000   0.30011   0.00000  Uiso   1.00
O255   O     0.20991   0.61502   0.33442   0.00000  Uiso   1.00
C256   C     0.18399   0.60542   0.37466   0.00000  Uiso   1.00
H257   H     0.14143   0.60886   0.36543   0.00000  Uiso   1.00
H258   H     0.19688   0.62939   0.40389   0.00000  Uiso   1.00
H259   H     0.19400   0.57197   0.38963   0.00000  Uiso   1.00
O260   O     0.19977   0.88595   0.17111   0.00000  Uiso   1.00
C261   C     0.16347   0.88980   0.12870   0.00000  Uiso   1.00
H262   H     0.12478   0.87749   0.13498   0.00000  Uiso   1.00
H263   H     0.17640   0.86912   0.09988   0.00000  Uiso   1.00
H264   H     0.16081   0.92437   0.11485   0.00000  Uiso   1.00
C265   C     0.50051   0.66492   0.25032   0.00000  Uiso   1.00
C266   C     0.50042   0.83513   0.24978   0.00000  Uiso   1.00
C267   C     0.54012   0.76994   0.05900   0.00000  Uiso   1.00
C268   C     0.47433   0.71684   0.44295   0.00000  Uiso   1.00
C269   C     0.53917   0.76988   0.10961   0.00000  Uiso   1.00
C270   C     0.47441   0.71772   0.39222   0.00000  Uiso   1.00
C271   C     0.46076   0.73021   0.09977   0.00000  Uiso   1.00
C272   C     0.52537   0.78238   0.39830   0.00000  Uiso   1.00
C273   C     0.45975   0.73017   0.04891   0.00000  Uiso   1.00
C274   C     0.52544   0.78322   0.44903   0.00000  Uiso   1.00
C275   C     0.49993   0.75004   0.02732   0.00000  Uiso   1.00
C276   C     0.49992   0.75002   0.47262   0.00000  Uiso   1.00
C277   C     0.40122   0.74999   0.23755   0.00000  Uiso   1.00
C278   C     0.59877   0.75001   0.26245   0.00000  Uiso   1.00
C279   C     0.34596   0.75002   0.23067   0.00000  Uiso   1.00
C280   C     0.65403   0.74999   0.26932   0.00000  Uiso   1.00
C281   C     0.51992   0.54663   0.29239   0.00000  Uiso   1.00
C282   C     0.51474   0.95360   0.21007   0.00000  Uiso   1.00
C283   C     0.51978   0.59284   0.29367   0.00000  Uiso   1.00
C284   C     0.51451   0.90748   0.20892   0.00000  Uiso   1.00
C285   C     0.50064   0.61660   0.25099   0.00000  Uiso   1.00
C286   C     0.50036   0.88352   0.24902   0.00000  Uiso   1.00
C287   C     0.48057   0.59396   0.20863   0.00000  Uiso   1.00
C288   C     0.48515   0.90616   0.28859   0.00000  Uiso   1.00
C289   C     0.47953   0.54816   0.20830   0.00000  Uiso   1.00
C290   C     0.48427   0.95197   0.28872   0.00000  Uiso   1.00
C291   C     0.49926   0.52427   0.25013   0.00000  Uiso   1.00
C292   C     0.49915   0.97591   0.24953   0.00000  Uiso   1.00
Cu293  Cu    0.50000   0.75000   0.29821   0.00000  Uiso   1.00
Cu294  Cu    0.50000   0.75001   0.20178   0.00000  Uiso   1.00
H295   H     0.65932   0.75007   0.19358   0.00000  Uiso   1.00
H296   H     0.34068   0.74993   0.30640   0.00000  Uiso   1.00
H297   H     0.53735   0.52810   0.32394   0.00000  Uiso   1.00
H298   H     0.52816   0.97199   0.18056   0.00000  Uiso   1.00
H299   H     0.46503   0.61173   0.17583   0.00000  Uiso   1.00
H300   H     0.47344   0.88844   0.31936   0.00000  Uiso   1.00
H301   H     0.46309   0.53135   0.17542   0.00000  Uiso   1.00
H302   H     0.47172   0.96875   0.31935   0.00000  Uiso   1.00
H303   H     0.57267   0.78507   0.04518   0.00000  Uiso   1.00
H304   H     0.45479   0.68987   0.45855   0.00000  Uiso   1.00
H305   H     0.57011   0.78577   0.13308   0.00000  Uiso   1.00
H306   H     0.45406   0.69230   0.37008   0.00000  Uiso   1.00
H307   H     0.42978   0.71442   0.11551   0.00000  Uiso   1.00
H308   H     0.54554   0.80797   0.38105   0.00000  Uiso   1.00
H309   H     0.42715   0.71509   0.02688   0.00000  Uiso   1.00
H310   H     0.54491   0.81022   0.46925   0.00000  Uiso   1.00
N311   N     0.50000   0.75001   0.12934   0.00000  Uiso   1.00
N312   N     0.50000   0.74999   0.37065   0.00000  Uiso   1.00
O313   O     0.50000   0.68573   0.29071   0.00000  Uiso   1.00
O314   O     0.50000   0.81428   0.20928   0.00000  Uiso   1.00
O315   O     0.50000   0.68573   0.20928   0.00000  Uiso   1.00
O316   O     0.50000   0.81427   0.29072   0.00000  Uiso   1.00
O317   O     0.42495   0.75000   0.28132   0.00000  Uiso   1.00
O318   O     0.57505   0.75001   0.21868   0.00000  Uiso   1.00
O319   O     0.42495   0.75000   0.19988   0.00000  Uiso   1.00
O320   O     0.57505   0.75000   0.30011   0.00000  Uiso   1.00
O321   O     0.54324   0.61502   0.33442   0.00000  Uiso   1.00
C322   C     0.51733   0.60542   0.37466   0.00000  Uiso   1.00
H323   H     0.47476   0.60886   0.36543   0.00000  Uiso   1.00
H324   H     0.53021   0.62939   0.40389   0.00000  Uiso   1.00
H325   H     0.52734   0.57197   0.38963   0.00000  Uiso   1.00
O326   O     0.53311   0.88595   0.17111   0.00000  Uiso   1.00
C327   C     0.49680   0.88980   0.12870   0.00000  Uiso   1.00
H328   H     0.45812   0.87749   0.13498   0.00000  Uiso   1.00
H329   H     0.50974   0.86912   0.09988   0.00000  Uiso   1.00
H330   H     0.49414   0.92437   0.11485   0.00000  Uiso   1.00
C331   C     0.83385   0.66492   0.25032   0.00000  Uiso   1.00
C332   C     0.83375   0.83513   0.24978   0.00000  Uiso   1.00
C333   C     0.87345   0.76994   0.05900   0.00000  Uiso   1.00
C334   C     0.80767   0.71684   0.44295   0.00000  Uiso   1.00
C335   C     0.87250   0.76988   0.10961   0.00000  Uiso   1.00
C336   C     0.80775   0.71772   0.39222   0.00000  Uiso   1.00
C337   C     0.79409   0.73021   0.09977   0.00000  Uiso   1.00
C338   C     0.85871   0.78238   0.39830   0.00000  Uiso   1.00
C339   C     0.79309   0.73017   0.04891   0.00000  Uiso   1.00
C340   C     0.85878   0.78322   0.44903   0.00000  Uiso   1.00
C341   C     0.83327   0.75004   0.02732   0.00000  Uiso   1.00
C342   C     0.83325   0.75002   0.47262   0.00000  Uiso   1.00
C343   C     0.73456   0.74999   0.23755   0.00000  Uiso   1.00
C344   C     0.93211   0.75001   0.26245   0.00000  Uiso   1.00
C345   C     0.67930   0.75002   0.23067   0.00000  Uiso   1.00
C346   C     0.98737   0.74999   0.26932   0.00000  Uiso   1.00
C347   C     0.85325   0.54663   0.29239   0.00000  Uiso   1.00
C348   C     0.84807   0.95360   0.21007   0.00000  Uiso   1.00
C349   C     0.85311   0.59284   0.29367   0.00000  Uiso   1.00
C350   C     0.84785   0.90748   0.20892   0.00000  Uiso   1.00
C351   C     0.83398   0.61660   0.25099   0.00000  Uiso   1.00
C352   C     0.83369   0.88352   0.24902   0.00000  Uiso   1.00
C353   C     0.81390   0.59396   0.20863   0.00000  Uiso   1.00
C354   C     0.81849   0.90616   0.28859   0.00000  Uiso   1.00
C355   C     0.81286   0.54816   0.20830   0.00000  Uiso   1.00
C356   C     0.81760   0.95197   0.28872   0.00000  Uiso   1.00
C357   C     0.83259   0.52427   0.25013   0.00000  Uiso   1.00
C358   C     0.83248   0.97591   0.24953   0.00000  Uiso   1.00
Cu359  Cu    0.83333   0.75000   0.29821   0.00000  Uiso   1.00
Cu360  Cu    0.83333   0.75001   0.20178   0.00000  Uiso   1.00
H361   H     0.99265   0.75007   0.19358   0.00000  Uiso   1.00
H362   H     0.67401   0.74993   0.30640   0.00000  Uiso   1.00
H363   H     0.87069   0.52810   0.32394   0.00000  Uiso   1.00
H364   H     0.86149   0.97199   0.18056   0.00000  Uiso   1.00
H365   H     0.79836   0.61173   0.17583   0.00000  Uiso   1.00
H366   H     0.80677   0.88844   0.31936   0.00000  Uiso   1.00
H367   H     0.79642   0.53135   0.17542   0.00000  Uiso   1.00
H368   H     0.80505   0.96875   0.31935   0.00000  Uiso   1.00
H369   H     0.90601   0.78507   0.04518   0.00000  Uiso   1.00
H370   H     0.78812   0.68987   0.45855   0.00000  Uiso   1.00
H371   H     0.90345   0.78577   0.13308   0.00000  Uiso   1.00
H372   H     0.78739   0.69230   0.37008   0.00000  Uiso   1.00
H373   H     0.76311   0.71442   0.11551   0.00000  Uiso   1.00
H374   H     0.87887   0.80797   0.38105   0.00000  Uiso   1.00
H375   H     0.76049   0.71509   0.02688   0.00000  Uiso   1.00
H376   H     0.87824   0.81022   0.46925   0.00000  Uiso   1.00
N377   N     0.83333   0.75001   0.12934   0.00000  Uiso   1.00
N378   N     0.83333   0.74999   0.37065   0.00000  Uiso   1.00
O379   O     0.83334   0.68573   0.29071   0.00000  Uiso   1.00
O380   O     0.83333   0.81428   0.20928   0.00000  Uiso   1.00
O381   O     0.83334   0.68573   0.20928   0.00000  Uiso   1.00
O382   O     0.83333   0.81427   0.29072   0.00000  Uiso   1.00
O383   O     0.75828   0.75000   0.28132   0.00000  Uiso   1.00
O384   O     0.90839   0.75001   0.21868   0.00000  Uiso   1.00
O385   O     0.75828   0.75000   0.19988   0.00000  Uiso   1.00
O386   O     0.90839   0.75000   0.30011   0.00000  Uiso   1.00
O387   O     0.87658   0.61502   0.33442   0.00000  Uiso   1.00
C388   C     0.85066   0.60542   0.37466   0.00000  Uiso   1.00
H389   H     0.80809   0.60886   0.36543   0.00000  Uiso   1.00
H390   H     0.86354   0.62939   0.40389   0.00000  Uiso   1.00
H391   H     0.86067   0.57197   0.38963   0.00000  Uiso   1.00
O392   O     0.86644   0.88595   0.17111   0.00000  Uiso   1.00
C393   C     0.83013   0.88980   0.12870   0.00000  Uiso   1.00
H394   H     0.79145   0.87749   0.13498   0.00000  Uiso   1.00
H395   H     0.84307   0.86912   0.09988   0.00000  Uiso   1.00
H396   H     0.82747   0.92437   0.11485   0.00000  Uiso   1.00
C397   C     0.16718   0.16492   0.75032   0.00000  Uiso   1.00
C398   C     0.16709   0.33513   0.74978   0.00000  Uiso   1.00
C399   C     0.20678   0.26994   0.55900   0.00000  Uiso   1.00
C400   C     0.14100   0.21684   0.94295   0.00000  Uiso   1.00
C401   C     0.20584   0.26988   0.60961   0.00000  Uiso   1.00
C402   C     0.14108   0.21772   0.89222   0.00000  Uiso   1.00
C403   C     0.12743   0.23021   0.59977   0.00000  Uiso   1.00
C404   C     0.19204   0.28238   0.89830   0.00000  Uiso   1.00
C405   C     0.12642   0.23017   0.54891   0.00000  Uiso   1.00
C406   C     0.19211   0.28322   0.94903   0.00000  Uiso   1.00
C407   C     0.16660   0.25004   0.52732   0.00000  Uiso   1.00
C408   C     0.16658   0.25002   0.97262   0.00000  Uiso   1.00
C409   C     0.06789   0.24999   0.73755   0.00000  Uiso   1.00
C410   C     0.26544   0.25001   0.76245   0.00000  Uiso   1.00
C411   C     0.01263   0.25002   0.73067   0.00000  Uiso   1.00
C412   C     0.32070   0.24999   0.76932   0.00000  Uiso   1.00
C413   C     0.18659   0.04663   0.79239   0.00000  Uiso   1.00
C414   C     0.18141   0.45360   0.71007   0.00000  Uiso   1.00
C415   C     0.18644   0.09284   0.79367   0.00000  Uiso   1.00
C416   C     0.18118   0.40748   0.70892   0.00000  Uiso   1.00
C417   C     0.16731   0.11660   0.75099   0.00000  Uiso   1.00
C418   C     0.16702   0.38352   0.74902   0.00000  Uiso   1.00
C419   C     0.14723   0.09396   0.70863   0.00000  Uiso   1.00
C420   C     0.15182   0.40616   0.78859   0.00000  Uiso   1.00
C421   C     0.14620   0.04816   0.70830   0.00000  Uiso   1.00
C422   C     0.15093   0.45197   0.78872   0.00000  Uiso   1.00
C423   C     0.16592   0.02427   0.75013   0.00000  Uiso   1.00
C424   C     0.16581   0.47591   0.74953   0.00000  Uiso   1.00
Cu425  Cu    0.16667   0.25000   0.79821   0.00000  Uiso   1.00
Cu426  Cu    0.16667   0.25001   0.70178   0.00000  Uiso   1.00
H427   H     0.32599   0.25007   0.69358   0.00000  Uiso   1.00
H428   H     0.00735   0.24993   0.80640   0.00000  Uiso   1.00
H429   H     0.20402   0.02810   0.82394   0.00000  Uiso   1.00
H430   H     0.19482   0.47199   0.68056   0.00000  Uiso   1.00
H431   H     0.13170   0.11173   0.67583   0.00000  Uiso   1.00
H432   H     0.14011   0.38844   0.81936   0.00000  Uiso   1.00
H433   H     0.12976   0.03135   0.67542   0.00000  Uiso   1.00
H434   H     0.13838   0.46875   0.81935   0.00000  Uiso   1.00
H435   H     0.23934   0.28507   0.54518   0.00000  Uiso   1.00
H436   H     0.12145   0.18987   0.95855   0.00000  Uiso   1.00
H437   H     0.23678   0.28577   0.63308   0.00000  Uiso   1.00
H438   H     0.12072   0.19230   0.87008   0.00000  Uiso   1.00
H439   H     0.09645   0.21442   0.61551   0.00000  Uiso   1.00
H440   H     0.21221   0.30797   0.88105   0.00000  Uiso   1.00
H441   H     0.09382   0.21509   0.52688   0.00000  Uiso   1.00
H442   H     0.21157   0.31022   0.96925   0.00000  Uiso   1.00
N443   N     0.16667   0.25001   0.62934   0.00000  Uiso   1.00
N444   N     0.16667   0.24999   0.87065   0.00000  Uiso   1.00
O445   O     0.16667   0.18573   0.79071   0.00000  Uiso   1.00
O446   O     0.16666   0.31428   0.70928   0.00000  Uiso   1.00
O447   O     0.16667   0.18573   0.70928   0.00000  Uiso   1.00
O448   O     0.16666   0.31427   0.79072   0.00000  Uiso   1.00
O449   O     0.09161   0.25000   0.78132   0.00000  Uiso   1.00
O450   O     0.24172   0.25001   0.71868   0.00000  Uiso   1.00
O451   O     0.09161   0.25000   0.69988   0.00000  Uiso   1.00
O452   O     0.24172   0.25000   0.80011   0.00000  Uiso   1.00
O453   O     0.20991   0.11502   0.83442   0.00000  Uiso   1.00
C454   C     0.18399   0.10542   0.87466   0.00000  Uiso   1.00
H455   H     0.14143   0.10886   0.86543   0.00000  Uiso   1.00
H456   H     0.19688   0.12939   0.90389   0.00000  Uiso   1.00
H457   H     0.19400   0.07197   0.88963   0.00000  Uiso   1.00
O458   O     0.19977   0.38595   0.67111   0.00000  Uiso   1.00
C459   C     0.16347   0.38980   0.62870   0.00000  Uiso   1.00
H460   H     0.12478   0.37749   0.63498   0.00000  Uiso   1.00
H461   H     0.17640   0.36912   0.59988   0.00000  Uiso   1.00
H462   H     0.16081   0.42437   0.61485   0.00000  Uiso   1.00
C463   C     0.50051   0.16492   0.75032   0.00000  Uiso   1.00
C464   C     0.50042   0.33513   0.74978   0.00000  Uiso   1.00
C465   C     0.54012   0.26994   0.55900   0.00000  Uiso   1.00
C466   C     0.47433   0.21684   0.94295   0.00000  Uiso   1.00
C467   C     0.53917   0.26988   0.60961   0.00000  Uiso   1.00
C468   C     0.47441   0.21772   0.89222   0.00000  Uiso   1.00
C469   C     0.46076   0.23021   0.59977   0.00000  Uiso   1.00
C470   C     0.52537   0.28238   0.89830   0.00000  Uiso   1.00
C471   C     0.45975   0.23017   0.54891   0.00000  Uiso   1.00
C472   C     0.52544   0.28322   0.94903   0.00000  Uiso   1.00
C473   C     0.49993   0.25004   0.52732   0.00000  Uiso   1.00
C474   C     0.49992   0.25002   0.97262   0.00000  Uiso   1.00
C475   C     0.40122   0.24999   0.73755   0.00000  Uiso   1.00
C476   C     0.59877   0.25001   0.76245   0.00000  Uiso   1.00
C477   C     0.34596   0.25002   0.73067   0.00000  Uiso   1.00
C478   C     0.65403   0.24999   0.76932   0.00000  Uiso   1.00
C479   C     0.51992   0.04663   0.79239   0.00000  Uiso   1.00
C480   C     0.51474   0.45360   0.71007   0.00000  Uiso   1.00
C481   C     0.51978   0.09284   0.79367   0.00000  Uiso   1.00
C482   C     0.51451   0.40748   0.70892   0.00000  Uiso   1.00
C483   C     0.50064   0.11660   0.75099   0.00000  Uiso   1.00
C484   C     0.50036   0.38352   0.74902   0.00000  Uiso   1.00
C485   C     0.48057   0.09396   0.70863   0.00000  Uiso   1.00
C486   C     0.48515   0.40616   0.78859   0.00000  Uiso   1.00
C487   C     0.47953   0.04816   0.70830   0.00000  Uiso   1.00
C488   C     0.48427   0.45197   0.78872   0.00000  Uiso   1.00
C489   C     0.49926   0.02427   0.75013   0.00000  Uiso   1.00
C490   C     0.49915   0.47591   0.74953   0.00000  Uiso   1.00
Cu491  Cu    0.50000   0.25000   0.79821   0.00000  Uiso   1.00
Cu492  Cu    0.50000   0.25001   0.70178   0.00000  Uiso   1.00
H493   H     0.65932   0.25007   0.69358   0.00000  Uiso   1.00
H494   H     0.34068   0.24993   0.80640   0.00000  Uiso   1.00
H495   H     0.53735   0.02810   0.82394   0.00000  Uiso   1.00
H496   H     0.52816   0.47199   0.68056   0.00000  Uiso   1.00
H497   H     0.46503   0.11173   0.67583   0.00000  Uiso   1.00
H498   H     0.47344   0.38844   0.81936   0.00000  Uiso   1.00
H499   H     0.46309   0.03135   0.67542   0.00000  Uiso   1.00
H500   H     0.47172   0.46875   0.81935   0.00000  Uiso   1.00
H501   H     0.57267   0.28507   0.54518   0.00000  Uiso   1.00
H502   H     0.45479   0.18987   0.95855   0.00000  Uiso   1.00
H503   H     0.57011   0.28577   0.63308   0.00000  Uiso   1.00
H504   H     0.45406   0.19230   0.87008   0.00000  Uiso   1.00
H505   H     0.42978   0.21442   0.61551   0.00000  Uiso   1.00
H506   H     0.54554   0.30797   0.88105   0.00000  Uiso   1.00
H507   H     0.42715   0.21509   0.52688   0.00000  Uiso   1.00
H508   H     0.54491   0.31022   0.96925   0.00000  Uiso   1.00
N509   N     0.50000   0.25001   0.62934   0.00000  Uiso   1.00
N510   N     0.50000   0.24999   0.87065   0.00000  Uiso   1.00
O511   O     0.50000   0.18573   0.79071   0.00000  Uiso   1.00
O512   O     0.50000   0.31428   0.70928   0.00000  Uiso   1.00
O513   O     0.50000   0.18573   0.70928   0.00000  Uiso   1.00
O514   O     0.50000   0.31427   0.79072   0.00000  Uiso   1.00
O515   O     0.42495   0.25000   0.78132   0.00000  Uiso   1.00
O516   O     0.57505   0.25001   0.71868   0.00000  Uiso   1.00
O517   O     0.42495   0.25000   0.69988   0.00000  Uiso   1.00
O518   O     0.57505   0.25000   0.80011   0.00000  Uiso   1.00
O519   O     0.54324   0.11502   0.83442   0.00000  Uiso   1.00
C520   C     0.51733   0.10542   0.87466   0.00000  Uiso   1.00
H521   H     0.47476   0.10886   0.86543   0.00000  Uiso   1.00
H522   H     0.53021   0.12939   0.90389   0.00000  Uiso   1.00
H523   H     0.52734   0.07197   0.88963   0.00000  Uiso   1.00
O524   O     0.53311   0.38595   0.67111   0.00000  Uiso   1.00
C525   C     0.49680   0.38980   0.62870   0.00000  Uiso   1.00
H526   H     0.45812   0.37749   0.63498   0.00000  Uiso   1.00
H527   H     0.50974   0.36912   0.59988   0.00000  Uiso   1.00
H528   H     0.49414   0.42437   0.61485   0.00000  Uiso   1.00
C529   C     0.83385   0.16492   0.75032   0.00000  Uiso   1.00
C530   C     0.83375   0.33513   0.74978   0.00000  Uiso   1.00
C531   C     0.87345   0.26994   0.55900   0.00000  Uiso   1.00
C532   C     0.80767   0.21684   0.94295   0.00000  Uiso   1.00
C533   C     0.87250   0.26988   0.60961   0.00000  Uiso   1.00
C534   C     0.80775   0.21772   0.89222   0.00000  Uiso   1.00
C535   C     0.79409   0.23021   0.59977   0.00000  Uiso   1.00
C536   C     0.85871   0.28238   0.89830   0.00000  Uiso   1.00
C537   C     0.79309   0.23017   0.54891   0.00000  Uiso   1.00
C538   C     0.85878   0.28322   0.94903   0.00000  Uiso   1.00
C539   C     0.83327   0.25004   0.52732   0.00000  Uiso   1.00
C540   C     0.83325   0.25002   0.97262   0.00000  Uiso   1.00
C541   C     0.73456   0.24999   0.73755   0.00000  Uiso   1.00
C542   C     0.93211   0.25001   0.76245   0.00000  Uiso   1.00
C543   C     0.67930   0.25002   0.73067   0.00000  Uiso   1.00
C544   C     0.98737   0.24999   0.76932   0.00000  Uiso   1.00
C545   C     0.85325   0.04663   0.79239   0.00000  Uiso   1.00
C546   C     0.84807   0.45360   0.71007   0.00000  Uiso   1.00
C547   C     0.85311   0.09284   0.79367   0.00000  Uiso   1.00
C548   C     0.84785   0.40748   0.70892   0.00000  Uiso   1.00
C549   C     0.83398   0.11660   0.75099   0.00000  Uiso   1.00
C550   C     0.83369   0.38352   0.74902   0.00000  Uiso   1.00
C551   C     0.81390   0.09396   0.70863   0.00000  Uiso   1.00
C552   C     0.81849   0.40616   0.78859   0.00000  Uiso   1.00
C553   C     0.81286   0.04816   0.70830   0.00000  Uiso   1.00
C554   C     0.81760   0.45197   0.78872   0.00000  Uiso   1.00
C555   C     0.83259   0.02427   0.75013   0.00000  Uiso   1.00
C556   C     0.83248   0.47591   0.74953   0.00000  Uiso   1.00
Cu557  Cu    0.83333   0.25000   0.79821   0.00000  Uiso   1.00
Cu558  Cu    0.83333   0.25001   0.70178   0.00000  Uiso   1.00
H559   H     0.99265   0.25007   0.69358   0.00000  Uiso   1.00
H560   H     0.67401   0.24993   0.80640   0.00000  Uiso   1.00
H561   H     0.87069   0.02810   0.82394   0.00000  Uiso   1.00
H562   H     0.86149   0.47199   0.68056   0.00000  Uiso   1.00
H563   H     0.79836   0.11173   0.67583   0.00000  Uiso   1.00
H564   H     0.80677   0.38844   0.81936   0.00000  Uiso   1.00
H565   H     0.79642   0.03135   0.67542   0.00000  Uiso   1.00
H566   H     0.80505   0.46875   0.81935   0.00000  Uiso   1.00
H567   H     0.90601   0.28507   0.54518   0.00000  Uiso   1.00
H568   H     0.78812   0.18987   0.95855   0.00000  Uiso   1.00
H569   H     0.90345   0.28577   0.63308   0.00000  Uiso   1.00
H570   H     0.78739   0.19230   0.87008   0.00000  Uiso   1.00
H571   H     0.76311   0.21442   0.61551   0.00000  Uiso   1.00
H572   H     0.87887   0.30797   0.88105   0.00000  Uiso   1.00
H573   H     0.76049   0.21509   0.52688   0.00000  Uiso   1.00
H574   H     0.87824   0.31022   0.96925   0.00000  Uiso   1.00
N575   N     0.83333   0.25001   0.62934   0.00000  Uiso   1.00
N576   N     0.83333   0.24999   0.87065   0.00000  Uiso   1.00
O577   O     0.83334   0.18573   0.79071   0.00000  Uiso   1.00
O578   O     0.83333   0.31428   0.70928   0.00000  Uiso   1.00
O579   O     0.83334   0.18573   0.70928   0.00000  Uiso   1.00
O580   O     0.83333   0.31427   0.79072   0.00000  Uiso   1.00
O581   O     0.75828   0.25000   0.78132   0.00000  Uiso   1.00
O582   O     0.90839   0.25001   0.71868   0.00000  Uiso   1.00
O583   O     0.75828   0.25000   0.69988   0.00000  Uiso   1.00
O584   O     0.90839   0.25000   0.80011   0.00000  Uiso   1.00
O585   O     0.87658   0.11502   0.83442   0.00000  Uiso   1.00
C586   C     0.85066   0.10542   0.87466   0.00000  Uiso   1.00
H587   H     0.80809   0.10886   0.86543   0.00000  Uiso   1.00
H588   H     0.86354   0.12939   0.90389   0.00000  Uiso   1.00
H589   H     0.86067   0.07197   0.88963   0.00000  Uiso   1.00
O590   O     0.86644   0.38595   0.67111   0.00000  Uiso   1.00
C591   C     0.83013   0.38980   0.62870   0.00000  Uiso   1.00
H592   H     0.79145   0.37749   0.63498   0.00000  Uiso   1.00
H593   H     0.84307   0.36912   0.59988   0.00000  Uiso   1.00
H594   H     0.82747   0.42437   0.61485   0.00000  Uiso   1.00
C595   C     0.16718   0.66492   0.75032   0.00000  Uiso   1.00
C596   C     0.16709   0.83513   0.74978   0.00000  Uiso   1.00
C597   C     0.20678   0.76994   0.55900   0.00000  Uiso   1.00
C598   C     0.14100   0.71684   0.94295   0.00000  Uiso   1.00
C599   C     0.20584   0.76988   0.60961   0.00000  Uiso   1.00
C600   C     0.14108   0.71772   0.89222   0.00000  Uiso   1.00
C601   C     0.12743   0.73021   0.59977   0.00000  Uiso   1.00
C602   C     0.19204   0.78238   0.89830   0.00000  Uiso   1.00
C603   C     0.12642   0.73017   0.54891   0.00000  Uiso   1.00
C604   C     0.19211   0.78322   0.94903   0.00000  Uiso   1.00
C605   C     0.16660   0.75004   0.52732   0.00000  Uiso   1.00
C606   C     0.16658   0.75002   0.97262   0.00000  Uiso   1.00
C607   C     0.06789   0.74999   0.73755   0.00000  Uiso   1.00
C608   C     0.26544   0.75001   0.76245   0.00000  Uiso   1.00
C609   C     0.01263   0.75002   0.73067   0.00000  Uiso   1.00
C610   C     0.32070   0.74999   0.76932   0.00000  Uiso   1.00
C611   C     0.18659   0.54663   0.79239   0.00000  Uiso   1.00
C612   C     0.18141   0.95360   0.71007   0.00000  Uiso   1.00
C613   C     0.18644   0.59284   0.79367   0.00000  Uiso   1.00
C614   C     0.18118   0.90748   0.70892   0.00000  Uiso   1.00
C615   C     0.16731   0.61660   0.75099   0.00000  Uiso   1.00
C616   C     0.16702   0.88352   0.74902   0.00000  Uiso   1.00
C617   C     0.14723   0.59396   0.70863   0.00000  Uiso   1.00
C618   C     0.15182   0.90616   0.78859   0.00000  Uiso   1.00
C619   C     0.14620   0.54816   0.70830   0.00000  Uiso   1.00
C620   C     0.15093   0.95197   0.78872   0.00000  Uiso   1.00
C621   C     0.16592   0.52427   0.75013   0.00000  Uiso   1.00
C622   C     0.16581   0.97591   0.74953   0.00000  Uiso   1.00
Cu623  Cu    0.16667   0.75000   0.79821   0.00000  Uiso   1.00
Cu624  Cu    0.16667   0.75001   0.70178   0.00000  Uiso   1.00
H625   H     0.32599   0.75007   0.69358   0.00000  Uiso   1.00
H626   H     0.00735   0.74993   0.80640   0.00000  Uiso   1.00
H627   H     0.20402   0.52810   0.82394   0.00000  Uiso   1.00
H628   H     0.19482   0.97199   0.68056   0.00000  Uiso   1.00
H629   H     0.13170   0.61173   0.67583   0.00000  Uiso   1.00
H630   H     0.14011   0.88844   0.81936   0.00000  Uiso   1.00
H631   H     0.12976   0.53135   0.67542   0.00000  Uiso   1.00
H632   H     0.13838   0.96875   0.81935   0.00000  Uiso   1.00
H633   H     0.23934   0.78507   0.54518   0.00000  Uiso   1.00
H634   H     0.12145   0.68987   0.95855   0.00000  Uiso   1.00
H635   H     0.23678   0.78577   0.63308   0.00000  Uiso   1.00
H636   H     0.12072   0.69230   0.87008   0.00000  Uiso   1.00
H637   H     0.09645   0.71442   0.61551   0.00000  Uiso   1.00
H638   H     0.21221   0.80797   0.88105   0.00000  Uiso   1.00
H639   H     0.09382   0.71509   0.52688   0.00000  Uiso   1.00
H640   H     0.21157   0.81022   0.96925   0.00000  Uiso   1.00
N641   N     0.16667   0.75001   0.62934   0.00000  Uiso   1.00
N642   N     0.16667   0.74999   0.87065   0.00000  Uiso   1.00
O643   O     0.16667   0.68573   0.79071   0.00000  Uiso   1.00
O644   O     0.16666   0.81428   0.70928   0.00000  Uiso   1.00
O645   O     0.16667   0.68573   0.70928   0.00000  Uiso   1.00
O646   O     0.16666   0.81427   0.79072   0.00000  Uiso   1.00
O647   O     0.09161   0.75000   0.78132   0.00000  Uiso   1.00
O648   O     0.24172   0.75001   0.71868   0.00000  Uiso   1.00
O649   O     0.09161   0.75000   0.69988   0.00000  Uiso   1.00
O650   O     0.24172   0.75000   0.80011   0.00000  Uiso   1.00
O651   O     0.20991   0.61502   0.83442   0.00000  Uiso   1.00
C652   C     0.18399   0.60542   0.87466   0.00000  Uiso   1.00
H653   H     0.14143   0.60886   0.86543   0.00000  Uiso   1.00
H654   H     0.19688   0.62939   0.90389   0.00000  Uiso   1.00
H655   H     0.19400   0.57197   0.88963   0.00000  Uiso   1.00
O656   O     0.19977   0.88595   0.67111   0.00000  Uiso   1.00
C657   C     0.16347   0.88980   0.62870   0.00000  Uiso   1.00
H658   H     0.12478   0.87749   0.63498   0.00000  Uiso   1.00
H659   H     0.17640   0.86912   0.59988   0.00000  Uiso   1.00
H660   H     0.16081   0.92437   0.61485   0.00000  Uiso   1.00
C661   C     0.50051   0.66492   0.75032   0.00000  Uiso   1.00
C662   C     0.50042   0.83513   0.74978   0.00000  Uiso   1.00
C663   C     0.54012   0.76994   0.55900   0.00000  Uiso   1.00
C664   C     0.47433   0.71684   0.94295   0.00000  Uiso   1.00
C665   C     0.53917   0.76988   0.60961   0.00000  Uiso   1.00
C666   C     0.47441   0.71772   0.89222   0.00000  Uiso   1.00
C667   C     0.46076   0.73021   0.59977   0.00000  Uiso   1.00
C668   C     0.52537   0.78238   0.89830   0.00000  Uiso   1.00
C669   C     0.45975   0.73017   0.54891   0.00000  Uiso   1.00
C670   C     0.52544   0.78322   0.94903   0.00000  Uiso   1.00
C671   C     0.49993   0.75004   0.52732   0.00000  Uiso   1.00
C672   C     0.49992   0.75002   0.97262   0.00000  Uiso   1.00
C673   C     0.40122   0.74999   0.73755   0.00000  Uiso   1.00
C674   C     0.59877   0.75001   0.76245   0.00000  Uiso   1.00
C675   C     0.34596   0.75002   0.73067   0.00000  Uiso   1.00
C676   C     0.65403   0.74999   0.76932   0.00000  Uiso   1.00
C677   C     0.51992   0.54663   0.79239   0.00000  Uiso   1.00
C678   C     0.51474   0.95360   0.71007   0.00000  Uiso   1.00
C679   C     0.51978   0.59284   0.79367   0.00000  Uiso   1.00
C680   C     0.51451   0.90748   0.70892   0.00000  Uiso   1.00
C681   C     0.50064   0.61660   0.75099   0.00000  Uiso   1.00
C682   C     0.50036   0.88352   0.74902   0.00000  Uiso   1.00
C683   C     0.48057   0.59396   0.70863   0.00000  Uiso   1.00
C684   C     0.48515   0.90616   0.78859   0.00000  Uiso   1.00
C685   C     0.47953   0.54816   0.70830   0.00000  Uiso   1.00
C686   C     0.48427   0.95197   0.78872   0.00000  Uiso   1.00
C687   C     0.49926   0.52427   0.75013   0.00000  Uiso   1.00
C688   C     0.49915   0.97591   0.74953   0.00000  Uiso   1.00
Cu689  Cu    0.50000   0.75000   0.79821   0.00000  Uiso   1.00
Cu690  Cu    0.50000   0.75001   0.70178   0.00000  Uiso   1.00
H691   H     0.65932   0.75007   0.69358   0.00000  Uiso   1.00
H692   H     0.34068   0.74993   0.80640   0.00000  Uiso   1.00
H693   H     0.53735   0.52810   0.82394   0.00000  Uiso   1.00
H694   H     0.52816   0.97199   0.68056   0.00000  Uiso   1.00
H695   H     0.46503   0.61173   0.67583   0.00000  Uiso   1.00
H696   H     0.47344   0.88844   0.81936   0.00000  Uiso   1.00
H697   H     0.46309   0.53135   0.67542   0.00000  Uiso   1.00
H698   H     0.47172   0.96875   0.81935   0.00000  Uiso   1.00
H699   H     0.57267   0.78507   0.54518   0.00000  Uiso   1.00
H700   H     0.45479   0.68987   0.95855   0.00000  Uiso   1.00
H701   H     0.57011   0.78577   0.63308   0.00000  Uiso   1.00
H702   H     0.45406   0.69230   0.87008   0.00000  Uiso   1.00
H703   H     0.42978   0.71442   0.61551   0.00000  Uiso   1.00
H704   H     0.54554   0.80797   0.88105   0.00000  Uiso   1.00
H705   H     0.42715   0.71509   0.52688   0.00000  Uiso   1.00
H706   H     0.54491   0.81022   0.96925   0.00000  Uiso   1.00
N707   N     0.50000   0.75001   0.62934   0.00000  Uiso   1.00
N708   N     0.50000   0.74999   0.87065   0.00000  Uiso   1.00
O709   O     0.50000   0.68573   0.79071   0.00000  Uiso   1.00
O710   O     0.50000   0.81428   0.70928   0.00000  Uiso   1.00
O711   O     0.50000   0.68573   0.70928   0.00000  Uiso   1.00
O712   O     0.50000   0.81427   0.79072   0.00000  Uiso   1.00
O713   O     0.42495   0.75000   0.78132   0.00000  Uiso   1.00
O714   O     0.57505   0.75001   0.71868   0.00000  Uiso   1.00
O715   O     0.42495   0.75000   0.69988   0.00000  Uiso   1.00
O716   O     0.57505   0.75000   0.80011   0.00000  Uiso   1.00
O717   O     0.54324   0.61502   0.83442   0.00000  Uiso   1.00
C718   C     0.51733   0.60542   0.87466   0.00000  Uiso   1.00
H719   H     0.47476   0.60886   0.86543   0.00000  Uiso   1.00
H720   H     0.53021   0.62939   0.90389   0.00000  Uiso   1.00
H721   H     0.52734   0.57197   0.88963   0.00000  Uiso   1.00
O722   O     0.53311   0.88595   0.67111   0.00000  Uiso   1.00
C723   C     0.49680   0.88980   0.62870   0.00000  Uiso   1.00
H724   H     0.45812   0.87749   0.63498   0.00000  Uiso   1.00
H725   H     0.50974   0.86912   0.59988   0.00000  Uiso   1.00
H726   H     0.49414   0.92437   0.61485   0.00000  Uiso   1.00
C727   C     0.83385   0.66492   0.75032   0.00000  Uiso   1.00
C728   C     0.83375   0.83513   0.74978   0.00000  Uiso   1.00
C729   C     0.87345   0.76994   0.55900   0.00000  Uiso   1.00
C730   C     0.80767   0.71684   0.94295   0.00000  Uiso   1.00
C731   C     0.87250   0.76988   0.60961   0.00000  Uiso   1.00
C732   C     0.80775   0.71772   0.89222   0.00000  Uiso   1.00
C733   C     0.79409   0.73021   0.59977   0.00000  Uiso   1.00
C734   C     0.85871   0.78238   0.89830   0.00000  Uiso   1.00
C735   C     0.79309   0.73017   0.54891   0.00000  Uiso   1.00
C736   C     0.85878   0.78322   0.94903   0.00000  Uiso   1.00
C737   C     0.83327   0.75004   0.52732   0.00000  Uiso   1.00
C738   C     0.83325   0.75002   0.97262   0.00000  Uiso   1.00
C739   C     0.73456   0.74999   0.73755   0.00000  Uiso   1.00
C740   C     0.93211   0.75001   0.76245   0.00000  Uiso   1.00
C741   C     0.67930   0.75002   0.73067   0.00000  Uiso   1.00
C742   C     0.98737   0.74999   0.76932   0.00000  Uiso   1.00
C743   C     0.85325   0.54663   0.79239   0.00000  Uiso   1.00
C744   C     0.84807   0.95360   0.71007   0.00000  Uiso   1.00
C745   C     0.85311   0.59284   0.79367   0.00000  Uiso   1.00
C746   C     0.84785   0.90748   0.70892   0.00000  Uiso   1.00
C747   C     0.83398   0.61660   0.75099   0.00000  Uiso   1.00
C748   C     0.83369   0.88352   0.74902   0.00000  Uiso   1.00
C749   C     0.81390   0.59396   0.70863   0.00000  Uiso   1.00
C750   C     0.81849   0.90616   0.78859   0.00000  Uiso   1.00
C751   C     0.81286   0.54816   0.70830   0.00000  Uiso   1.00
C752   C     0.81760   0.95197   0.78872   0.00000  Uiso   1.00
C753   C     0.83259   0.52427   0.75013   0.00000  Uiso   1.00
C754   C     0.83248   0.97591   0.74953   0.00000  Uiso   1.00
Cu755  Cu    0.83333   0.75000   0.79821   0.00000  Uiso   1.00
Cu756  Cu    0.83333   0.75001   0.70178   0.00000  Uiso   1.00
H757   H     0.99265   0.75007   0.69358   0.00000  Uiso   1.00
H758   H     0.67401   0.74993   0.80640   0.00000  Uiso   1.00
H759   H     0.87069   0.52810   0.82394   0.00000  Uiso   1.00
H760   H     0.86149   0.97199   0.68056   0.00000  Uiso   1.00
H761   H     0.79836   0.61173   0.67583   0.00000  Uiso   1.00
H762   H     0.80677   0.88844   0.81936   0.00000  Uiso   1.00
H763   H     0.79642   0.53135   0.67542   0.00000  Uiso   1.00
H764   H     0.80505   0.96875   0.81935   0.00000  Uiso   1.00
H765   H     0.90601   0.78507   0.54518   0.00000  Uiso   1.00
H766   H     0.78812   0.68987   0.95855   0.00000  Uiso   1.00
H767   H     0.90345   0.78577   0.63308   0.00000  Uiso   1.00
H768   H     0.78739   0.69230   0.87008   0.00000  Uiso   1.00
H769   H     0.76311   0.71442   0.61551   0.00000  Uiso   1.00
H770   H     0.87887   0.80797   0.88105   0.00000  Uiso   1.00
H771   H     0.76049   0.71509   0.52688   0.00000  Uiso   1.00
H772   H     0.87824   0.81022   0.96925   0.00000  Uiso   1.00
N773   N     0.83333   0.75001   0.62934   0.00000  Uiso   1.00
N774   N     0.83333   0.74999   0.87065   0.00000  Uiso   1.00
O775   O     0.83334   0.68573   0.79071   0.00000  Uiso   1.00
O776   O     0.83333   0.81428   0.70928   0.00000  Uiso   1.00
O777   O     0.83334   0.68573   0.70928   0.00000  Uiso   1.00
O778   O     0.83333   0.81427   0.79072   0.00000  Uiso   1.00
O779   O     0.75828   0.75000   0.78132   0.00000  Uiso   1.00
O780   O     0.90839   0.75001   0.71868   0.00000  Uiso   1.00
O781   O     0.75828   0.75000   0.69988   0.00000  Uiso   1.00
O782   O     0.90839   0.75000   0.80011   0.00000  Uiso   1.00
O783   O     0.87658   0.61502   0.83442   0.00000  Uiso   1.00
C784   C     0.85066   0.60542   0.87466   0.00000  Uiso   1.00
H785   H     0.80809   0.60886   0.86543   0.00000  Uiso   1.00
H786   H     0.86354   0.62939   0.90389   0.00000  Uiso   1.00
H787   H     0.86067   0.57197   0.88963   0.00000  Uiso   1.00
O788   O     0.86644   0.88595   0.67111   0.00000  Uiso   1.00
C789   C     0.83013   0.88980   0.62870   0.00000  Uiso   1.00
H790   H     0.79145   0.87749   0.63498   0.00000  Uiso   1.00
H791   H     0.84307   0.86912   0.59988   0.00000  Uiso   1.00
H792   H     0.82747   0.92437   0.61485   0.00000  Uiso   1.00
loop_
_geom_bond_atom_site_label_1
_geom_bond_atom_site_label_2
_geom_bond_distance
_geom_bond_site_symmetry_2
_ccdc_geom_bond_type
C1     C21     1.464   .     S
C1     O51     1.295   .     A
C1     O49     1.291   .     A
C2     C22     1.466   .     S
C2     O52     1.296   .     A
C2     O50     1.291   .     A
C3     C5      1.406   .     A
C3     H39     1.081   .     S
C3     C11     1.411   .     A
C4     C12     1.412   .     A
C4     C6      1.407   .     A
C4     H40     1.081   .     S
C5     H41     1.081   .     S
C5     N47     1.364   .     A
C6     H42     1.081   .     S
C6     N48     1.363   .     A
C7     H43     1.081   .     S
C7     N47     1.364   .     A
C7     C9      1.407   .     A
C8     N48     1.363   .     A
C8     C10     1.406   .     A
C8     H44     1.081   .     S
C9     H45     1.081   .     S
C9     C11     1.411   .     A
C10    C12     1.411   .     A
C10    H46     1.081   .     S
C11    C408    1.516   1_554 S
C12    C407    1.516   .     S
C13    O53     1.285   .     A
C13    C15     1.434   .     S
C13    O55     1.287   .     A
C14    O56     1.287   .     A
C14    C16     1.434   .     S
C14    O54     1.285   .     A
C15    C148    1.335   1_455 S
C15    H163    1.087   1_455 S
C16    C81     1.335   .     S
C16    H98     1.087   .     S
C17    H33     1.083   .     S
C17    C27     1.400   .     A
C17    C19     1.401   .     A
C18    H34     1.083   .     S
C18    C28     1.400   .     A
C18    C20     1.398   .     A
C19    O57     1.387   .     S
C19    C21     1.412   .     A
C20    O62     1.384   .     S
C20    C22     1.414   .     A
C21    C23     1.402   .     A
C22    C24     1.403   .     A
C23    H35     1.083   .     S
C23    C25     1.388   .     A
C24    H36     1.083   .     S
C24    C26     1.388   .     A
C25    C27     1.400   .     A
C25    H37     1.083   .     S
C26    C28     1.400   .     A
C26    H38     1.083   .     S
C27    C226    1.466   1_545 S
C28    C225    1.466   .     S
Cu29   Cu30    2.673   .     S
Cu29   O56     1.960   .     S
Cu29   O49     1.960   .     S
Cu29   O53     1.958   .     S
Cu29   N48     2.008   .     S
Cu29   O52     1.957   .     S
Cu30   O51     1.957   .     S
Cu30   O54     1.958   .     S
Cu30   O55     1.960   .     S
Cu30   N47     2.008   .     S
Cu30   O50     1.960   .     S
H31    C81     1.087   .     S
H32    C148    1.087   1_455 S
O57    C58     1.412   .     S
C58    H61     1.111   .     S
C58    H60     1.109   .     S
C58    H59     1.114   .     S
O62    C63     1.411   .     S
C63    H65     1.109   .     S
C63    H66     1.112   .     S
C63    H64     1.114   .     S
C67    C87     1.464   .     S
C67    O117    1.295   .     A
C67    O115    1.291   .     A
C68    C88     1.466   .     S
C68    O118    1.296   .     A
C68    O116    1.291   .     A
C69    C71     1.406   .     A
C69    H105    1.081   .     S
C69    C77     1.411   .     A
C70    C78     1.412   .     A
C70    C72     1.407   .     A
C70    H106    1.081   .     S
C71    H107    1.081   .     S
C71    N113    1.364   .     A
C72    H108    1.081   .     S
C72    N114    1.363   .     A
C73    H109    1.081   .     S
C73    N113    1.364   .     A
C73    C75     1.407   .     A
C74    N114    1.363   .     A
C74    C76     1.406   .     A
C74    H110    1.081   .     S
C75    H111    1.081   .     S
C75    C77     1.411   .     A
C76    C78     1.411   .     A
C76    H112    1.081   .     S
C77    C474    1.516   1_554 S
C78    C473    1.516   .     S
C79    O119    1.285   .     A
C79    C81     1.434   .     S
C79    O121    1.287   .     A
C80    O122    1.287   .     A
C80    C82     1.434   .     S
C80    O120    1.285   .     A
C82    C147    1.335   .     S
C82    H164    1.087   .     S
C83    H99     1.083   .     S
C83    C93     1.400   .     A
C83    C85     1.401   .     A
C84    H100    1.083   .     S
C84    C94     1.400   .     A
C84    C86     1.398   .     A
C85    O123    1.387   .     S
C85    C87     1.412   .     A
C86    O128    1.384   .     S
C86    C88     1.414   .     A
C87    C89     1.402   .     A
C88    C90     1.403   .     A
C89    H101    1.083   .     S
C89    C91     1.388   .     A
C90    H102    1.083   .     S
C90    C92     1.388   .     A
C91    C93     1.400   .     A
C91    H103    1.083   .     S
C92    C94     1.400   .     A
C92    H104    1.083   .     S
C93    C292    1.466   1_545 S
C94    C291    1.466   .     S
Cu95   Cu96    2.673   .     S
Cu95   O122    1.960   .     S
Cu95   O115    1.960   .     S
Cu95   O119    1.958   .     S
Cu95   N114    2.008   .     S
Cu95   O118    1.957   .     S
Cu96   O117    1.957   .     S
Cu96   O120    1.958   .     S
Cu96   O121    1.960   .     S
Cu96   N113    2.008   .     S
Cu96   O116    1.960   .     S
H97    C147    1.087   .     S
O123   C124    1.412   .     S
C124   H127    1.111   .     S
C124   H126    1.109   .     S
C124   H125    1.114   .     S
O128   C129    1.411   .     S
C129   H131    1.109   .     S
C129   H132    1.112   .     S
C129   H130    1.114   .     S
C133   C153    1.464   .     S
C133   O183    1.295   .     A
C133   O181    1.291   .     A
C134   C154    1.466   .     S
C134   O184    1.296   .     A
C134   O182    1.291   .     A
C135   C137    1.406   .     A
C135   H171    1.081   .     S
C135   C143    1.411   .     A
C136   C144    1.412   .     A
C136   C138    1.407   .     A
C136   H172    1.081   .     S
C137   H173    1.081   .     S
C137   N179    1.364   .     A
C138   H174    1.081   .     S
C138   N180    1.363   .     A
C139   H175    1.081   .     S
C139   N179    1.364   .     A
C139   C141    1.407   .     A
C140   N180    1.363   .     A
C140   C142    1.406   .     A
C140   H176    1.081   .     S
C141   H177    1.081   .     S
C141   C143    1.411   .     A
C142   C144    1.411   .     A
C142   H178    1.081   .     S
C143   C540    1.516   1_554 S
C144   C539    1.516   .     S
C145   O185    1.285   .     A
C145   C147    1.434   .     S
C145   O187    1.287   .     A
C146   O188    1.287   .     A
C146   C148    1.434   .     S
C146   O186    1.285   .     A
C148   C15     1.335   1_655 S
C148   H32     1.087   1_655 S
C149   H165    1.083   .     S
C149   C159    1.400   .     A
C149   C151    1.401   .     A
C150   H166    1.083   .     S
C150   C160    1.400   .     A
C150   C152    1.398   .     A
C151   O189    1.387   .     S
C151   C153    1.412   .     A
C152   O194    1.384   .     S
C152   C154    1.414   .     A
C153   C155    1.402   .     A
C154   C156    1.403   .     A
C155   H167    1.083   .     S
C155   C157    1.388   .     A
C156   H168    1.083   .     S
C156   C158    1.388   .     A
C157   C159    1.400   .     A
C157   H169    1.083   .     S
C158   C160    1.400   .     A
C158   H170    1.083   .     S
C159   C358    1.466   1_545 S
C160   C357    1.466   .     S
Cu161  Cu162   2.673   .     S
Cu161  O188    1.960   .     S
Cu161  O181    1.960   .     S
Cu161  O185    1.958   .     S
Cu161  N180    2.008   .     S
Cu161  O184    1.957   .     S
Cu162  O183    1.957   .     S
Cu162  O186    1.958   .     S
Cu162  O187    1.960   .     S
Cu162  N179    2.008   .     S
Cu162  O182    1.960   .     S
H163   C15     1.087   1_655 S
O189   C190    1.412   .     S
C190   H193    1.111   .     S
C190   H192    1.109   .     S
C190   H191    1.114   .     S
O194   C195    1.411   .     S
C195   H197    1.109   .     S
C195   H198    1.112   .     S
C195   H196    1.114   .     S
C199   C219    1.464   .     S
C199   O249    1.295   .     A
C199   O247    1.291   .     A
C200   C220    1.466   .     S
C200   O250    1.296   .     A
C200   O248    1.291   .     A
C201   C203    1.406   .     A
C201   H237    1.081   .     S
C201   C209    1.411   .     A
C202   C210    1.412   .     A
C202   C204    1.407   .     A
C202   H238    1.081   .     S
C203   H239    1.081   .     S
C203   N245    1.364   .     A
C204   H240    1.081   .     S
C204   N246    1.363   .     A
C205   H241    1.081   .     S
C205   N245    1.364   .     A
C205   C207    1.407   .     A
C206   N246    1.363   .     A
C206   C208    1.406   .     A
C206   H242    1.081   .     S
C207   H243    1.081   .     S
C207   C209    1.411   .     A
C208   C210    1.411   .     A
C208   H244    1.081   .     S
C209   C606    1.516   1_554 S
C210   C605    1.516   .     S
C211   O251    1.285   .     A
C211   C213    1.434   .     S
C211   O253    1.287   .     A
C212   O254    1.287   .     A
C212   C214    1.434   .     S
C212   O252    1.285   .     A
C213   C346    1.335   1_455 S
C213   H361    1.087   1_455 S
C214   C279    1.335   .     S
C214   H296    1.087   .     S
C215   H231    1.083   .     S
C215   C225    1.400   .     A
C215   C217    1.401   .     A
C216   H232    1.083   .     S
C216   C226    1.400   .     A
C216   C218    1.398   .     A
C217   O255    1.387   .     S
C217   C219    1.412   .     A
C218   O260    1.384   .     S
C218   C220    1.414   .     A
C219   C221    1.402   .     A
C220   C222    1.403   .     A
C221   H233    1.083   .     S
C221   C223    1.388   .     A
C222   H234    1.083   .     S
C222   C224    1.388   .     A
C223   C225    1.400   .     A
C223   H235    1.083   .     S
C224   C226    1.400   .     A
C224   H236    1.083   .     S
C226   C27     1.466   1_565 S
Cu227  Cu228   2.673   .     S
Cu227  O254    1.960   .     S
Cu227  O247    1.960   .     S
Cu227  O251    1.958   .     S
Cu227  N246    2.008   .     S
Cu227  O250    1.957   .     S
Cu228  O249    1.957   .     S
Cu228  O252    1.958   .     S
Cu228  O253    1.960   .     S
Cu228  N245    2.008   .     S
Cu228  O248    1.960   .     S
H229   C279    1.087   .     S
H230   C346    1.087   1_455 S
O255   C256    1.412   .     S
C256   H259    1.111   .     S
C256   H258    1.109   .     S
C256   H257    1.114   .     S
O260   C261    1.411   .     S
C261   H263    1.109   .     S
C261   H264    1.112   .     S
C261   H262    1.114   .     S
C265   C285    1.464   .     S
C265   O315    1.295   .     A
C265   O313    1.291   .     A
C266   C286    1.466   .     S
C266   O316    1.296   .     A
C266   O314    1.291   .     A
C267   C269    1.406   .     A
C267   H303    1.081   .     S
C267   C275    1.411   .     A
C268   C276    1.412   .     A
C268   C270    1.407   .     A
C268   H304    1.081   .     S
C269   H305    1.081   .     S
C269   N311    1.364   .     A
C270   H306    1.081   .     S
C270   N312    1.363   .     A
C271   H307    1.081   .     S
C271   N311    1.364   .     A
C271   C273    1.407   .     A
C272   N312    1.363   .     A
C272   C274    1.406   .     A
C272   H308    1.081   .     S
C273   H309    1.081   .     S
C273   C275    1.411   .     A
C274   C276    1.411   .     A
C274   H310    1.081   .     S
C275   C672    1.516   1_554 S
C276   C671    1.516   .     S
C277   O317    1.285   .     A
C277   C279    1.434   .     S
C277   O319    1.287   .     A
C278   O320    1.287   .     A
C278   C280    1.434   .     S
C278   O318    1.285   .     A
C280   C345    1.335   .     S
C280   H362    1.087   .     S
C281   H297    1.083   .     S
C281   C291    1.400   .     A
C281   C283    1.401   .     A
C282   H298    1.083   .     S
C282   C292    1.400   .     A
C282   C284    1.398   .     A
C283   O321    1.387   .     S
C283   C285    1.412   .     A
C284   O326    1.384   .     S
C284   C286    1.414   .     A
C285   C287    1.402   .     A
C286   C288    1.403   .     A
C287   H299    1.083   .     S
C287   C289    1.388   .     A
C288   H300    1.083   .     S
C288   C290    1.388   .     A
C289   C291    1.400   .     A
C289   H301    1.083   .     S
C290   C292    1.400   .     A
C290   H302    1.083   .     S
C292   C93     1.466   1_565 S
Cu293  Cu294   2.673   .     S
Cu293  O320    1.960   .     S
Cu293  O313    1.960   .     S
Cu293  O317    1.958   .     S
Cu293  N312    2.008   .     S
Cu293  O316    1.957   .     S
Cu294  O315    1.957   .     S
Cu294  O318    1.958   .     S
Cu294  O319    1.960   .     S
Cu294  N311    2.008   .     S
Cu294  O314    1.960   .     S
H295   C345    1.087   .     S
O321   C322    1.412   .     S
C322   H325    1.111   .     S
C322   H324    1.109   .     S
C322   H323    1.114   .     S
O326   C327    1.411   .     S
C327   H329    1.109   .     S
C327   H330    1.112   .     S
C327   H328    1.114   .     S
C331   C351    1.464   .     S
C331   O381    1.295   .     A
C331   O379    1.291   .     A
C332   C352    1.466   .     S
C332   O382    1.296   .     A
C332   O380    1.291   .     A
C333   C335    1.406   .     A
C333   H369    1.081   .     S
C333   C341    1.411   .     A
C334   C342    1.412   .     A
C334   C336    1.407   .     A
C334   H370    1.081   .     S
C335   H371    1.081   .     S
C335   N377    1.364   .     A
C336   H372    1.081   .     S
C336   N378    1.363   .     A
C337   H373    1.081   .     S
C337   N377    1.364   .     A
C337   C339    1.407   .     A
C338   N378    1.363   .     A
C338   C340    1.406   .     A
C338   H374    1.081   .     S
C339   H375    1.081   .     S
C339   C341    1.411   .     A
C340   C342    1.411   .     A
C340   H376    1.081   .     S
C341   C738    1.516   1_554 S
C342   C737    1.516   .     S
C343   O383    1.285   .     A
C343   C345    1.434   .     S
C343   O385    1.287   .     A
C344   O386    1.287   .     A
C344   C346    1.434   .     S
C344   O384    1.285   .     A
C346   C213    1.335   1_655 S
C346   H230    1.087   1_655 S
C347   H363    1.083   .     S
C347   C357    1.400   .     A
C347   C349    1.401   .     A
C348   H364    1.083   .     S
C348   C358    1.400   .     A
C348   C350    1.398   .     A
C349   O387    1.387   .     S
C349   C351    1.412   .     A
C350   O392    1.384   .     S
C350   C352    1.414   .     A
C351   C353    1.402   .     A
C352   C354    1.403   .     A
C353   H365    1.083   .     S
C353   C355    1.388   .     A
C354   H366    1.083   .     S
C354   C356    1.388   .     A
C355   C357    1.400   .     A
C355   H367    1.083   .     S
C356   C358    1.400   .     A
C356   H368    1.083   .     S
C358   C159    1.466   1_565 S
Cu359  Cu360   2.673   .     S
Cu359  O386    1.960   .     S
Cu359  O379    1.960   .     S
Cu359  O383    1.958   .     S
Cu359  N378    2.008   .     S
Cu359  O382    1.957   .     S
Cu360  O381    1.957   .     S
Cu360  O384    1.958   .     S
Cu360  O385    1.960   .     S
Cu360  N377    2.008   .     S
Cu360  O380    1.960   .     S
H361   C213    1.087   1_655 S
O387   C388    1.412   .     S
C388   H391    1.111   .     S
C388   H390    1.109   .     S
C388   H389    1.114   .     S
O392   C393    1.411   .     S
C393   H395    1.109   .     S
C393   H396    1.112   .     S
C393   H394    1.114   .     S
C397   C417    1.464   .     S
C397   O447    1.295   .     A
C397   O445    1.291   .     A
C398   C418    1.466   .     S
C398   O448    1.296   .     A
C398   O446    1.291   .     A
C399   C401    1.406   .     A
C399   H435    1.081   .     S
C399   C407    1.411   .     A
C400   C408    1.412   .     A
C400   C402    1.407   .     A
C400   H436    1.081   .     S
C401   H437    1.081   .     S
C401   N443    1.364   .     A
C402   H438    1.081   .     S
C402   N444    1.363   .     A
C403   H439    1.081   .     S
C403   N443    1.364   .     A
C403   C405    1.407   .     A
C404   N444    1.363   .     A
C404   C406    1.406   .     A
C404   H440    1.081   .     S
C405   H441    1.081   .     S
C405   C407    1.411   .     A
C406   C408    1.411   .     A
C406   H442    1.081   .     S
C408   C11     1.516   1_556 S
C409   O449    1.285   .     A
C409   C411    1.434   .     S
C409   O451    1.287   .     A
C410   O452    1.287   .     A
C410   C412    1.434   .     S
C410   O450    1.285   .     A
C411   C544    1.335   1_455 S
C411   H559    1.087   1_455 S
C412   C477    1.335   .     S
C412   H494    1.087   .     S
C413   H429    1.083   .     S
C413   C423    1.400   .     A
C413   C415    1.401   .     A
C414   H430    1.083   .     S
C414   C424    1.400   .     A
C414   C416    1.398   .     A
C415   O453    1.387   .     S
C415   C417    1.412   .     A
C416   O458    1.384   .     S
C416   C418    1.414   .     A
C417   C419    1.402   .     A
C418   C420    1.403   .     A
C419   H431    1.083   .     S
C419   C421    1.388   .     A
C420   H432    1.083   .     S
C420   C422    1.388   .     A
C421   C423    1.400   .     A
C421   H433    1.083   .     S
C422   C424    1.400   .     A
C422   H434    1.083   .     S
C423   C622    1.466   1_545 S
C424   C621    1.466   .     S
Cu425  Cu426   2.673   .     S
Cu425  O452    1.960   .     S
Cu425  O445    1.960   .     S
Cu425  O449    1.958   .     S
Cu425  N444    2.008   .     S
Cu425  O448    1.957   .     S
Cu426  O447    1.957   .     S
Cu426  O450    1.958   .     S
Cu426  O451    1.960   .     S
Cu426  N443    2.008   .     S
Cu426  O446    1.960   .     S
H427   C477    1.087   .     S
H428   C544    1.087   1_455 S
O453   C454    1.412   .     S
C454   H457    1.111   .     S
C454   H456    1.109   .     S
C454   H455    1.114   .     S
O458   C459    1.411   .     S
C459   H461    1.109   .     S
C459   H462    1.112   .     S
C459   H460    1.114   .     S
C463   C483    1.464   .     S
C463   O513    1.295   .     A
C463   O511    1.291   .     A
C464   C484    1.466   .     S
C464   O514    1.296   .     A
C464   O512    1.291   .     A
C465   C467    1.406   .     A
C465   H501    1.081   .     S
C465   C473    1.411   .     A
C466   C474    1.412   .     A
C466   C468    1.407   .     A
C466   H502    1.081   .     S
C467   H503    1.081   .     S
C467   N509    1.364   .     A
C468   H504    1.081   .     S
C468   N510    1.363   .     A
C469   H505    1.081   .     S
C469   N509    1.364   .     A
C469   C471    1.407   .     A
C470   N510    1.363   .     A
C470   C472    1.406   .     A
C470   H506    1.081   .     S
C471   H507    1.081   .     S
C471   C473    1.411   .     A
C472   C474    1.411   .     A
C472   H508    1.081   .     S
C474   C77     1.516   1_556 S
C475   O515    1.285   .     A
C475   C477    1.434   .     S
C475   O517    1.287   .     A
C476   O518    1.287   .     A
C476   C478    1.434   .     S
C476   O516    1.285   .     A
C478   C543    1.335   .     S
C478   H560    1.087   .     S
C479   H495    1.083   .     S
C479   C489    1.400   .     A
C479   C481    1.401   .     A
C480   H496    1.083   .     S
C480   C490    1.400   .     A
C480   C482    1.398   .     A
C481   O519    1.387   .     S
C481   C483    1.412   .     A
C482   O524    1.384   .     S
C482   C484    1.414   .     A
C483   C485    1.402   .     A
C484   C486    1.403   .     A
C485   H497    1.083   .     S
C485   C487    1.388   .     A
C486   H498    1.083   .     S
C486   C488    1.388   .     A
C487   C489    1.400   .     A
C487   H499    1.083   .     S
C488   C490    1.400   .     A
C488   H500    1.083   .     S
C489   C688    1.466   1_545 S
C490   C687    1.466   .     S
Cu491  Cu492   2.673   .     S
Cu491  O518    1.960   .     S
Cu491  O511    1.960   .     S
Cu491  O515    1.958   .     S
Cu491  N510    2.008   .     S
Cu491  O514    1.957   .     S
Cu492  O513    1.957   .     S
Cu492  O516    1.958   .     S
Cu492  O517    1.960   .     S
Cu492  N509    2.008   .     S
Cu492  O512    1.960   .     S
H493   C543    1.087   .     S
O519   C520    1.412   .     S
C520   H523    1.111   .     S
C520   H522    1.109   .     S
C520   H521    1.114   .     S
O524   C525    1.411   .     S
C525   H527    1.109   .     S
C525   H528    1.112   .     S
C525   H526    1.114   .     S
C529   C549    1.464   .     S
C529   O579    1.295   .     A
C529   O577    1.291   .     A
C530   C550    1.466   .     S
C530   O580    1.296   .     A
C530   O578    1.291   .     A
C531   C533    1.406   .     A
C531   H567    1.081   .     S
C531   C539    1.411   .     A
C532   C540    1.412   .     A
C532   C534    1.407   .     A
C532   H568    1.081   .     S
C533   H569    1.081   .     S
C533   N575    1.364   .     A
C534   H570    1.081   .     S
C534   N576    1.363   .     A
C535   H571    1.081   .     S
C535   N575    1.364   .     A
C535   C537    1.407   .     A
C536   N576    1.363   .     A
C536   C538    1.406   .     A
C536   H572    1.081   .     S
C537   H573    1.081   .     S
C537   C539    1.411   .     A
C538   C540    1.411   .     A
C538   H574    1.081   .     S
C540   C143    1.516   1_556 S
C541   O581    1.285   .     A
C541   C543    1.434   .     S
C541   O583    1.287   .     A
C542   O584    1.287   .     A
C542   C544    1.434   .     S
C542   O582    1.285   .     A
C544   C411    1.335   1_655 S
C544   H428    1.087   1_655 S
C545   H561    1.083   .     S
C545   C555    1.400   .     A
C545   C547    1.401   .     A
C546   H562    1.083   .     S
C546   C556    1.400   .     A
C546   C548    1.398   .     A
C547   O585    1.387   .     S
C547   C549    1.412   .     A
C548   O590    1.384   .     S
C548   C550    1.414   .     A
C549   C551    1.402   .     A
C550   C552    1.403   .     A
C551   H563    1.083   .     S
C551   C553    1.388   .     A
C552   H564    1.083   .     S
C552   C554    1.388   .     A
C553   C555    1.400   .     A
C553   H565    1.083   .     S
C554   C556    1.400   .     A
C554   H566    1.083   .     S
C555   C754    1.466   1_545 S
C556   C753    1.466   .     S
Cu557  Cu558   2.673   .     S
Cu557  O584    1.960   .     S
Cu557  O577    1.960   .     S
Cu557  O581    1.958   .     S
Cu557  N576    2.008   .     S
Cu557  O580    1.957   .     S
Cu558  O579    1.957   .     S
Cu558  O582    1.958   .     S
Cu558  O583    1.960   .     S
Cu558  N575    2.008   .     S
Cu558  O578    1.960   .     S
H559   C411    1.087   1_655 S
O585   C586    1.412   .     S
C586   H589    1.111   .     S
C586   H588    1.109   .     S
C586   H587    1.114   .     S
O590   C591    1.411   .     S
C591   H593    1.109   .     S
C591   H594    1.112   .     S
C591   H592    1.114   .     S
C595   C615    1.464   .     S
C595   O645    1.295   .     A
C595   O643    1.291   .     A
C596   C616    1.466   .     S
C596   O646    1.296   .     A
C596   O644    1.291   .     A
C597   C599    1.406   .     A
C597   H633    1.081   .     S
C597   C605    1.411   .     A
C598   C606    1.412   .     A
C598   C600    1.407   .     A
C598   H634    1.081   .     S
C599   H635    1.081   .     S
C599   N641    1.364   .     A
C600   H636    1.081   .     S
C600   N642    1.363   .     A
C601   H637    1.081   .     S
C601   N641    1.364   .     A
C601   C603    1.407   .     A
C602   N642    1.363   .     A
C602   C604    1.406   .     A
C602   H638    1.081   .     S
C603   H639    1.081   .     S
C603   C605    1.411   .     A
C604   C606    1.411   .     A
C604   H640    1.081   .     S
C606   C209    1.516   1_556 S
C607   O647    1.285   .     A
C607   C609    1.434   .     S
C607   O649    1.287   .     A
C608   O650    1.287   .     A
C608   C610    1.434   .     S
C608   O648    1.285   .     A
C609   C742    1.335   1_455 S
C609   H757    1.087   1_455 S
C610   C675    1.335   .     S
C610   H692    1.087   .     S
C611   H627    1.083   .     S
C611   C621    1.400   .     A
C611   C613    1.401   .     A
C612   H628    1.083   .     S
C612   C622    1.400   .     A
C612   C614    1.398   .     A
C613   O651    1.387   .     S
C613   C615    1.412   .     A
C614   O656    1.384   .     S
C614   C616    1.414   .     A
C615   C617    1.402   .     A
C616   C618    1.403   .     A
C617   H629    1.083   .     S
C617   C619    1.388   .     A
C618   H630    1.083   .     S
C618   C620    1.388   .     A
C619   C621    1.400   .     A
C619   H631    1.083   .     S
C620   C622    1.400   .     A
C620   H632    1.083   .     S
C622   C423    1.466   1_565 S
Cu623  Cu624   2.673   .     S
Cu623  O650    1.960   .     S
Cu623  O643    1.960   .     S
Cu623  O647    1.958   .     S
Cu623  N642    2.008   .     S
Cu623  O646    1.957   .     S
Cu624  O645    1.957   .     S
Cu624  O648    1.958   .     S
Cu624  O649    1.960   .     S
Cu624  N641    2.008   .     S
Cu624  O644    1.960   .     S
H625   C675    1.087   .     S
H626   C742    1.087   1_455 S
O651   C652    1.412   .     S
C652   H655    1.111   .     S
C652   H654    1.109   .     S
C652   H653    1.114   .     S
O656   C657    1.411   .     S
C657   H659    1.109   .     S
C657   H660    1.112   .     S
C657   H658    1.114   .     S
C661   C681    1.464   .     S
C661   O711    1.295   .     A
C661   O709    1.291   .     A
C662   C682    1.466   .     S
C662   O712    1.296   .     A
C662   O710    1.291   .     A
C663   C665    1.406   .     A
C663   H699    1.081   .     S
C663   C671    1.411   .     A
C664   C672    1.412   .     A
C664   C666    1.407   .     A
C664   H700    1.081   .     S
C665   H701    1.081   .     S
C665   N707    1.364   .     A
C666   H702    1.081   .     S
C666   N708    1.363   .     A
C667   H703    1.081   .     S
C667   N707    1.364   .     A
C667   C669    1.407   .     A
C668   N708    1.363   .     A
C668   C670    1.406   .     A
C668   H704    1.081   .     S
C669   H705    1.081   .     S
C669   C671    1.411   .     A
C670   C672    1.411   .     A
C670   H706    1.081   .     S
C672   C275    1.516   1_556 S
C673   O713    1.285   .     A
C673   C675    1.434   .     S
C673   O715    1.287   .     A
C674   O716    1.287   .     A
C674   C676    1.434   .     S
C674   O714    1.285   .     A
C676   C741    1.335   .     S
C676   H758    1.087   .     S
C677   H693    1.083   .     S
C677   C687    1.400   .     A
C677   C679    1.401   .     A
C678   H694    1.083   .     S
C678   C688    1.400   .     A
C678   C680    1.398   .     A
C679   O717    1.387   .     S
C679   C681    1.412   .     A
C680   O722    1.384   .     S
C680   C682    1.414   .     A
C681   C683    1.402   .     A
C682   C684    1.403   .     A
C683   H695    1.083   .     S
C683   C685    1.388   .     A
C684   H696    1.083   .     S
C684   C686    1.388   .     A
C685   C687    1.400   .     A
C685   H697    1.083   .     S
C686   C688    1.400   .     A
C686   H698    1.083   .     S
C688   C489    1.466   1_565 S
Cu689  Cu690   2.673   .     S
Cu689  O716    1.960   .     S
Cu689  O709    1.960   .     S
Cu689  O713    1.958   .     S
Cu689  N708    2.008   .     S
Cu689  O712    1.957   .     S
Cu690  O711    1.957   .     S
Cu690  O714    1.958   .     S
Cu690  O715    1.960   .     S
Cu690  N707    2.008   .     S
Cu690  O710    1.960   .     S
H691   C741    1.087   .     S
O717   C718    1.412   .     S
C718   H721    1.111   .     S
C718   H720    1.109   .     S
C718   H719    1.114   .     S
O722   C723    1.411   .     S
C723   H725    1.109   .     S
C723   H726    1.112   .     S
C723   H724    1.114   .     S
C727   C747    1.464   .     S
C727   O777    1.295   .     A
C727   O775    1.291   .     A
C728   C748    1.466   .     S
C728   O778    1.296   .     A
C728   O776    1.291   .     A
C729   C731    1.406   .     A
C729   H765    1.081   .     S
C729   C737    1.411   .     A
C730   C738    1.412   .     A
C730   C732    1.407   .     A
C730   H766    1.081   .     S
C731   H767    1.081   .     S
C731   N773    1.364   .     A
C732   H768    1.081   .     S
C732   N774    1.363   .     A
C733   H769    1.081   .     S
C733   N773    1.364   .     A
C733   C735    1.407   .     A
C734   N774    1.363   .     A
C734   C736    1.406   .     A
C734   H770    1.081   .     S
C735   H771    1.081   .     S
C735   C737    1.411   .     A
C736   C738    1.411   .     A
C736   H772    1.081   .     S
C738   C341    1.516   1_556 S
C739   O779    1.285   .     A
C739   C741    1.434   .     S
C739   O781    1.287   .     A
C740   O782    1.287   .     A
C740   C742    1.434   .     S
C740   O780    1.285   .     A
C742   C609    1.335   1_655 S
C742   H626    1.087   1_655 S
C743   H759    1.083   .     S
C743   C753    1.400   .     A
C743   C745    1.401   .     A
C744   H760    1.083   .     S
C744   C754    1.400   .     A
C744   C746    1.398   .     A
C745   O783    1.387   .     S
C745   C747    1.412   .     A
C746   O788    1.384   .     S
C746   C748    1.414   .     A
C747   C749    1.402   .     A
C748   C750    1.403   .     A
C749   H761    1.083   .     S
C749   C751    1.388   .     A
C750   H762    1.083   .     S
C750   C752    1.388   .     A
C751   C753    1.400   .     A
C751   H763    1.083   .     S
C752   C754    1.400   .     A
C752   H764    1.083   .     S
C754   C555    1.466   1_565 S
Cu755  Cu756   2.673   .     S
Cu755  O782    1.960   .     S
Cu755  O775    1.960   .     S
Cu755  O779    1.958   .     S
Cu755  N774    2.008   .     S
Cu755  O778    1.957   .     S
Cu756  O777    1.957   .     S
Cu756  O780    1.958   .     S
Cu756  O781    1.960   .     S
Cu756  N773    2.008   .     S
Cu756  O776    1.960   .     S
H757   C609    1.087   1_655 S
O783   C784    1.412   .     S
C784   H787    1.111   .     S
C784   H786    1.109   .     S
C784   H785    1.114   .     S
O788   C789    1.411   .     S
C789   H791    1.109   .     S
C789   H792    1.112   .     S
C789   H790    1.114   .     S
