data_str_m2_o10_o17_pcu_sym.161
_audit_creation_date              2020-01-03
_audit_creation_method            'Materials Studio'
_symmetry_space_group_name_H-M    'P1'
_symmetry_Int_Tables_number       1
_symmetry_cell_setting            triclinic
loop_
_symmetry_equiv_pos_as_xyz
  x,y,z
_cell_length_a                    30.1088
_cell_length_b                    26.2096
_cell_length_c                    22.5232
_cell_angle_alpha                 103.6343
_cell_angle_beta                  94.2883
_cell_angle_gamma                 93.7639
loop_
_atom_site_label
_atom_site_type_symbol
_atom_site_fract_x
_atom_site_fract_y
_atom_site_fract_z
_atom_site_U_iso_or_equiv
_atom_site_adp_type
_atom_site_occupancy
O1     O     0.25325   0.09538   0.20659   0.00000  Uiso   1.00
O2     O     0.24674   0.23796   0.12674   0.00000  Uiso   1.00
O3     O     0.24480   0.08559   0.10279   0.00000  Uiso   1.00
O4     O     0.25520   0.24774   0.23055   0.00000  Uiso   1.00
C5     C     0.24808   0.06665   0.15108   0.00000  Uiso   1.00
C6     C     0.25193   0.26668   0.18226   0.00000  Uiso   1.00
O7     O     0.18935   0.17155   0.21857   0.00000  Uiso   1.00
O8     O     0.31064   0.16179   0.11476   0.00000  Uiso   1.00
O9     O     0.18090   0.16176   0.11477   0.00000  Uiso   1.00
O10    O     0.31910   0.17157   0.21857   0.00000  Uiso   1.00
C11    C     0.16465   0.16640   0.16738   0.00000  Uiso   1.00
C12    C     0.33535   0.16694   0.16596   0.00000  Uiso   1.00
Cu13   Cu    0.25500   0.17246   0.22813   0.00000  Uiso   1.00
Cu14   Cu    0.24499   0.16087   0.10521   0.00000  Uiso   1.00
C15    C     0.41090   0.21145   0.20053   0.00000  Uiso   1.00
C16    C     0.08910   0.12188   0.13282   0.00000  Uiso   1.00
C17    C     0.38359   0.16795   0.16439   0.00000  Uiso   1.00
C18    C     0.11641   0.16539   0.16894   0.00000  Uiso   1.00
C19    C     0.40202   0.12515   0.12776   0.00000  Uiso   1.00
C20    C     0.09797   0.20821   0.20554   0.00000  Uiso   1.00
C21    C     0.44854   0.12349   0.13161   0.00000  Uiso   1.00
C22    C     0.05146   0.20987   0.20168   0.00000  Uiso   1.00
C23    C     0.47657   0.16760   0.16589   0.00000  Uiso   1.00
C24    C     0.02343   0.16575   0.16741   0.00000  Uiso   1.00
C25    C     0.45781   0.21348   0.19825   0.00000  Uiso   1.00
C26    C     0.04219   0.11986   0.13506   0.00000  Uiso   1.00
C27    C     0.46716   0.07717   0.10420   0.00000  Uiso   1.00
C28    C     0.03284   0.25619   0.22908   0.00000  Uiso   1.00
C29    C     0.01321   0.07391   0.10702   0.00000  Uiso   1.00
C30    C     0.48678   0.25944   0.22626   0.00000  Uiso   1.00
H31    H     0.44561   0.04210   0.08197   0.00000  Uiso   1.00
H32    H     0.05438   0.29127   0.25128   0.00000  Uiso   1.00
C33    C     0.24173   0.01068   0.14385   0.00000  Uiso   1.00
C34    C     0.25828   0.32266   0.18948   0.00000  Uiso   1.00
N35    N     0.23744   0.15214   0.01284   0.00000  Uiso   1.00
N36    N     0.26255   0.18119   0.32049   0.00000  Uiso   1.00
N37    N     0.39054   0.25176   0.24147   0.00000  Uiso   1.00
O38    O     0.39393   0.25396   0.29995   0.00000  Uiso   1.00
O39    O     0.36266   0.28003   0.21954   0.00000  Uiso   1.00
N40    N     0.10949   0.08154   0.09196   0.00000  Uiso   1.00
O41    O     0.10622   0.07935   0.03347   0.00000  Uiso   1.00
O42    O     0.13731   0.05326   0.11399   0.00000  Uiso   1.00
N43    N     0.37342   0.08255   0.08835   0.00000  Uiso   1.00
O44    O     0.37676   0.07055   0.02951   0.00000  Uiso   1.00
O45    O     0.34615   0.05363   0.11150   0.00000  Uiso   1.00
N46    N     0.12657   0.25082   0.24493   0.00000  Uiso   1.00
O47    O     0.12321   0.26286   0.30377   0.00000  Uiso   1.00
O48    O     0.15387   0.27972   0.22176   0.00000  Uiso   1.00
C49    C     0.02902   0.01964   0.08437   0.00000  Uiso   1.00
H50    H     0.00132   0.32140   0.07780   0.00000  Uiso   1.00
H51    H     0.04250   0.01583   0.03925   0.00000  Uiso   1.00
H52    H     0.05422   0.01147   0.11873   0.00000  Uiso   1.00
C53    C     0.47096   0.31371   0.24887   0.00000  Uiso   1.00
H54    H     0.49864   0.01196   0.25535   0.00000  Uiso   1.00
H55    H     0.44573   0.32183   0.21453   0.00000  Uiso   1.00
H56    H     0.45752   0.31757   0.29402   0.00000  Uiso   1.00
N57    N     0.21193   0.31417   0.09232   0.00000  Uiso   1.00
O58    O     0.17582   0.28806   0.10143   0.00000  Uiso   1.00
O59    O     0.21764   0.31872   0.03709   0.00000  Uiso   1.00
N60    N     0.28810   0.01916   0.24099   0.00000  Uiso   1.00
O61    O     0.28242   0.01458   0.29623   0.00000  Uiso   1.00
O62    O     0.32420   0.04527   0.23186   0.00000  Uiso   1.00
N63    N     0.19551   0.13487   0.31585   0.00000  Uiso   1.00
O64    O     0.18682   0.08529   0.28851   0.00000  Uiso   1.00
O65    O     0.16246   0.16400   0.32827   0.00000  Uiso   1.00
N66    N     0.30442   0.19867   0.01759   0.00000  Uiso   1.00
O67    O     0.31296   0.24833   0.04469   0.00000  Uiso   1.00
O68    O     0.33760   0.16971   0.00527   0.00000  Uiso   1.00
O69    O     0.75325   0.09538   0.20659   0.00000  Uiso   1.00
O70    O     0.74674   0.23796   0.12674   0.00000  Uiso   1.00
O71    O     0.74480   0.08559   0.10279   0.00000  Uiso   1.00
O72    O     0.75520   0.24774   0.23055   0.00000  Uiso   1.00
C73    C     0.74808   0.06665   0.15108   0.00000  Uiso   1.00
C74    C     0.75193   0.26668   0.18226   0.00000  Uiso   1.00
O75    O     0.68935   0.17155   0.21857   0.00000  Uiso   1.00
O76    O     0.81064   0.16179   0.11476   0.00000  Uiso   1.00
O77    O     0.68090   0.16176   0.11477   0.00000  Uiso   1.00
O78    O     0.81910   0.17157   0.21857   0.00000  Uiso   1.00
C79    C     0.66465   0.16640   0.16738   0.00000  Uiso   1.00
C80    C     0.83535   0.16694   0.16596   0.00000  Uiso   1.00
Cu81   Cu    0.75500   0.17246   0.22813   0.00000  Uiso   1.00
Cu82   Cu    0.74499   0.16087   0.10521   0.00000  Uiso   1.00
C83    C     0.91090   0.21145   0.20053   0.00000  Uiso   1.00
C84    C     0.58910   0.12188   0.13282   0.00000  Uiso   1.00
C85    C     0.88359   0.16795   0.16439   0.00000  Uiso   1.00
C86    C     0.61641   0.16539   0.16894   0.00000  Uiso   1.00
C87    C     0.90202   0.12515   0.12776   0.00000  Uiso   1.00
C88    C     0.59797   0.20821   0.20554   0.00000  Uiso   1.00
C89    C     0.94854   0.12349   0.13161   0.00000  Uiso   1.00
C90    C     0.55146   0.20987   0.20168   0.00000  Uiso   1.00
C91    C     0.97657   0.16760   0.16589   0.00000  Uiso   1.00
C92    C     0.52343   0.16575   0.16741   0.00000  Uiso   1.00
C93    C     0.95781   0.21348   0.19825   0.00000  Uiso   1.00
C94    C     0.54219   0.11986   0.13506   0.00000  Uiso   1.00
C95    C     0.96716   0.07717   0.10420   0.00000  Uiso   1.00
C96    C     0.53284   0.25619   0.22908   0.00000  Uiso   1.00
C97    C     0.51321   0.07391   0.10702   0.00000  Uiso   1.00
C98    C     0.98678   0.25944   0.22626   0.00000  Uiso   1.00
H99    H     0.94561   0.04210   0.08197   0.00000  Uiso   1.00
H100   H     0.55438   0.29127   0.25128   0.00000  Uiso   1.00
C101   C     0.74173   0.01068   0.14385   0.00000  Uiso   1.00
C102   C     0.75828   0.32266   0.18948   0.00000  Uiso   1.00
N103   N     0.73744   0.15214   0.01284   0.00000  Uiso   1.00
N104   N     0.76255   0.18119   0.32049   0.00000  Uiso   1.00
N105   N     0.89054   0.25176   0.24147   0.00000  Uiso   1.00
O106   O     0.89393   0.25396   0.29995   0.00000  Uiso   1.00
O107   O     0.86266   0.28003   0.21954   0.00000  Uiso   1.00
N108   N     0.60949   0.08154   0.09196   0.00000  Uiso   1.00
O109   O     0.60622   0.07935   0.03347   0.00000  Uiso   1.00
O110   O     0.63731   0.05326   0.11399   0.00000  Uiso   1.00
N111   N     0.87342   0.08255   0.08835   0.00000  Uiso   1.00
O112   O     0.87676   0.07055   0.02951   0.00000  Uiso   1.00
O113   O     0.84615   0.05363   0.11150   0.00000  Uiso   1.00
N114   N     0.62657   0.25082   0.24493   0.00000  Uiso   1.00
O115   O     0.62321   0.26286   0.30377   0.00000  Uiso   1.00
O116   O     0.65387   0.27972   0.22176   0.00000  Uiso   1.00
C117   C     0.52902   0.01964   0.08437   0.00000  Uiso   1.00
H118   H     0.50132   0.32140   0.07780   0.00000  Uiso   1.00
H119   H     0.54250   0.01583   0.03925   0.00000  Uiso   1.00
H120   H     0.55422   0.01147   0.11873   0.00000  Uiso   1.00
C121   C     0.97096   0.31371   0.24887   0.00000  Uiso   1.00
H122   H     0.99864   0.01196   0.25535   0.00000  Uiso   1.00
H123   H     0.94573   0.32183   0.21453   0.00000  Uiso   1.00
H124   H     0.95752   0.31757   0.29402   0.00000  Uiso   1.00
N125   N     0.71193   0.31417   0.09232   0.00000  Uiso   1.00
O126   O     0.67582   0.28806   0.10143   0.00000  Uiso   1.00
O127   O     0.71764   0.31872   0.03709   0.00000  Uiso   1.00
N128   N     0.78810   0.01916   0.24099   0.00000  Uiso   1.00
O129   O     0.78242   0.01458   0.29623   0.00000  Uiso   1.00
O130   O     0.82420   0.04527   0.23186   0.00000  Uiso   1.00
N131   N     0.69551   0.13487   0.31585   0.00000  Uiso   1.00
O132   O     0.68682   0.08529   0.28851   0.00000  Uiso   1.00
O133   O     0.66246   0.16400   0.32827   0.00000  Uiso   1.00
N134   N     0.80442   0.19867   0.01759   0.00000  Uiso   1.00
O135   O     0.81296   0.24833   0.04469   0.00000  Uiso   1.00
O136   O     0.83760   0.16971   0.00527   0.00000  Uiso   1.00
O137   O     0.25325   0.42871   0.20659   0.00000  Uiso   1.00
O138   O     0.24674   0.57129   0.12674   0.00000  Uiso   1.00
O139   O     0.24480   0.41892   0.10279   0.00000  Uiso   1.00
O140   O     0.25520   0.58108   0.23055   0.00000  Uiso   1.00
C141   C     0.24808   0.39998   0.15108   0.00000  Uiso   1.00
C142   C     0.25193   0.60002   0.18226   0.00000  Uiso   1.00
O143   O     0.18935   0.50488   0.21857   0.00000  Uiso   1.00
O144   O     0.31064   0.49512   0.11476   0.00000  Uiso   1.00
O145   O     0.18090   0.49510   0.11477   0.00000  Uiso   1.00
O146   O     0.31910   0.50490   0.21857   0.00000  Uiso   1.00
C147   C     0.16465   0.49974   0.16738   0.00000  Uiso   1.00
C148   C     0.33535   0.50027   0.16596   0.00000  Uiso   1.00
Cu149  Cu    0.25500   0.50579   0.22813   0.00000  Uiso   1.00
Cu150  Cu    0.24499   0.49421   0.10521   0.00000  Uiso   1.00
C151   C     0.41090   0.54479   0.20053   0.00000  Uiso   1.00
C152   C     0.08910   0.45522   0.13282   0.00000  Uiso   1.00
C153   C     0.38359   0.50129   0.16439   0.00000  Uiso   1.00
C154   C     0.11641   0.49873   0.16894   0.00000  Uiso   1.00
C155   C     0.40202   0.45849   0.12776   0.00000  Uiso   1.00
C156   C     0.09797   0.54154   0.20554   0.00000  Uiso   1.00
C157   C     0.44854   0.45682   0.13161   0.00000  Uiso   1.00
C158   C     0.05146   0.54320   0.20168   0.00000  Uiso   1.00
C159   C     0.47657   0.50093   0.16589   0.00000  Uiso   1.00
C160   C     0.02343   0.49909   0.16741   0.00000  Uiso   1.00
C161   C     0.45781   0.54681   0.19825   0.00000  Uiso   1.00
C162   C     0.04219   0.45320   0.13506   0.00000  Uiso   1.00
C163   C     0.46716   0.41050   0.10420   0.00000  Uiso   1.00
C164   C     0.03284   0.58953   0.22908   0.00000  Uiso   1.00
C165   C     0.01321   0.40725   0.10702   0.00000  Uiso   1.00
C166   C     0.48678   0.59277   0.22626   0.00000  Uiso   1.00
H167   H     0.44561   0.37543   0.08197   0.00000  Uiso   1.00
H168   H     0.05438   0.62461   0.25128   0.00000  Uiso   1.00
C169   C     0.24173   0.34401   0.14385   0.00000  Uiso   1.00
C170   C     0.25828   0.65599   0.18948   0.00000  Uiso   1.00
N171   N     0.23744   0.48547   0.01284   0.00000  Uiso   1.00
N172   N     0.26255   0.51453   0.32049   0.00000  Uiso   1.00
N173   N     0.39054   0.58509   0.24147   0.00000  Uiso   1.00
O174   O     0.39393   0.58729   0.29995   0.00000  Uiso   1.00
O175   O     0.36266   0.61336   0.21954   0.00000  Uiso   1.00
N176   N     0.10949   0.41487   0.09196   0.00000  Uiso   1.00
O177   O     0.10622   0.41268   0.03347   0.00000  Uiso   1.00
O178   O     0.13731   0.38659   0.11399   0.00000  Uiso   1.00
N179   N     0.37342   0.41589   0.08835   0.00000  Uiso   1.00
O180   O     0.37676   0.40389   0.02951   0.00000  Uiso   1.00
O181   O     0.34615   0.38696   0.11150   0.00000  Uiso   1.00
N182   N     0.12657   0.58415   0.24493   0.00000  Uiso   1.00
O183   O     0.12321   0.59620   0.30377   0.00000  Uiso   1.00
O184   O     0.15387   0.61305   0.22176   0.00000  Uiso   1.00
C185   C     0.02902   0.35297   0.08437   0.00000  Uiso   1.00
H186   H     0.00132   0.65473   0.07780   0.00000  Uiso   1.00
H187   H     0.04250   0.34916   0.03925   0.00000  Uiso   1.00
H188   H     0.05422   0.34481   0.11873   0.00000  Uiso   1.00
C189   C     0.47096   0.64705   0.24887   0.00000  Uiso   1.00
H190   H     0.49864   0.34529   0.25535   0.00000  Uiso   1.00
H191   H     0.44573   0.65516   0.21453   0.00000  Uiso   1.00
H192   H     0.45752   0.65090   0.29402   0.00000  Uiso   1.00
N193   N     0.21193   0.64750   0.09232   0.00000  Uiso   1.00
O194   O     0.17582   0.62140   0.10143   0.00000  Uiso   1.00
O195   O     0.21764   0.65206   0.03709   0.00000  Uiso   1.00
N196   N     0.28810   0.35249   0.24099   0.00000  Uiso   1.00
O197   O     0.28242   0.34791   0.29623   0.00000  Uiso   1.00
O198   O     0.32420   0.37860   0.23186   0.00000  Uiso   1.00
N199   N     0.19551   0.46821   0.31585   0.00000  Uiso   1.00
O200   O     0.18682   0.41862   0.28851   0.00000  Uiso   1.00
O201   O     0.16246   0.49733   0.32827   0.00000  Uiso   1.00
N202   N     0.30442   0.53200   0.01759   0.00000  Uiso   1.00
O203   O     0.31296   0.58166   0.04469   0.00000  Uiso   1.00
O204   O     0.33760   0.50304   0.00527   0.00000  Uiso   1.00
O205   O     0.75325   0.42871   0.20659   0.00000  Uiso   1.00
O206   O     0.74674   0.57129   0.12674   0.00000  Uiso   1.00
O207   O     0.74480   0.41892   0.10279   0.00000  Uiso   1.00
O208   O     0.75520   0.58108   0.23055   0.00000  Uiso   1.00
C209   C     0.74808   0.39998   0.15108   0.00000  Uiso   1.00
C210   C     0.75193   0.60002   0.18226   0.00000  Uiso   1.00
O211   O     0.68935   0.50488   0.21857   0.00000  Uiso   1.00
O212   O     0.81064   0.49512   0.11476   0.00000  Uiso   1.00
O213   O     0.68090   0.49510   0.11477   0.00000  Uiso   1.00
O214   O     0.81910   0.50490   0.21857   0.00000  Uiso   1.00
C215   C     0.66465   0.49974   0.16738   0.00000  Uiso   1.00
C216   C     0.83535   0.50027   0.16596   0.00000  Uiso   1.00
Cu217  Cu    0.75500   0.50579   0.22813   0.00000  Uiso   1.00
Cu218  Cu    0.74499   0.49421   0.10521   0.00000  Uiso   1.00
C219   C     0.91090   0.54479   0.20053   0.00000  Uiso   1.00
C220   C     0.58910   0.45522   0.13282   0.00000  Uiso   1.00
C221   C     0.88359   0.50129   0.16439   0.00000  Uiso   1.00
C222   C     0.61641   0.49873   0.16894   0.00000  Uiso   1.00
C223   C     0.90202   0.45849   0.12776   0.00000  Uiso   1.00
C224   C     0.59797   0.54154   0.20554   0.00000  Uiso   1.00
C225   C     0.94854   0.45682   0.13161   0.00000  Uiso   1.00
C226   C     0.55146   0.54320   0.20168   0.00000  Uiso   1.00
C227   C     0.97657   0.50093   0.16589   0.00000  Uiso   1.00
C228   C     0.52343   0.49909   0.16741   0.00000  Uiso   1.00
C229   C     0.95781   0.54681   0.19825   0.00000  Uiso   1.00
C230   C     0.54219   0.45320   0.13506   0.00000  Uiso   1.00
C231   C     0.96716   0.41050   0.10420   0.00000  Uiso   1.00
C232   C     0.53284   0.58953   0.22908   0.00000  Uiso   1.00
C233   C     0.51321   0.40725   0.10702   0.00000  Uiso   1.00
C234   C     0.98678   0.59277   0.22626   0.00000  Uiso   1.00
H235   H     0.94561   0.37543   0.08197   0.00000  Uiso   1.00
H236   H     0.55438   0.62461   0.25128   0.00000  Uiso   1.00
C237   C     0.74173   0.34401   0.14385   0.00000  Uiso   1.00
C238   C     0.75828   0.65599   0.18948   0.00000  Uiso   1.00
N239   N     0.73744   0.48547   0.01284   0.00000  Uiso   1.00
N240   N     0.76255   0.51453   0.32049   0.00000  Uiso   1.00
N241   N     0.89054   0.58509   0.24147   0.00000  Uiso   1.00
O242   O     0.89393   0.58729   0.29995   0.00000  Uiso   1.00
O243   O     0.86266   0.61336   0.21954   0.00000  Uiso   1.00
N244   N     0.60949   0.41487   0.09196   0.00000  Uiso   1.00
O245   O     0.60622   0.41268   0.03347   0.00000  Uiso   1.00
O246   O     0.63731   0.38659   0.11399   0.00000  Uiso   1.00
N247   N     0.87342   0.41589   0.08835   0.00000  Uiso   1.00
O248   O     0.87676   0.40389   0.02951   0.00000  Uiso   1.00
O249   O     0.84615   0.38696   0.11150   0.00000  Uiso   1.00
N250   N     0.62657   0.58415   0.24493   0.00000  Uiso   1.00
O251   O     0.62321   0.59620   0.30377   0.00000  Uiso   1.00
O252   O     0.65387   0.61305   0.22176   0.00000  Uiso   1.00
C253   C     0.52902   0.35297   0.08437   0.00000  Uiso   1.00
H254   H     0.50132   0.65473   0.07780   0.00000  Uiso   1.00
H255   H     0.54250   0.34916   0.03925   0.00000  Uiso   1.00
H256   H     0.55422   0.34481   0.11873   0.00000  Uiso   1.00
C257   C     0.97096   0.64705   0.24887   0.00000  Uiso   1.00
H258   H     0.99864   0.34529   0.25535   0.00000  Uiso   1.00
H259   H     0.94573   0.65516   0.21453   0.00000  Uiso   1.00
H260   H     0.95752   0.65090   0.29402   0.00000  Uiso   1.00
N261   N     0.71193   0.64750   0.09232   0.00000  Uiso   1.00
O262   O     0.67582   0.62140   0.10143   0.00000  Uiso   1.00
O263   O     0.71764   0.65206   0.03709   0.00000  Uiso   1.00
N264   N     0.78810   0.35249   0.24099   0.00000  Uiso   1.00
O265   O     0.78242   0.34791   0.29623   0.00000  Uiso   1.00
O266   O     0.82420   0.37860   0.23186   0.00000  Uiso   1.00
N267   N     0.69551   0.46821   0.31585   0.00000  Uiso   1.00
O268   O     0.68682   0.41862   0.28851   0.00000  Uiso   1.00
O269   O     0.66246   0.49733   0.32827   0.00000  Uiso   1.00
N270   N     0.80442   0.53200   0.01759   0.00000  Uiso   1.00
O271   O     0.81296   0.58166   0.04469   0.00000  Uiso   1.00
O272   O     0.83760   0.50304   0.00527   0.00000  Uiso   1.00
O273   O     0.25325   0.76204   0.20659   0.00000  Uiso   1.00
O274   O     0.24674   0.90462   0.12674   0.00000  Uiso   1.00
O275   O     0.24480   0.75226   0.10279   0.00000  Uiso   1.00
O276   O     0.25520   0.91441   0.23055   0.00000  Uiso   1.00
C277   C     0.24808   0.73332   0.15108   0.00000  Uiso   1.00
C278   C     0.25193   0.93335   0.18226   0.00000  Uiso   1.00
O279   O     0.18935   0.83821   0.21857   0.00000  Uiso   1.00
O280   O     0.31064   0.82845   0.11476   0.00000  Uiso   1.00
O281   O     0.18090   0.82843   0.11477   0.00000  Uiso   1.00
O282   O     0.31910   0.83824   0.21857   0.00000  Uiso   1.00
C283   C     0.16465   0.83307   0.16738   0.00000  Uiso   1.00
C284   C     0.33535   0.83361   0.16596   0.00000  Uiso   1.00
Cu285  Cu    0.25500   0.83913   0.22813   0.00000  Uiso   1.00
Cu286  Cu    0.24499   0.82754   0.10521   0.00000  Uiso   1.00
C287   C     0.41090   0.87812   0.20053   0.00000  Uiso   1.00
C288   C     0.08910   0.78855   0.13282   0.00000  Uiso   1.00
C289   C     0.38359   0.83462   0.16439   0.00000  Uiso   1.00
C290   C     0.11641   0.83206   0.16894   0.00000  Uiso   1.00
C291   C     0.40202   0.79182   0.12776   0.00000  Uiso   1.00
C292   C     0.09797   0.87487   0.20554   0.00000  Uiso   1.00
C293   C     0.44854   0.79015   0.13161   0.00000  Uiso   1.00
C294   C     0.05146   0.87654   0.20168   0.00000  Uiso   1.00
C295   C     0.47657   0.83426   0.16589   0.00000  Uiso   1.00
C296   C     0.02343   0.83242   0.16741   0.00000  Uiso   1.00
C297   C     0.45781   0.88015   0.19825   0.00000  Uiso   1.00
C298   C     0.04219   0.78653   0.13506   0.00000  Uiso   1.00
C299   C     0.46716   0.74384   0.10420   0.00000  Uiso   1.00
C300   C     0.03284   0.92286   0.22908   0.00000  Uiso   1.00
C301   C     0.01321   0.74058   0.10702   0.00000  Uiso   1.00
C302   C     0.48678   0.92611   0.22626   0.00000  Uiso   1.00
H303   H     0.44561   0.70877   0.08197   0.00000  Uiso   1.00
H304   H     0.05438   0.95794   0.25128   0.00000  Uiso   1.00
C305   C     0.24173   0.67734   0.14385   0.00000  Uiso   1.00
C306   C     0.25828   0.98932   0.18948   0.00000  Uiso   1.00
N307   N     0.23744   0.81881   0.01284   0.00000  Uiso   1.00
N308   N     0.26255   0.84786   0.32049   0.00000  Uiso   1.00
N309   N     0.39054   0.91842   0.24147   0.00000  Uiso   1.00
O310   O     0.39393   0.92063   0.29995   0.00000  Uiso   1.00
O311   O     0.36266   0.94669   0.21954   0.00000  Uiso   1.00
N312   N     0.10949   0.74820   0.09196   0.00000  Uiso   1.00
O313   O     0.10622   0.74601   0.03347   0.00000  Uiso   1.00
O314   O     0.13731   0.71993   0.11399   0.00000  Uiso   1.00
N315   N     0.37342   0.74922   0.08835   0.00000  Uiso   1.00
O316   O     0.37676   0.73722   0.02951   0.00000  Uiso   1.00
O317   O     0.34615   0.72030   0.11150   0.00000  Uiso   1.00
N318   N     0.12657   0.91749   0.24493   0.00000  Uiso   1.00
O319   O     0.12321   0.92953   0.30377   0.00000  Uiso   1.00
O320   O     0.15387   0.94638   0.22176   0.00000  Uiso   1.00
C321   C     0.02902   0.68631   0.08437   0.00000  Uiso   1.00
H322   H     0.00132   0.98806   0.07780   0.00000  Uiso   1.00
H323   H     0.04250   0.68249   0.03925   0.00000  Uiso   1.00
H324   H     0.05422   0.67814   0.11873   0.00000  Uiso   1.00
C325   C     0.47096   0.98038   0.24887   0.00000  Uiso   1.00
H326   H     0.49864   0.67863   0.25535   0.00000  Uiso   1.00
H327   H     0.44573   0.98849   0.21453   0.00000  Uiso   1.00
H328   H     0.45752   0.98424   0.29402   0.00000  Uiso   1.00
N329   N     0.21193   0.98084   0.09232   0.00000  Uiso   1.00
O330   O     0.17582   0.95473   0.10143   0.00000  Uiso   1.00
O331   O     0.21764   0.98539   0.03709   0.00000  Uiso   1.00
N332   N     0.28810   0.68583   0.24099   0.00000  Uiso   1.00
O333   O     0.28242   0.68125   0.29623   0.00000  Uiso   1.00
O334   O     0.32420   0.71194   0.23186   0.00000  Uiso   1.00
N335   N     0.19551   0.80154   0.31585   0.00000  Uiso   1.00
O336   O     0.18682   0.75195   0.28851   0.00000  Uiso   1.00
O337   O     0.16246   0.83067   0.32827   0.00000  Uiso   1.00
N338   N     0.30442   0.86533   0.01759   0.00000  Uiso   1.00
O339   O     0.31296   0.91500   0.04469   0.00000  Uiso   1.00
O340   O     0.33760   0.83637   0.00527   0.00000  Uiso   1.00
O341   O     0.75325   0.76204   0.20659   0.00000  Uiso   1.00
O342   O     0.74674   0.90462   0.12674   0.00000  Uiso   1.00
O343   O     0.74480   0.75226   0.10279   0.00000  Uiso   1.00
O344   O     0.75520   0.91441   0.23055   0.00000  Uiso   1.00
C345   C     0.74808   0.73332   0.15108   0.00000  Uiso   1.00
C346   C     0.75193   0.93335   0.18226   0.00000  Uiso   1.00
O347   O     0.68935   0.83821   0.21857   0.00000  Uiso   1.00
O348   O     0.81064   0.82845   0.11476   0.00000  Uiso   1.00
O349   O     0.68090   0.82843   0.11477   0.00000  Uiso   1.00
O350   O     0.81910   0.83824   0.21857   0.00000  Uiso   1.00
C351   C     0.66465   0.83307   0.16738   0.00000  Uiso   1.00
C352   C     0.83535   0.83361   0.16596   0.00000  Uiso   1.00
Cu353  Cu    0.75500   0.83913   0.22813   0.00000  Uiso   1.00
Cu354  Cu    0.74499   0.82754   0.10521   0.00000  Uiso   1.00
C355   C     0.91090   0.87812   0.20053   0.00000  Uiso   1.00
C356   C     0.58910   0.78855   0.13282   0.00000  Uiso   1.00
C357   C     0.88359   0.83462   0.16439   0.00000  Uiso   1.00
C358   C     0.61641   0.83206   0.16894   0.00000  Uiso   1.00
C359   C     0.90202   0.79182   0.12776   0.00000  Uiso   1.00
C360   C     0.59797   0.87487   0.20554   0.00000  Uiso   1.00
C361   C     0.94854   0.79015   0.13161   0.00000  Uiso   1.00
C362   C     0.55146   0.87654   0.20168   0.00000  Uiso   1.00
C363   C     0.97657   0.83426   0.16589   0.00000  Uiso   1.00
C364   C     0.52343   0.83242   0.16741   0.00000  Uiso   1.00
C365   C     0.95781   0.88015   0.19825   0.00000  Uiso   1.00
C366   C     0.54219   0.78653   0.13506   0.00000  Uiso   1.00
C367   C     0.96716   0.74384   0.10420   0.00000  Uiso   1.00
C368   C     0.53284   0.92286   0.22908   0.00000  Uiso   1.00
C369   C     0.51321   0.74058   0.10702   0.00000  Uiso   1.00
C370   C     0.98678   0.92611   0.22626   0.00000  Uiso   1.00
H371   H     0.94561   0.70877   0.08197   0.00000  Uiso   1.00
H372   H     0.55438   0.95794   0.25128   0.00000  Uiso   1.00
C373   C     0.74173   0.67734   0.14385   0.00000  Uiso   1.00
C374   C     0.75828   0.98932   0.18948   0.00000  Uiso   1.00
N375   N     0.73744   0.81881   0.01284   0.00000  Uiso   1.00
N376   N     0.76255   0.84786   0.32049   0.00000  Uiso   1.00
N377   N     0.89054   0.91842   0.24147   0.00000  Uiso   1.00
O378   O     0.89393   0.92063   0.29995   0.00000  Uiso   1.00
O379   O     0.86266   0.94669   0.21954   0.00000  Uiso   1.00
N380   N     0.60949   0.74820   0.09196   0.00000  Uiso   1.00
O381   O     0.60622   0.74601   0.03347   0.00000  Uiso   1.00
O382   O     0.63731   0.71993   0.11399   0.00000  Uiso   1.00
N383   N     0.87342   0.74922   0.08835   0.00000  Uiso   1.00
O384   O     0.87676   0.73722   0.02951   0.00000  Uiso   1.00
O385   O     0.84615   0.72030   0.11150   0.00000  Uiso   1.00
N386   N     0.62657   0.91749   0.24493   0.00000  Uiso   1.00
O387   O     0.62321   0.92953   0.30377   0.00000  Uiso   1.00
O388   O     0.65387   0.94638   0.22176   0.00000  Uiso   1.00
C389   C     0.52902   0.68631   0.08437   0.00000  Uiso   1.00
H390   H     0.50132   0.98806   0.07780   0.00000  Uiso   1.00
H391   H     0.54250   0.68249   0.03925   0.00000  Uiso   1.00
H392   H     0.55422   0.67814   0.11873   0.00000  Uiso   1.00
C393   C     0.97096   0.98038   0.24887   0.00000  Uiso   1.00
H394   H     0.99864   0.67863   0.25535   0.00000  Uiso   1.00
H395   H     0.94573   0.98849   0.21453   0.00000  Uiso   1.00
H396   H     0.95752   0.98424   0.29402   0.00000  Uiso   1.00
N397   N     0.71193   0.98084   0.09232   0.00000  Uiso   1.00
O398   O     0.67582   0.95473   0.10143   0.00000  Uiso   1.00
O399   O     0.71764   0.98539   0.03709   0.00000  Uiso   1.00
N400   N     0.78810   0.68583   0.24099   0.00000  Uiso   1.00
O401   O     0.78242   0.68125   0.29623   0.00000  Uiso   1.00
O402   O     0.82420   0.71194   0.23186   0.00000  Uiso   1.00
N403   N     0.69551   0.80154   0.31585   0.00000  Uiso   1.00
O404   O     0.68682   0.75195   0.28851   0.00000  Uiso   1.00
O405   O     0.66246   0.83067   0.32827   0.00000  Uiso   1.00
N406   N     0.80442   0.86533   0.01759   0.00000  Uiso   1.00
O407   O     0.81296   0.91500   0.04469   0.00000  Uiso   1.00
O408   O     0.83760   0.83637   0.00527   0.00000  Uiso   1.00
O409   O     0.25325   0.09538   0.53992   0.00000  Uiso   1.00
O410   O     0.24674   0.23796   0.46008   0.00000  Uiso   1.00
O411   O     0.24480   0.08559   0.43612   0.00000  Uiso   1.00
O412   O     0.25520   0.24774   0.56388   0.00000  Uiso   1.00
C413   C     0.24808   0.06665   0.48441   0.00000  Uiso   1.00
C414   C     0.25193   0.26668   0.51559   0.00000  Uiso   1.00
O415   O     0.18935   0.17155   0.55191   0.00000  Uiso   1.00
O416   O     0.31064   0.16179   0.44809   0.00000  Uiso   1.00
O417   O     0.18090   0.16176   0.44810   0.00000  Uiso   1.00
O418   O     0.31910   0.17157   0.55190   0.00000  Uiso   1.00
C419   C     0.16465   0.16640   0.50071   0.00000  Uiso   1.00
C420   C     0.33535   0.16694   0.49929   0.00000  Uiso   1.00
Cu421  Cu    0.25500   0.17246   0.56146   0.00000  Uiso   1.00
Cu422  Cu    0.24499   0.16087   0.43854   0.00000  Uiso   1.00
C423   C     0.41090   0.21145   0.53386   0.00000  Uiso   1.00
C424   C     0.08910   0.12188   0.46615   0.00000  Uiso   1.00
C425   C     0.38359   0.16795   0.49772   0.00000  Uiso   1.00
C426   C     0.11641   0.16539   0.50227   0.00000  Uiso   1.00
C427   C     0.40202   0.12515   0.46109   0.00000  Uiso   1.00
C428   C     0.09797   0.20821   0.53887   0.00000  Uiso   1.00
C429   C     0.44854   0.12349   0.46494   0.00000  Uiso   1.00
C430   C     0.05146   0.20987   0.53502   0.00000  Uiso   1.00
C431   C     0.47657   0.16760   0.49922   0.00000  Uiso   1.00
C432   C     0.02343   0.16575   0.50074   0.00000  Uiso   1.00
C433   C     0.45781   0.21348   0.53159   0.00000  Uiso   1.00
C434   C     0.04219   0.11986   0.46839   0.00000  Uiso   1.00
C435   C     0.46716   0.07717   0.43753   0.00000  Uiso   1.00
C436   C     0.03284   0.25619   0.56241   0.00000  Uiso   1.00
C437   C     0.01321   0.07391   0.44035   0.00000  Uiso   1.00
C438   C     0.48678   0.25944   0.55960   0.00000  Uiso   1.00
H439   H     0.44561   0.04210   0.41530   0.00000  Uiso   1.00
H440   H     0.05438   0.29127   0.58462   0.00000  Uiso   1.00
C441   C     0.24173   0.01068   0.47718   0.00000  Uiso   1.00
C442   C     0.25828   0.32266   0.52281   0.00000  Uiso   1.00
N443   N     0.23744   0.15214   0.34617   0.00000  Uiso   1.00
N444   N     0.26255   0.18119   0.65383   0.00000  Uiso   1.00
N445   N     0.39054   0.25176   0.57480   0.00000  Uiso   1.00
O446   O     0.39393   0.25396   0.63329   0.00000  Uiso   1.00
O447   O     0.36266   0.28003   0.55287   0.00000  Uiso   1.00
N448   N     0.10949   0.08154   0.42529   0.00000  Uiso   1.00
O449   O     0.10622   0.07935   0.36680   0.00000  Uiso   1.00
O450   O     0.13731   0.05326   0.44733   0.00000  Uiso   1.00
N451   N     0.37342   0.08255   0.42168   0.00000  Uiso   1.00
O452   O     0.37676   0.07055   0.36284   0.00000  Uiso   1.00
O453   O     0.34615   0.05363   0.44484   0.00000  Uiso   1.00
N454   N     0.12657   0.25082   0.57827   0.00000  Uiso   1.00
O455   O     0.12321   0.26286   0.63710   0.00000  Uiso   1.00
O456   O     0.15387   0.27972   0.55510   0.00000  Uiso   1.00
C457   C     0.02902   0.01964   0.41770   0.00000  Uiso   1.00
H458   H     0.00132   0.32140   0.41113   0.00000  Uiso   1.00
H459   H     0.04250   0.01583   0.37258   0.00000  Uiso   1.00
H460   H     0.05422   0.01147   0.45206   0.00000  Uiso   1.00
C461   C     0.47096   0.31371   0.58220   0.00000  Uiso   1.00
H462   H     0.49864   0.01196   0.58868   0.00000  Uiso   1.00
H463   H     0.44573   0.32183   0.54786   0.00000  Uiso   1.00
H464   H     0.45752   0.31757   0.62735   0.00000  Uiso   1.00
N465   N     0.21193   0.31417   0.42565   0.00000  Uiso   1.00
O466   O     0.17582   0.28806   0.43476   0.00000  Uiso   1.00
O467   O     0.21764   0.31872   0.37042   0.00000  Uiso   1.00
N468   N     0.28810   0.01916   0.57433   0.00000  Uiso   1.00
O469   O     0.28242   0.01458   0.62956   0.00000  Uiso   1.00
O470   O     0.32420   0.04527   0.56519   0.00000  Uiso   1.00
N471   N     0.19551   0.13487   0.64918   0.00000  Uiso   1.00
O472   O     0.18682   0.08529   0.62185   0.00000  Uiso   1.00
O473   O     0.16246   0.16400   0.66161   0.00000  Uiso   1.00
N474   N     0.30442   0.19867   0.35092   0.00000  Uiso   1.00
O475   O     0.31296   0.24833   0.37802   0.00000  Uiso   1.00
O476   O     0.33760   0.16971   0.33861   0.00000  Uiso   1.00
O477   O     0.75325   0.09538   0.53992   0.00000  Uiso   1.00
O478   O     0.74674   0.23796   0.46008   0.00000  Uiso   1.00
O479   O     0.74480   0.08559   0.43612   0.00000  Uiso   1.00
O480   O     0.75520   0.24774   0.56388   0.00000  Uiso   1.00
C481   C     0.74808   0.06665   0.48441   0.00000  Uiso   1.00
C482   C     0.75193   0.26668   0.51559   0.00000  Uiso   1.00
O483   O     0.68935   0.17155   0.55191   0.00000  Uiso   1.00
O484   O     0.81064   0.16179   0.44809   0.00000  Uiso   1.00
O485   O     0.68090   0.16176   0.44810   0.00000  Uiso   1.00
O486   O     0.81910   0.17157   0.55190   0.00000  Uiso   1.00
C487   C     0.66465   0.16640   0.50071   0.00000  Uiso   1.00
C488   C     0.83535   0.16694   0.49929   0.00000  Uiso   1.00
Cu489  Cu    0.75500   0.17246   0.56146   0.00000  Uiso   1.00
Cu490  Cu    0.74499   0.16087   0.43854   0.00000  Uiso   1.00
C491   C     0.91090   0.21145   0.53386   0.00000  Uiso   1.00
C492   C     0.58910   0.12188   0.46615   0.00000  Uiso   1.00
C493   C     0.88359   0.16795   0.49772   0.00000  Uiso   1.00
C494   C     0.61641   0.16539   0.50227   0.00000  Uiso   1.00
C495   C     0.90202   0.12515   0.46109   0.00000  Uiso   1.00
C496   C     0.59797   0.20821   0.53887   0.00000  Uiso   1.00
C497   C     0.94854   0.12349   0.46494   0.00000  Uiso   1.00
C498   C     0.55146   0.20987   0.53502   0.00000  Uiso   1.00
C499   C     0.97657   0.16760   0.49922   0.00000  Uiso   1.00
C500   C     0.52343   0.16575   0.50074   0.00000  Uiso   1.00
C501   C     0.95781   0.21348   0.53159   0.00000  Uiso   1.00
C502   C     0.54219   0.11986   0.46839   0.00000  Uiso   1.00
C503   C     0.96716   0.07717   0.43753   0.00000  Uiso   1.00
C504   C     0.53284   0.25619   0.56241   0.00000  Uiso   1.00
C505   C     0.51321   0.07391   0.44035   0.00000  Uiso   1.00
C506   C     0.98678   0.25944   0.55960   0.00000  Uiso   1.00
H507   H     0.94561   0.04210   0.41530   0.00000  Uiso   1.00
H508   H     0.55438   0.29127   0.58462   0.00000  Uiso   1.00
C509   C     0.74173   0.01068   0.47718   0.00000  Uiso   1.00
C510   C     0.75828   0.32266   0.52281   0.00000  Uiso   1.00
N511   N     0.73744   0.15214   0.34617   0.00000  Uiso   1.00
N512   N     0.76255   0.18119   0.65383   0.00000  Uiso   1.00
N513   N     0.89054   0.25176   0.57480   0.00000  Uiso   1.00
O514   O     0.89393   0.25396   0.63329   0.00000  Uiso   1.00
O515   O     0.86266   0.28003   0.55287   0.00000  Uiso   1.00
N516   N     0.60949   0.08154   0.42529   0.00000  Uiso   1.00
O517   O     0.60622   0.07935   0.36680   0.00000  Uiso   1.00
O518   O     0.63731   0.05326   0.44733   0.00000  Uiso   1.00
N519   N     0.87342   0.08255   0.42168   0.00000  Uiso   1.00
O520   O     0.87676   0.07055   0.36284   0.00000  Uiso   1.00
O521   O     0.84615   0.05363   0.44484   0.00000  Uiso   1.00
N522   N     0.62657   0.25082   0.57827   0.00000  Uiso   1.00
O523   O     0.62321   0.26286   0.63710   0.00000  Uiso   1.00
O524   O     0.65387   0.27972   0.55510   0.00000  Uiso   1.00
C525   C     0.52902   0.01964   0.41770   0.00000  Uiso   1.00
H526   H     0.50132   0.32140   0.41113   0.00000  Uiso   1.00
H527   H     0.54250   0.01583   0.37258   0.00000  Uiso   1.00
H528   H     0.55422   0.01147   0.45206   0.00000  Uiso   1.00
C529   C     0.97096   0.31371   0.58220   0.00000  Uiso   1.00
H530   H     0.99864   0.01196   0.58868   0.00000  Uiso   1.00
H531   H     0.94573   0.32183   0.54786   0.00000  Uiso   1.00
H532   H     0.95752   0.31757   0.62735   0.00000  Uiso   1.00
N533   N     0.71193   0.31417   0.42565   0.00000  Uiso   1.00
O534   O     0.67582   0.28806   0.43476   0.00000  Uiso   1.00
O535   O     0.71764   0.31872   0.37042   0.00000  Uiso   1.00
N536   N     0.78810   0.01916   0.57433   0.00000  Uiso   1.00
O537   O     0.78242   0.01458   0.62956   0.00000  Uiso   1.00
O538   O     0.82420   0.04527   0.56519   0.00000  Uiso   1.00
N539   N     0.69551   0.13487   0.64918   0.00000  Uiso   1.00
O540   O     0.68682   0.08529   0.62185   0.00000  Uiso   1.00
O541   O     0.66246   0.16400   0.66161   0.00000  Uiso   1.00
N542   N     0.80442   0.19867   0.35092   0.00000  Uiso   1.00
O543   O     0.81296   0.24833   0.37802   0.00000  Uiso   1.00
O544   O     0.83760   0.16971   0.33861   0.00000  Uiso   1.00
O545   O     0.25325   0.42871   0.53992   0.00000  Uiso   1.00
O546   O     0.24674   0.57129   0.46008   0.00000  Uiso   1.00
O547   O     0.24480   0.41892   0.43612   0.00000  Uiso   1.00
O548   O     0.25520   0.58108   0.56388   0.00000  Uiso   1.00
C549   C     0.24808   0.39998   0.48441   0.00000  Uiso   1.00
C550   C     0.25193   0.60002   0.51559   0.00000  Uiso   1.00
O551   O     0.18935   0.50488   0.55191   0.00000  Uiso   1.00
O552   O     0.31064   0.49512   0.44809   0.00000  Uiso   1.00
O553   O     0.18090   0.49510   0.44810   0.00000  Uiso   1.00
O554   O     0.31910   0.50490   0.55190   0.00000  Uiso   1.00
C555   C     0.16465   0.49974   0.50071   0.00000  Uiso   1.00
C556   C     0.33535   0.50027   0.49929   0.00000  Uiso   1.00
Cu557  Cu    0.25500   0.50579   0.56146   0.00000  Uiso   1.00
Cu558  Cu    0.24499   0.49421   0.43854   0.00000  Uiso   1.00
C559   C     0.41090   0.54479   0.53386   0.00000  Uiso   1.00
C560   C     0.08910   0.45522   0.46615   0.00000  Uiso   1.00
C561   C     0.38359   0.50129   0.49772   0.00000  Uiso   1.00
C562   C     0.11641   0.49873   0.50227   0.00000  Uiso   1.00
C563   C     0.40202   0.45849   0.46109   0.00000  Uiso   1.00
C564   C     0.09797   0.54154   0.53887   0.00000  Uiso   1.00
C565   C     0.44854   0.45682   0.46494   0.00000  Uiso   1.00
C566   C     0.05146   0.54320   0.53502   0.00000  Uiso   1.00
C567   C     0.47657   0.50093   0.49922   0.00000  Uiso   1.00
C568   C     0.02343   0.49909   0.50074   0.00000  Uiso   1.00
C569   C     0.45781   0.54681   0.53159   0.00000  Uiso   1.00
C570   C     0.04219   0.45320   0.46839   0.00000  Uiso   1.00
C571   C     0.46716   0.41050   0.43753   0.00000  Uiso   1.00
C572   C     0.03284   0.58953   0.56241   0.00000  Uiso   1.00
C573   C     0.01321   0.40725   0.44035   0.00000  Uiso   1.00
C574   C     0.48678   0.59277   0.55960   0.00000  Uiso   1.00
H575   H     0.44561   0.37543   0.41530   0.00000  Uiso   1.00
H576   H     0.05438   0.62461   0.58462   0.00000  Uiso   1.00
C577   C     0.24173   0.34401   0.47718   0.00000  Uiso   1.00
C578   C     0.25828   0.65599   0.52281   0.00000  Uiso   1.00
N579   N     0.23744   0.48547   0.34617   0.00000  Uiso   1.00
N580   N     0.26255   0.51453   0.65383   0.00000  Uiso   1.00
N581   N     0.39054   0.58509   0.57480   0.00000  Uiso   1.00
O582   O     0.39393   0.58729   0.63329   0.00000  Uiso   1.00
O583   O     0.36266   0.61336   0.55287   0.00000  Uiso   1.00
N584   N     0.10949   0.41487   0.42529   0.00000  Uiso   1.00
O585   O     0.10622   0.41268   0.36680   0.00000  Uiso   1.00
O586   O     0.13731   0.38659   0.44733   0.00000  Uiso   1.00
N587   N     0.37342   0.41589   0.42168   0.00000  Uiso   1.00
O588   O     0.37676   0.40389   0.36284   0.00000  Uiso   1.00
O589   O     0.34615   0.38696   0.44484   0.00000  Uiso   1.00
N590   N     0.12657   0.58415   0.57827   0.00000  Uiso   1.00
O591   O     0.12321   0.59620   0.63710   0.00000  Uiso   1.00
O592   O     0.15387   0.61305   0.55510   0.00000  Uiso   1.00
C593   C     0.02902   0.35297   0.41770   0.00000  Uiso   1.00
H594   H     0.00132   0.65473   0.41113   0.00000  Uiso   1.00
H595   H     0.04250   0.34916   0.37258   0.00000  Uiso   1.00
H596   H     0.05422   0.34481   0.45206   0.00000  Uiso   1.00
C597   C     0.47096   0.64705   0.58220   0.00000  Uiso   1.00
H598   H     0.49864   0.34529   0.58868   0.00000  Uiso   1.00
H599   H     0.44573   0.65516   0.54786   0.00000  Uiso   1.00
H600   H     0.45752   0.65090   0.62735   0.00000  Uiso   1.00
N601   N     0.21193   0.64750   0.42565   0.00000  Uiso   1.00
O602   O     0.17582   0.62140   0.43476   0.00000  Uiso   1.00
O603   O     0.21764   0.65206   0.37042   0.00000  Uiso   1.00
N604   N     0.28810   0.35249   0.57433   0.00000  Uiso   1.00
O605   O     0.28242   0.34791   0.62956   0.00000  Uiso   1.00
O606   O     0.32420   0.37860   0.56519   0.00000  Uiso   1.00
N607   N     0.19551   0.46821   0.64918   0.00000  Uiso   1.00
O608   O     0.18682   0.41862   0.62185   0.00000  Uiso   1.00
O609   O     0.16246   0.49733   0.66161   0.00000  Uiso   1.00
N610   N     0.30442   0.53200   0.35092   0.00000  Uiso   1.00
O611   O     0.31296   0.58166   0.37802   0.00000  Uiso   1.00
O612   O     0.33760   0.50304   0.33861   0.00000  Uiso   1.00
O613   O     0.75325   0.42871   0.53992   0.00000  Uiso   1.00
O614   O     0.74674   0.57129   0.46008   0.00000  Uiso   1.00
O615   O     0.74480   0.41892   0.43612   0.00000  Uiso   1.00
O616   O     0.75520   0.58108   0.56388   0.00000  Uiso   1.00
C617   C     0.74808   0.39998   0.48441   0.00000  Uiso   1.00
C618   C     0.75193   0.60002   0.51559   0.00000  Uiso   1.00
O619   O     0.68935   0.50488   0.55191   0.00000  Uiso   1.00
O620   O     0.81064   0.49512   0.44809   0.00000  Uiso   1.00
O621   O     0.68090   0.49510   0.44810   0.00000  Uiso   1.00
O622   O     0.81910   0.50490   0.55190   0.00000  Uiso   1.00
C623   C     0.66465   0.49974   0.50071   0.00000  Uiso   1.00
C624   C     0.83535   0.50027   0.49929   0.00000  Uiso   1.00
Cu625  Cu    0.75500   0.50579   0.56146   0.00000  Uiso   1.00
Cu626  Cu    0.74499   0.49421   0.43854   0.00000  Uiso   1.00
C627   C     0.91090   0.54479   0.53386   0.00000  Uiso   1.00
C628   C     0.58910   0.45522   0.46615   0.00000  Uiso   1.00
C629   C     0.88359   0.50129   0.49772   0.00000  Uiso   1.00
C630   C     0.61641   0.49873   0.50227   0.00000  Uiso   1.00
C631   C     0.90202   0.45849   0.46109   0.00000  Uiso   1.00
C632   C     0.59797   0.54154   0.53887   0.00000  Uiso   1.00
C633   C     0.94854   0.45682   0.46494   0.00000  Uiso   1.00
C634   C     0.55146   0.54320   0.53502   0.00000  Uiso   1.00
C635   C     0.97657   0.50093   0.49922   0.00000  Uiso   1.00
C636   C     0.52343   0.49909   0.50074   0.00000  Uiso   1.00
C637   C     0.95781   0.54681   0.53159   0.00000  Uiso   1.00
C638   C     0.54219   0.45320   0.46839   0.00000  Uiso   1.00
C639   C     0.96716   0.41050   0.43753   0.00000  Uiso   1.00
C640   C     0.53284   0.58953   0.56241   0.00000  Uiso   1.00
C641   C     0.51321   0.40725   0.44035   0.00000  Uiso   1.00
C642   C     0.98678   0.59277   0.55960   0.00000  Uiso   1.00
H643   H     0.94561   0.37543   0.41530   0.00000  Uiso   1.00
H644   H     0.55438   0.62461   0.58462   0.00000  Uiso   1.00
C645   C     0.74173   0.34401   0.47718   0.00000  Uiso   1.00
C646   C     0.75828   0.65599   0.52281   0.00000  Uiso   1.00
N647   N     0.73744   0.48547   0.34617   0.00000  Uiso   1.00
N648   N     0.76255   0.51453   0.65383   0.00000  Uiso   1.00
N649   N     0.89054   0.58509   0.57480   0.00000  Uiso   1.00
O650   O     0.89393   0.58729   0.63329   0.00000  Uiso   1.00
O651   O     0.86266   0.61336   0.55287   0.00000  Uiso   1.00
N652   N     0.60949   0.41487   0.42529   0.00000  Uiso   1.00
O653   O     0.60622   0.41268   0.36680   0.00000  Uiso   1.00
O654   O     0.63731   0.38659   0.44733   0.00000  Uiso   1.00
N655   N     0.87342   0.41589   0.42168   0.00000  Uiso   1.00
O656   O     0.87676   0.40389   0.36284   0.00000  Uiso   1.00
O657   O     0.84615   0.38696   0.44484   0.00000  Uiso   1.00
N658   N     0.62657   0.58415   0.57827   0.00000  Uiso   1.00
O659   O     0.62321   0.59620   0.63710   0.00000  Uiso   1.00
O660   O     0.65387   0.61305   0.55510   0.00000  Uiso   1.00
C661   C     0.52902   0.35297   0.41770   0.00000  Uiso   1.00
H662   H     0.50132   0.65473   0.41113   0.00000  Uiso   1.00
H663   H     0.54250   0.34916   0.37258   0.00000  Uiso   1.00
H664   H     0.55422   0.34481   0.45206   0.00000  Uiso   1.00
C665   C     0.97096   0.64705   0.58220   0.00000  Uiso   1.00
H666   H     0.99864   0.34529   0.58868   0.00000  Uiso   1.00
H667   H     0.94573   0.65516   0.54786   0.00000  Uiso   1.00
H668   H     0.95752   0.65090   0.62735   0.00000  Uiso   1.00
N669   N     0.71193   0.64750   0.42565   0.00000  Uiso   1.00
O670   O     0.67582   0.62140   0.43476   0.00000  Uiso   1.00
O671   O     0.71764   0.65206   0.37042   0.00000  Uiso   1.00
N672   N     0.78810   0.35249   0.57433   0.00000  Uiso   1.00
O673   O     0.78242   0.34791   0.62956   0.00000  Uiso   1.00
O674   O     0.82420   0.37860   0.56519   0.00000  Uiso   1.00
N675   N     0.69551   0.46821   0.64918   0.00000  Uiso   1.00
O676   O     0.68682   0.41862   0.62185   0.00000  Uiso   1.00
O677   O     0.66246   0.49733   0.66161   0.00000  Uiso   1.00
N678   N     0.80442   0.53200   0.35092   0.00000  Uiso   1.00
O679   O     0.81296   0.58166   0.37802   0.00000  Uiso   1.00
O680   O     0.83760   0.50304   0.33861   0.00000  Uiso   1.00
O681   O     0.25325   0.76204   0.53992   0.00000  Uiso   1.00
O682   O     0.24674   0.90462   0.46008   0.00000  Uiso   1.00
O683   O     0.24480   0.75226   0.43612   0.00000  Uiso   1.00
O684   O     0.25520   0.91441   0.56388   0.00000  Uiso   1.00
C685   C     0.24808   0.73332   0.48441   0.00000  Uiso   1.00
C686   C     0.25193   0.93335   0.51559   0.00000  Uiso   1.00
O687   O     0.18935   0.83821   0.55191   0.00000  Uiso   1.00
O688   O     0.31064   0.82845   0.44809   0.00000  Uiso   1.00
O689   O     0.18090   0.82843   0.44810   0.00000  Uiso   1.00
O690   O     0.31910   0.83824   0.55190   0.00000  Uiso   1.00
C691   C     0.16465   0.83307   0.50071   0.00000  Uiso   1.00
C692   C     0.33535   0.83361   0.49929   0.00000  Uiso   1.00
Cu693  Cu    0.25500   0.83913   0.56146   0.00000  Uiso   1.00
Cu694  Cu    0.24499   0.82754   0.43854   0.00000  Uiso   1.00
C695   C     0.41090   0.87812   0.53386   0.00000  Uiso   1.00
C696   C     0.08910   0.78855   0.46615   0.00000  Uiso   1.00
C697   C     0.38359   0.83462   0.49772   0.00000  Uiso   1.00
C698   C     0.11641   0.83206   0.50227   0.00000  Uiso   1.00
C699   C     0.40202   0.79182   0.46109   0.00000  Uiso   1.00
C700   C     0.09797   0.87487   0.53887   0.00000  Uiso   1.00
C701   C     0.44854   0.79015   0.46494   0.00000  Uiso   1.00
C702   C     0.05146   0.87654   0.53502   0.00000  Uiso   1.00
C703   C     0.47657   0.83426   0.49922   0.00000  Uiso   1.00
C704   C     0.02343   0.83242   0.50074   0.00000  Uiso   1.00
C705   C     0.45781   0.88015   0.53159   0.00000  Uiso   1.00
C706   C     0.04219   0.78653   0.46839   0.00000  Uiso   1.00
C707   C     0.46716   0.74384   0.43753   0.00000  Uiso   1.00
C708   C     0.03284   0.92286   0.56241   0.00000  Uiso   1.00
C709   C     0.01321   0.74058   0.44035   0.00000  Uiso   1.00
C710   C     0.48678   0.92611   0.55960   0.00000  Uiso   1.00
H711   H     0.44561   0.70877   0.41530   0.00000  Uiso   1.00
H712   H     0.05438   0.95794   0.58462   0.00000  Uiso   1.00
C713   C     0.24173   0.67734   0.47718   0.00000  Uiso   1.00
C714   C     0.25828   0.98932   0.52281   0.00000  Uiso   1.00
N715   N     0.23744   0.81881   0.34617   0.00000  Uiso   1.00
N716   N     0.26255   0.84786   0.65383   0.00000  Uiso   1.00
N717   N     0.39054   0.91842   0.57480   0.00000  Uiso   1.00
O718   O     0.39393   0.92063   0.63329   0.00000  Uiso   1.00
O719   O     0.36266   0.94669   0.55287   0.00000  Uiso   1.00
N720   N     0.10949   0.74820   0.42529   0.00000  Uiso   1.00
O721   O     0.10622   0.74601   0.36680   0.00000  Uiso   1.00
O722   O     0.13731   0.71993   0.44733   0.00000  Uiso   1.00
N723   N     0.37342   0.74922   0.42168   0.00000  Uiso   1.00
O724   O     0.37676   0.73722   0.36284   0.00000  Uiso   1.00
O725   O     0.34615   0.72030   0.44484   0.00000  Uiso   1.00
N726   N     0.12657   0.91749   0.57827   0.00000  Uiso   1.00
O727   O     0.12321   0.92953   0.63710   0.00000  Uiso   1.00
O728   O     0.15387   0.94638   0.55510   0.00000  Uiso   1.00
C729   C     0.02902   0.68631   0.41770   0.00000  Uiso   1.00
H730   H     0.00132   0.98806   0.41113   0.00000  Uiso   1.00
H731   H     0.04250   0.68249   0.37258   0.00000  Uiso   1.00
H732   H     0.05422   0.67814   0.45206   0.00000  Uiso   1.00
C733   C     0.47096   0.98038   0.58220   0.00000  Uiso   1.00
H734   H     0.49864   0.67863   0.58868   0.00000  Uiso   1.00
H735   H     0.44573   0.98849   0.54786   0.00000  Uiso   1.00
H736   H     0.45752   0.98424   0.62735   0.00000  Uiso   1.00
N737   N     0.21193   0.98084   0.42565   0.00000  Uiso   1.00
O738   O     0.17582   0.95473   0.43476   0.00000  Uiso   1.00
O739   O     0.21764   0.98539   0.37042   0.00000  Uiso   1.00
N740   N     0.28810   0.68583   0.57433   0.00000  Uiso   1.00
O741   O     0.28242   0.68125   0.62956   0.00000  Uiso   1.00
O742   O     0.32420   0.71194   0.56519   0.00000  Uiso   1.00
N743   N     0.19551   0.80154   0.64918   0.00000  Uiso   1.00
O744   O     0.18682   0.75195   0.62185   0.00000  Uiso   1.00
O745   O     0.16246   0.83067   0.66161   0.00000  Uiso   1.00
N746   N     0.30442   0.86533   0.35092   0.00000  Uiso   1.00
O747   O     0.31296   0.91500   0.37802   0.00000  Uiso   1.00
O748   O     0.33760   0.83637   0.33861   0.00000  Uiso   1.00
O749   O     0.75325   0.76204   0.53992   0.00000  Uiso   1.00
O750   O     0.74674   0.90462   0.46008   0.00000  Uiso   1.00
O751   O     0.74480   0.75226   0.43612   0.00000  Uiso   1.00
O752   O     0.75520   0.91441   0.56388   0.00000  Uiso   1.00
C753   C     0.74808   0.73332   0.48441   0.00000  Uiso   1.00
C754   C     0.75193   0.93335   0.51559   0.00000  Uiso   1.00
O755   O     0.68935   0.83821   0.55191   0.00000  Uiso   1.00
O756   O     0.81064   0.82845   0.44809   0.00000  Uiso   1.00
O757   O     0.68090   0.82843   0.44810   0.00000  Uiso   1.00
O758   O     0.81910   0.83824   0.55190   0.00000  Uiso   1.00
C759   C     0.66465   0.83307   0.50071   0.00000  Uiso   1.00
C760   C     0.83535   0.83361   0.49929   0.00000  Uiso   1.00
Cu761  Cu    0.75500   0.83913   0.56146   0.00000  Uiso   1.00
Cu762  Cu    0.74499   0.82754   0.43854   0.00000  Uiso   1.00
C763   C     0.91090   0.87812   0.53386   0.00000  Uiso   1.00
C764   C     0.58910   0.78855   0.46615   0.00000  Uiso   1.00
C765   C     0.88359   0.83462   0.49772   0.00000  Uiso   1.00
C766   C     0.61641   0.83206   0.50227   0.00000  Uiso   1.00
C767   C     0.90202   0.79182   0.46109   0.00000  Uiso   1.00
C768   C     0.59797   0.87487   0.53887   0.00000  Uiso   1.00
C769   C     0.94854   0.79015   0.46494   0.00000  Uiso   1.00
C770   C     0.55146   0.87654   0.53502   0.00000  Uiso   1.00
C771   C     0.97657   0.83426   0.49922   0.00000  Uiso   1.00
C772   C     0.52343   0.83242   0.50074   0.00000  Uiso   1.00
C773   C     0.95781   0.88015   0.53159   0.00000  Uiso   1.00
C774   C     0.54219   0.78653   0.46839   0.00000  Uiso   1.00
C775   C     0.96716   0.74384   0.43753   0.00000  Uiso   1.00
C776   C     0.53284   0.92286   0.56241   0.00000  Uiso   1.00
C777   C     0.51321   0.74058   0.44035   0.00000  Uiso   1.00
C778   C     0.98678   0.92611   0.55960   0.00000  Uiso   1.00
H779   H     0.94561   0.70877   0.41530   0.00000  Uiso   1.00
H780   H     0.55438   0.95794   0.58462   0.00000  Uiso   1.00
C781   C     0.74173   0.67734   0.47718   0.00000  Uiso   1.00
C782   C     0.75828   0.98932   0.52281   0.00000  Uiso   1.00
N783   N     0.73744   0.81881   0.34617   0.00000  Uiso   1.00
N784   N     0.76255   0.84786   0.65383   0.00000  Uiso   1.00
N785   N     0.89054   0.91842   0.57480   0.00000  Uiso   1.00
O786   O     0.89393   0.92063   0.63329   0.00000  Uiso   1.00
O787   O     0.86266   0.94669   0.55287   0.00000  Uiso   1.00
N788   N     0.60949   0.74820   0.42529   0.00000  Uiso   1.00
O789   O     0.60622   0.74601   0.36680   0.00000  Uiso   1.00
O790   O     0.63731   0.71993   0.44733   0.00000  Uiso   1.00
N791   N     0.87342   0.74922   0.42168   0.00000  Uiso   1.00
O792   O     0.87676   0.73722   0.36284   0.00000  Uiso   1.00
O793   O     0.84615   0.72030   0.44484   0.00000  Uiso   1.00
N794   N     0.62657   0.91749   0.57827   0.00000  Uiso   1.00
O795   O     0.62321   0.92953   0.63710   0.00000  Uiso   1.00
O796   O     0.65387   0.94638   0.55510   0.00000  Uiso   1.00
C797   C     0.52902   0.68631   0.41770   0.00000  Uiso   1.00
H798   H     0.50132   0.98806   0.41113   0.00000  Uiso   1.00
H799   H     0.54250   0.68249   0.37258   0.00000  Uiso   1.00
H800   H     0.55422   0.67814   0.45206   0.00000  Uiso   1.00
C801   C     0.97096   0.98038   0.58220   0.00000  Uiso   1.00
H802   H     0.99864   0.67863   0.58868   0.00000  Uiso   1.00
H803   H     0.94573   0.98849   0.54786   0.00000  Uiso   1.00
H804   H     0.95752   0.98424   0.62735   0.00000  Uiso   1.00
N805   N     0.71193   0.98084   0.42565   0.00000  Uiso   1.00
O806   O     0.67582   0.95473   0.43476   0.00000  Uiso   1.00
O807   O     0.71764   0.98539   0.37042   0.00000  Uiso   1.00
N808   N     0.78810   0.68583   0.57433   0.00000  Uiso   1.00
O809   O     0.78242   0.68125   0.62956   0.00000  Uiso   1.00
O810   O     0.82420   0.71194   0.56519   0.00000  Uiso   1.00
N811   N     0.69551   0.80154   0.64918   0.00000  Uiso   1.00
O812   O     0.68682   0.75195   0.62185   0.00000  Uiso   1.00
O813   O     0.66246   0.83067   0.66161   0.00000  Uiso   1.00
N814   N     0.80442   0.86533   0.35092   0.00000  Uiso   1.00
O815   O     0.81296   0.91500   0.37802   0.00000  Uiso   1.00
O816   O     0.83760   0.83637   0.33861   0.00000  Uiso   1.00
O817   O     0.25325   0.09538   0.87326   0.00000  Uiso   1.00
O818   O     0.24674   0.23796   0.79341   0.00000  Uiso   1.00
O819   O     0.24480   0.08559   0.76945   0.00000  Uiso   1.00
O820   O     0.25520   0.24774   0.89721   0.00000  Uiso   1.00
C821   C     0.24808   0.06665   0.81774   0.00000  Uiso   1.00
C822   C     0.25193   0.26668   0.84892   0.00000  Uiso   1.00
O823   O     0.18935   0.17155   0.88524   0.00000  Uiso   1.00
O824   O     0.31064   0.16179   0.78143   0.00000  Uiso   1.00
O825   O     0.18090   0.16176   0.78143   0.00000  Uiso   1.00
O826   O     0.31910   0.17157   0.88523   0.00000  Uiso   1.00
C827   C     0.16465   0.16640   0.83404   0.00000  Uiso   1.00
C828   C     0.33535   0.16694   0.83262   0.00000  Uiso   1.00
Cu829  Cu    0.25500   0.17246   0.89479   0.00000  Uiso   1.00
Cu830  Cu    0.24499   0.16087   0.77187   0.00000  Uiso   1.00
C831   C     0.41090   0.21145   0.86720   0.00000  Uiso   1.00
C832   C     0.08910   0.12188   0.79948   0.00000  Uiso   1.00
C833   C     0.38359   0.16795   0.83106   0.00000  Uiso   1.00
C834   C     0.11641   0.16539   0.83561   0.00000  Uiso   1.00
C835   C     0.40202   0.12515   0.79443   0.00000  Uiso   1.00
C836   C     0.09797   0.20821   0.87221   0.00000  Uiso   1.00
C837   C     0.44854   0.12349   0.79828   0.00000  Uiso   1.00
C838   C     0.05146   0.20987   0.86835   0.00000  Uiso   1.00
C839   C     0.47657   0.16760   0.83256   0.00000  Uiso   1.00
C840   C     0.02343   0.16575   0.83407   0.00000  Uiso   1.00
C841   C     0.45781   0.21348   0.86492   0.00000  Uiso   1.00
C842   C     0.04219   0.11986   0.80172   0.00000  Uiso   1.00
C843   C     0.46716   0.07717   0.77086   0.00000  Uiso   1.00
C844   C     0.03284   0.25619   0.89574   0.00000  Uiso   1.00
C845   C     0.01321   0.07391   0.77369   0.00000  Uiso   1.00
C846   C     0.48678   0.25944   0.89293   0.00000  Uiso   1.00
H847   H     0.44561   0.04210   0.74864   0.00000  Uiso   1.00
H848   H     0.05438   0.29127   0.91795   0.00000  Uiso   1.00
C849   C     0.24173   0.01068   0.81051   0.00000  Uiso   1.00
C850   C     0.25828   0.32266   0.85615   0.00000  Uiso   1.00
N851   N     0.23744   0.15214   0.67951   0.00000  Uiso   1.00
N852   N     0.26255   0.18119   0.98716   0.00000  Uiso   1.00
N853   N     0.39054   0.25176   0.90813   0.00000  Uiso   1.00
O854   O     0.39393   0.25396   0.96662   0.00000  Uiso   1.00
O855   O     0.36266   0.28003   0.88620   0.00000  Uiso   1.00
N856   N     0.10949   0.08154   0.75863   0.00000  Uiso   1.00
O857   O     0.10622   0.07935   0.70013   0.00000  Uiso   1.00
O858   O     0.13731   0.05326   0.78066   0.00000  Uiso   1.00
N859   N     0.37342   0.08255   0.75502   0.00000  Uiso   1.00
O860   O     0.37676   0.07055   0.69618   0.00000  Uiso   1.00
O861   O     0.34615   0.05363   0.77817   0.00000  Uiso   1.00
N862   N     0.12657   0.25082   0.91160   0.00000  Uiso   1.00
O863   O     0.12321   0.26286   0.97043   0.00000  Uiso   1.00
O864   O     0.15387   0.27972   0.88843   0.00000  Uiso   1.00
C865   C     0.02902   0.01964   0.75103   0.00000  Uiso   1.00
H866   H     0.00132   0.32140   0.74446   0.00000  Uiso   1.00
H867   H     0.04250   0.01583   0.70592   0.00000  Uiso   1.00
H868   H     0.05422   0.01147   0.78540   0.00000  Uiso   1.00
C869   C     0.47096   0.31371   0.91554   0.00000  Uiso   1.00
H870   H     0.49864   0.01196   0.92202   0.00000  Uiso   1.00
H871   H     0.44573   0.32183   0.88120   0.00000  Uiso   1.00
H872   H     0.45752   0.31757   0.96069   0.00000  Uiso   1.00
N873   N     0.21193   0.31417   0.75899   0.00000  Uiso   1.00
O874   O     0.17582   0.28806   0.76810   0.00000  Uiso   1.00
O875   O     0.21764   0.31872   0.70376   0.00000  Uiso   1.00
N876   N     0.28810   0.01916   0.90766   0.00000  Uiso   1.00
O877   O     0.28242   0.01458   0.96289   0.00000  Uiso   1.00
O878   O     0.32420   0.04527   0.89853   0.00000  Uiso   1.00
N879   N     0.19551   0.13487   0.98252   0.00000  Uiso   1.00
O880   O     0.18682   0.08529   0.95518   0.00000  Uiso   1.00
O881   O     0.16246   0.16400   0.99494   0.00000  Uiso   1.00
N882   N     0.30442   0.19867   0.68425   0.00000  Uiso   1.00
O883   O     0.31296   0.24833   0.71135   0.00000  Uiso   1.00
O884   O     0.33760   0.16971   0.67194   0.00000  Uiso   1.00
O885   O     0.75325   0.09538   0.87326   0.00000  Uiso   1.00
O886   O     0.74674   0.23796   0.79341   0.00000  Uiso   1.00
O887   O     0.74480   0.08559   0.76945   0.00000  Uiso   1.00
O888   O     0.75520   0.24774   0.89721   0.00000  Uiso   1.00
C889   C     0.74808   0.06665   0.81774   0.00000  Uiso   1.00
C890   C     0.75193   0.26668   0.84892   0.00000  Uiso   1.00
O891   O     0.68935   0.17155   0.88524   0.00000  Uiso   1.00
O892   O     0.81064   0.16179   0.78143   0.00000  Uiso   1.00
O893   O     0.68090   0.16176   0.78143   0.00000  Uiso   1.00
O894   O     0.81910   0.17157   0.88523   0.00000  Uiso   1.00
C895   C     0.66465   0.16640   0.83404   0.00000  Uiso   1.00
C896   C     0.83535   0.16694   0.83262   0.00000  Uiso   1.00
Cu897  Cu    0.75500   0.17246   0.89479   0.00000  Uiso   1.00
Cu898  Cu    0.74499   0.16087   0.77187   0.00000  Uiso   1.00
C899   C     0.91090   0.21145   0.86720   0.00000  Uiso   1.00
C900   C     0.58910   0.12188   0.79948   0.00000  Uiso   1.00
C901   C     0.88359   0.16795   0.83106   0.00000  Uiso   1.00
C902   C     0.61641   0.16539   0.83561   0.00000  Uiso   1.00
C903   C     0.90202   0.12515   0.79443   0.00000  Uiso   1.00
C904   C     0.59797   0.20821   0.87221   0.00000  Uiso   1.00
C905   C     0.94854   0.12349   0.79828   0.00000  Uiso   1.00
C906   C     0.55146   0.20987   0.86835   0.00000  Uiso   1.00
C907   C     0.97657   0.16760   0.83256   0.00000  Uiso   1.00
C908   C     0.52343   0.16575   0.83407   0.00000  Uiso   1.00
C909   C     0.95781   0.21348   0.86492   0.00000  Uiso   1.00
C910   C     0.54219   0.11986   0.80172   0.00000  Uiso   1.00
C911   C     0.96716   0.07717   0.77086   0.00000  Uiso   1.00
C912   C     0.53284   0.25619   0.89574   0.00000  Uiso   1.00
C913   C     0.51321   0.07391   0.77369   0.00000  Uiso   1.00
C914   C     0.98678   0.25944   0.89293   0.00000  Uiso   1.00
H915   H     0.94561   0.04210   0.74864   0.00000  Uiso   1.00
H916   H     0.55438   0.29127   0.91795   0.00000  Uiso   1.00
C917   C     0.74173   0.01068   0.81051   0.00000  Uiso   1.00
C918   C     0.75828   0.32266   0.85615   0.00000  Uiso   1.00
N919   N     0.73744   0.15214   0.67951   0.00000  Uiso   1.00
N920   N     0.76255   0.18119   0.98716   0.00000  Uiso   1.00
N921   N     0.89054   0.25176   0.90813   0.00000  Uiso   1.00
O922   O     0.89393   0.25396   0.96662   0.00000  Uiso   1.00
O923   O     0.86266   0.28003   0.88620   0.00000  Uiso   1.00
N924   N     0.60949   0.08154   0.75863   0.00000  Uiso   1.00
O925   O     0.60622   0.07935   0.70013   0.00000  Uiso   1.00
O926   O     0.63731   0.05326   0.78066   0.00000  Uiso   1.00
N927   N     0.87342   0.08255   0.75502   0.00000  Uiso   1.00
O928   O     0.87676   0.07055   0.69618   0.00000  Uiso   1.00
O929   O     0.84615   0.05363   0.77817   0.00000  Uiso   1.00
N930   N     0.62657   0.25082   0.91160   0.00000  Uiso   1.00
O931   O     0.62321   0.26286   0.97043   0.00000  Uiso   1.00
O932   O     0.65387   0.27972   0.88843   0.00000  Uiso   1.00
C933   C     0.52902   0.01964   0.75103   0.00000  Uiso   1.00
H934   H     0.50132   0.32140   0.74446   0.00000  Uiso   1.00
H935   H     0.54250   0.01583   0.70592   0.00000  Uiso   1.00
H936   H     0.55422   0.01147   0.78540   0.00000  Uiso   1.00
C937   C     0.97096   0.31371   0.91554   0.00000  Uiso   1.00
H938   H     0.99864   0.01196   0.92202   0.00000  Uiso   1.00
H939   H     0.94573   0.32183   0.88120   0.00000  Uiso   1.00
H940   H     0.95752   0.31757   0.96069   0.00000  Uiso   1.00
N941   N     0.71193   0.31417   0.75899   0.00000  Uiso   1.00
O942   O     0.67582   0.28806   0.76810   0.00000  Uiso   1.00
O943   O     0.71764   0.31872   0.70376   0.00000  Uiso   1.00
N944   N     0.78810   0.01916   0.90766   0.00000  Uiso   1.00
O945   O     0.78242   0.01458   0.96289   0.00000  Uiso   1.00
O946   O     0.82420   0.04527   0.89853   0.00000  Uiso   1.00
N947   N     0.69551   0.13487   0.98252   0.00000  Uiso   1.00
O948   O     0.68682   0.08529   0.95518   0.00000  Uiso   1.00
O949   O     0.66246   0.16400   0.99494   0.00000  Uiso   1.00
N950   N     0.80442   0.19867   0.68425   0.00000  Uiso   1.00
O951   O     0.81296   0.24833   0.71135   0.00000  Uiso   1.00
O952   O     0.83760   0.16971   0.67194   0.00000  Uiso   1.00
O953   O     0.25325   0.42871   0.87326   0.00000  Uiso   1.00
O954   O     0.24674   0.57129   0.79341   0.00000  Uiso   1.00
O955   O     0.24480   0.41892   0.76945   0.00000  Uiso   1.00
O956   O     0.25520   0.58108   0.89721   0.00000  Uiso   1.00
C957   C     0.24808   0.39998   0.81774   0.00000  Uiso   1.00
C958   C     0.25193   0.60002   0.84892   0.00000  Uiso   1.00
O959   O     0.18935   0.50488   0.88524   0.00000  Uiso   1.00
O960   O     0.31064   0.49512   0.78143   0.00000  Uiso   1.00
O961   O     0.18090   0.49510   0.78143   0.00000  Uiso   1.00
O962   O     0.31910   0.50490   0.88523   0.00000  Uiso   1.00
C963   C     0.16465   0.49974   0.83404   0.00000  Uiso   1.00
C964   C     0.33535   0.50027   0.83262   0.00000  Uiso   1.00
Cu965  Cu    0.25500   0.50579   0.89479   0.00000  Uiso   1.00
Cu966  Cu    0.24499   0.49421   0.77187   0.00000  Uiso   1.00
C967   C     0.41090   0.54479   0.86720   0.00000  Uiso   1.00
C968   C     0.08910   0.45522   0.79948   0.00000  Uiso   1.00
C969   C     0.38359   0.50129   0.83106   0.00000  Uiso   1.00
C970   C     0.11641   0.49873   0.83561   0.00000  Uiso   1.00
C971   C     0.40202   0.45849   0.79443   0.00000  Uiso   1.00
C972   C     0.09797   0.54154   0.87221   0.00000  Uiso   1.00
C973   C     0.44854   0.45682   0.79828   0.00000  Uiso   1.00
C974   C     0.05146   0.54320   0.86835   0.00000  Uiso   1.00
C975   C     0.47657   0.50093   0.83256   0.00000  Uiso   1.00
C976   C     0.02343   0.49909   0.83407   0.00000  Uiso   1.00
C977   C     0.45781   0.54681   0.86492   0.00000  Uiso   1.00
C978   C     0.04219   0.45320   0.80172   0.00000  Uiso   1.00
C979   C     0.46716   0.41050   0.77086   0.00000  Uiso   1.00
C980   C     0.03284   0.58953   0.89574   0.00000  Uiso   1.00
C981   C     0.01321   0.40725   0.77369   0.00000  Uiso   1.00
C982   C     0.48678   0.59277   0.89293   0.00000  Uiso   1.00
H983   H     0.44561   0.37543   0.74864   0.00000  Uiso   1.00
H984   H     0.05438   0.62461   0.91795   0.00000  Uiso   1.00
C985   C     0.24173   0.34401   0.81051   0.00000  Uiso   1.00
C986   C     0.25828   0.65599   0.85615   0.00000  Uiso   1.00
N987   N     0.23744   0.48547   0.67951   0.00000  Uiso   1.00
N988   N     0.26255   0.51453   0.98716   0.00000  Uiso   1.00
N989   N     0.39054   0.58509   0.90813   0.00000  Uiso   1.00
O990   O     0.39393   0.58729   0.96662   0.00000  Uiso   1.00
O991   O     0.36266   0.61336   0.88620   0.00000  Uiso   1.00
N992   N     0.10949   0.41487   0.75863   0.00000  Uiso   1.00
O993   O     0.10622   0.41268   0.70013   0.00000  Uiso   1.00
O994   O     0.13731   0.38659   0.78066   0.00000  Uiso   1.00
N995   N     0.37342   0.41589   0.75502   0.00000  Uiso   1.00
O996   O     0.37676   0.40389   0.69618   0.00000  Uiso   1.00
O997   O     0.34615   0.38696   0.77817   0.00000  Uiso   1.00
N998   N     0.12657   0.58415   0.91160   0.00000  Uiso   1.00
O999   O     0.12321   0.59620   0.97043   0.00000  Uiso   1.00
O1000  O     0.15387   0.61305   0.88843   0.00000  Uiso   1.00
C1001  C     0.02902   0.35297   0.75103   0.00000  Uiso   1.00
H1002  H     0.00132   0.65473   0.74446   0.00000  Uiso   1.00
H1003  H     0.04250   0.34916   0.70592   0.00000  Uiso   1.00
H1004  H     0.05422   0.34481   0.78540   0.00000  Uiso   1.00
C1005  C     0.47096   0.64705   0.91554   0.00000  Uiso   1.00
H1006  H     0.49864   0.34529   0.92202   0.00000  Uiso   1.00
H1007  H     0.44573   0.65516   0.88120   0.00000  Uiso   1.00
H1008  H     0.45752   0.65090   0.96069   0.00000  Uiso   1.00
N1009  N     0.21193   0.64750   0.75899   0.00000  Uiso   1.00
O1010  O     0.17582   0.62140   0.76810   0.00000  Uiso   1.00
O1011  O     0.21764   0.65206   0.70376   0.00000  Uiso   1.00
N1012  N     0.28810   0.35249   0.90766   0.00000  Uiso   1.00
O1013  O     0.28242   0.34791   0.96289   0.00000  Uiso   1.00
O1014  O     0.32420   0.37860   0.89853   0.00000  Uiso   1.00
N1015  N     0.19551   0.46821   0.98252   0.00000  Uiso   1.00
O1016  O     0.18682   0.41862   0.95518   0.00000  Uiso   1.00
O1017  O     0.16246   0.49733   0.99494   0.00000  Uiso   1.00
N1018  N     0.30442   0.53200   0.68425   0.00000  Uiso   1.00
O1019  O     0.31296   0.58166   0.71135   0.00000  Uiso   1.00
O1020  O     0.33760   0.50304   0.67194   0.00000  Uiso   1.00
O1021  O     0.75325   0.42871   0.87326   0.00000  Uiso   1.00
O1022  O     0.74674   0.57129   0.79341   0.00000  Uiso   1.00
O1023  O     0.74480   0.41892   0.76945   0.00000  Uiso   1.00
O1024  O     0.75520   0.58108   0.89721   0.00000  Uiso   1.00
C1025  C     0.74808   0.39998   0.81774   0.00000  Uiso   1.00
C1026  C     0.75193   0.60002   0.84892   0.00000  Uiso   1.00
O1027  O     0.68935   0.50488   0.88524   0.00000  Uiso   1.00
O1028  O     0.81064   0.49512   0.78143   0.00000  Uiso   1.00
O1029  O     0.68090   0.49510   0.78143   0.00000  Uiso   1.00
O1030  O     0.81910   0.50490   0.88523   0.00000  Uiso   1.00
C1031  C     0.66465   0.49974   0.83404   0.00000  Uiso   1.00
C1032  C     0.83535   0.50027   0.83262   0.00000  Uiso   1.00
Cu1033 Cu    0.75500   0.50579   0.89479   0.00000  Uiso   1.00
Cu1034 Cu    0.74499   0.49421   0.77187   0.00000  Uiso   1.00
C1035  C     0.91090   0.54479   0.86720   0.00000  Uiso   1.00
C1036  C     0.58910   0.45522   0.79948   0.00000  Uiso   1.00
C1037  C     0.88359   0.50129   0.83106   0.00000  Uiso   1.00
C1038  C     0.61641   0.49873   0.83561   0.00000  Uiso   1.00
C1039  C     0.90202   0.45849   0.79443   0.00000  Uiso   1.00
C1040  C     0.59797   0.54154   0.87221   0.00000  Uiso   1.00
C1041  C     0.94854   0.45682   0.79828   0.00000  Uiso   1.00
C1042  C     0.55146   0.54320   0.86835   0.00000  Uiso   1.00
C1043  C     0.97657   0.50093   0.83256   0.00000  Uiso   1.00
C1044  C     0.52343   0.49909   0.83407   0.00000  Uiso   1.00
C1045  C     0.95781   0.54681   0.86492   0.00000  Uiso   1.00
C1046  C     0.54219   0.45320   0.80172   0.00000  Uiso   1.00
C1047  C     0.96716   0.41050   0.77086   0.00000  Uiso   1.00
C1048  C     0.53284   0.58953   0.89574   0.00000  Uiso   1.00
C1049  C     0.51321   0.40725   0.77369   0.00000  Uiso   1.00
C1050  C     0.98678   0.59277   0.89293   0.00000  Uiso   1.00
H1051  H     0.94561   0.37543   0.74864   0.00000  Uiso   1.00
H1052  H     0.55438   0.62461   0.91795   0.00000  Uiso   1.00
C1053  C     0.74173   0.34401   0.81051   0.00000  Uiso   1.00
C1054  C     0.75828   0.65599   0.85615   0.00000  Uiso   1.00
N1055  N     0.73744   0.48547   0.67951   0.00000  Uiso   1.00
N1056  N     0.76255   0.51453   0.98716   0.00000  Uiso   1.00
N1057  N     0.89054   0.58509   0.90813   0.00000  Uiso   1.00
O1058  O     0.89393   0.58729   0.96662   0.00000  Uiso   1.00
O1059  O     0.86266   0.61336   0.88620   0.00000  Uiso   1.00
N1060  N     0.60949   0.41487   0.75863   0.00000  Uiso   1.00
O1061  O     0.60622   0.41268   0.70013   0.00000  Uiso   1.00
O1062  O     0.63731   0.38659   0.78066   0.00000  Uiso   1.00
N1063  N     0.87342   0.41589   0.75502   0.00000  Uiso   1.00
O1064  O     0.87676   0.40389   0.69618   0.00000  Uiso   1.00
O1065  O     0.84615   0.38696   0.77817   0.00000  Uiso   1.00
N1066  N     0.62657   0.58415   0.91160   0.00000  Uiso   1.00
O1067  O     0.62321   0.59620   0.97043   0.00000  Uiso   1.00
O1068  O     0.65387   0.61305   0.88843   0.00000  Uiso   1.00
C1069  C     0.52902   0.35297   0.75103   0.00000  Uiso   1.00
H1070  H     0.50132   0.65473   0.74446   0.00000  Uiso   1.00
H1071  H     0.54250   0.34916   0.70592   0.00000  Uiso   1.00
H1072  H     0.55422   0.34481   0.78540   0.00000  Uiso   1.00
C1073  C     0.97096   0.64705   0.91554   0.00000  Uiso   1.00
H1074  H     0.99864   0.34529   0.92202   0.00000  Uiso   1.00
H1075  H     0.94573   0.65516   0.88120   0.00000  Uiso   1.00
H1076  H     0.95752   0.65090   0.96069   0.00000  Uiso   1.00
N1077  N     0.71193   0.64750   0.75899   0.00000  Uiso   1.00
O1078  O     0.67582   0.62140   0.76810   0.00000  Uiso   1.00
O1079  O     0.71764   0.65206   0.70376   0.00000  Uiso   1.00
N1080  N     0.78810   0.35249   0.90766   0.00000  Uiso   1.00
O1081  O     0.78242   0.34791   0.96289   0.00000  Uiso   1.00
O1082  O     0.82420   0.37860   0.89853   0.00000  Uiso   1.00
N1083  N     0.69551   0.46821   0.98252   0.00000  Uiso   1.00
O1084  O     0.68682   0.41862   0.95518   0.00000  Uiso   1.00
O1085  O     0.66246   0.49733   0.99494   0.00000  Uiso   1.00
N1086  N     0.80442   0.53200   0.68425   0.00000  Uiso   1.00
O1087  O     0.81296   0.58166   0.71135   0.00000  Uiso   1.00
O1088  O     0.83760   0.50304   0.67194   0.00000  Uiso   1.00
O1089  O     0.25325   0.76204   0.87326   0.00000  Uiso   1.00
O1090  O     0.24674   0.90462   0.79341   0.00000  Uiso   1.00
O1091  O     0.24480   0.75226   0.76945   0.00000  Uiso   1.00
O1092  O     0.25520   0.91441   0.89721   0.00000  Uiso   1.00
C1093  C     0.24808   0.73332   0.81774   0.00000  Uiso   1.00
C1094  C     0.25193   0.93335   0.84892   0.00000  Uiso   1.00
O1095  O     0.18935   0.83821   0.88524   0.00000  Uiso   1.00
O1096  O     0.31064   0.82845   0.78143   0.00000  Uiso   1.00
O1097  O     0.18090   0.82843   0.78143   0.00000  Uiso   1.00
O1098  O     0.31910   0.83824   0.88523   0.00000  Uiso   1.00
C1099  C     0.16465   0.83307   0.83404   0.00000  Uiso   1.00
C1100  C     0.33535   0.83361   0.83262   0.00000  Uiso   1.00
Cu1101 Cu    0.25500   0.83913   0.89479   0.00000  Uiso   1.00
Cu1102 Cu    0.24499   0.82754   0.77187   0.00000  Uiso   1.00
C1103  C     0.41090   0.87812   0.86720   0.00000  Uiso   1.00
C1104  C     0.08910   0.78855   0.79948   0.00000  Uiso   1.00
C1105  C     0.38359   0.83462   0.83106   0.00000  Uiso   1.00
C1106  C     0.11641   0.83206   0.83561   0.00000  Uiso   1.00
C1107  C     0.40202   0.79182   0.79443   0.00000  Uiso   1.00
C1108  C     0.09797   0.87487   0.87221   0.00000  Uiso   1.00
C1109  C     0.44854   0.79015   0.79828   0.00000  Uiso   1.00
C1110  C     0.05146   0.87654   0.86835   0.00000  Uiso   1.00
C1111  C     0.47657   0.83426   0.83256   0.00000  Uiso   1.00
C1112  C     0.02343   0.83242   0.83407   0.00000  Uiso   1.00
C1113  C     0.45781   0.88015   0.86492   0.00000  Uiso   1.00
C1114  C     0.04219   0.78653   0.80172   0.00000  Uiso   1.00
C1115  C     0.46716   0.74384   0.77086   0.00000  Uiso   1.00
C1116  C     0.03284   0.92286   0.89574   0.00000  Uiso   1.00
C1117  C     0.01321   0.74058   0.77369   0.00000  Uiso   1.00
C1118  C     0.48678   0.92611   0.89293   0.00000  Uiso   1.00
H1119  H     0.44561   0.70877   0.74864   0.00000  Uiso   1.00
H1120  H     0.05438   0.95794   0.91795   0.00000  Uiso   1.00
C1121  C     0.24173   0.67734   0.81051   0.00000  Uiso   1.00
C1122  C     0.25828   0.98932   0.85615   0.00000  Uiso   1.00
N1123  N     0.23744   0.81881   0.67951   0.00000  Uiso   1.00
N1124  N     0.26255   0.84786   0.98716   0.00000  Uiso   1.00
N1125  N     0.39054   0.91842   0.90813   0.00000  Uiso   1.00
O1126  O     0.39393   0.92063   0.96662   0.00000  Uiso   1.00
O1127  O     0.36266   0.94669   0.88620   0.00000  Uiso   1.00
N1128  N     0.10949   0.74820   0.75863   0.00000  Uiso   1.00
O1129  O     0.10622   0.74601   0.70013   0.00000  Uiso   1.00
O1130  O     0.13731   0.71993   0.78066   0.00000  Uiso   1.00
N1131  N     0.37342   0.74922   0.75502   0.00000  Uiso   1.00
O1132  O     0.37676   0.73722   0.69618   0.00000  Uiso   1.00
O1133  O     0.34615   0.72030   0.77817   0.00000  Uiso   1.00
N1134  N     0.12657   0.91749   0.91160   0.00000  Uiso   1.00
O1135  O     0.12321   0.92953   0.97043   0.00000  Uiso   1.00
O1136  O     0.15387   0.94638   0.88843   0.00000  Uiso   1.00
C1137  C     0.02902   0.68631   0.75103   0.00000  Uiso   1.00
H1138  H     0.00132   0.98806   0.74446   0.00000  Uiso   1.00
H1139  H     0.04250   0.68249   0.70592   0.00000  Uiso   1.00
H1140  H     0.05422   0.67814   0.78540   0.00000  Uiso   1.00
C1141  C     0.47096   0.98038   0.91554   0.00000  Uiso   1.00
H1142  H     0.49864   0.67863   0.92202   0.00000  Uiso   1.00
H1143  H     0.44573   0.98849   0.88120   0.00000  Uiso   1.00
H1144  H     0.45752   0.98424   0.96069   0.00000  Uiso   1.00
N1145  N     0.21193   0.98084   0.75899   0.00000  Uiso   1.00
O1146  O     0.17582   0.95473   0.76810   0.00000  Uiso   1.00
O1147  O     0.21764   0.98539   0.70376   0.00000  Uiso   1.00
N1148  N     0.28810   0.68583   0.90766   0.00000  Uiso   1.00
O1149  O     0.28242   0.68125   0.96289   0.00000  Uiso   1.00
O1150  O     0.32420   0.71194   0.89853   0.00000  Uiso   1.00
N1151  N     0.19551   0.80154   0.98252   0.00000  Uiso   1.00
O1152  O     0.18682   0.75195   0.95518   0.00000  Uiso   1.00
O1153  O     0.16246   0.83067   0.99494   0.00000  Uiso   1.00
N1154  N     0.30442   0.86533   0.68425   0.00000  Uiso   1.00
O1155  O     0.31296   0.91500   0.71135   0.00000  Uiso   1.00
O1156  O     0.33760   0.83637   0.67194   0.00000  Uiso   1.00
O1157  O     0.75325   0.76204   0.87326   0.00000  Uiso   1.00
O1158  O     0.74674   0.90462   0.79341   0.00000  Uiso   1.00
O1159  O     0.74480   0.75226   0.76945   0.00000  Uiso   1.00
O1160  O     0.75520   0.91441   0.89721   0.00000  Uiso   1.00
C1161  C     0.74808   0.73332   0.81774   0.00000  Uiso   1.00
C1162  C     0.75193   0.93335   0.84892   0.00000  Uiso   1.00
O1163  O     0.68935   0.83821   0.88524   0.00000  Uiso   1.00
O1164  O     0.81064   0.82845   0.78143   0.00000  Uiso   1.00
O1165  O     0.68090   0.82843   0.78143   0.00000  Uiso   1.00
O1166  O     0.81910   0.83824   0.88523   0.00000  Uiso   1.00
C1167  C     0.66465   0.83307   0.83404   0.00000  Uiso   1.00
C1168  C     0.83535   0.83361   0.83262   0.00000  Uiso   1.00
Cu1169 Cu    0.75500   0.83913   0.89479   0.00000  Uiso   1.00
Cu1170 Cu    0.74499   0.82754   0.77187   0.00000  Uiso   1.00
C1171  C     0.91090   0.87812   0.86720   0.00000  Uiso   1.00
C1172  C     0.58910   0.78855   0.79948   0.00000  Uiso   1.00
C1173  C     0.88359   0.83462   0.83106   0.00000  Uiso   1.00
C1174  C     0.61641   0.83206   0.83561   0.00000  Uiso   1.00
C1175  C     0.90202   0.79182   0.79443   0.00000  Uiso   1.00
C1176  C     0.59797   0.87487   0.87221   0.00000  Uiso   1.00
C1177  C     0.94854   0.79015   0.79828   0.00000  Uiso   1.00
C1178  C     0.55146   0.87654   0.86835   0.00000  Uiso   1.00
C1179  C     0.97657   0.83426   0.83256   0.00000  Uiso   1.00
C1180  C     0.52343   0.83242   0.83407   0.00000  Uiso   1.00
C1181  C     0.95781   0.88015   0.86492   0.00000  Uiso   1.00
C1182  C     0.54219   0.78653   0.80172   0.00000  Uiso   1.00
C1183  C     0.96716   0.74384   0.77086   0.00000  Uiso   1.00
C1184  C     0.53284   0.92286   0.89574   0.00000  Uiso   1.00
C1185  C     0.51321   0.74058   0.77369   0.00000  Uiso   1.00
C1186  C     0.98678   0.92611   0.89293   0.00000  Uiso   1.00
H1187  H     0.94561   0.70877   0.74864   0.00000  Uiso   1.00
H1188  H     0.55438   0.95794   0.91795   0.00000  Uiso   1.00
C1189  C     0.74173   0.67734   0.81051   0.00000  Uiso   1.00
C1190  C     0.75828   0.98932   0.85615   0.00000  Uiso   1.00
N1191  N     0.73744   0.81881   0.67951   0.00000  Uiso   1.00
N1192  N     0.76255   0.84786   0.98716   0.00000  Uiso   1.00
N1193  N     0.89054   0.91842   0.90813   0.00000  Uiso   1.00
O1194  O     0.89393   0.92063   0.96662   0.00000  Uiso   1.00
O1195  O     0.86266   0.94669   0.88620   0.00000  Uiso   1.00
N1196  N     0.60949   0.74820   0.75863   0.00000  Uiso   1.00
O1197  O     0.60622   0.74601   0.70013   0.00000  Uiso   1.00
O1198  O     0.63731   0.71993   0.78066   0.00000  Uiso   1.00
N1199  N     0.87342   0.74922   0.75502   0.00000  Uiso   1.00
O1200  O     0.87676   0.73722   0.69618   0.00000  Uiso   1.00
O1201  O     0.84615   0.72030   0.77817   0.00000  Uiso   1.00
N1202  N     0.62657   0.91749   0.91160   0.00000  Uiso   1.00
O1203  O     0.62321   0.92953   0.97043   0.00000  Uiso   1.00
O1204  O     0.65387   0.94638   0.88843   0.00000  Uiso   1.00
C1205  C     0.52902   0.68631   0.75103   0.00000  Uiso   1.00
H1206  H     0.50132   0.98806   0.74446   0.00000  Uiso   1.00
H1207  H     0.54250   0.68249   0.70592   0.00000  Uiso   1.00
H1208  H     0.55422   0.67814   0.78540   0.00000  Uiso   1.00
C1209  C     0.97096   0.98038   0.91554   0.00000  Uiso   1.00
H1210  H     0.99864   0.67863   0.92202   0.00000  Uiso   1.00
H1211  H     0.94573   0.98849   0.88120   0.00000  Uiso   1.00
H1212  H     0.95752   0.98424   0.96069   0.00000  Uiso   1.00
N1213  N     0.71193   0.98084   0.75899   0.00000  Uiso   1.00
O1214  O     0.67582   0.95473   0.76810   0.00000  Uiso   1.00
O1215  O     0.71764   0.98539   0.70376   0.00000  Uiso   1.00
N1216  N     0.78810   0.68583   0.90766   0.00000  Uiso   1.00
O1217  O     0.78242   0.68125   0.96289   0.00000  Uiso   1.00
O1218  O     0.82420   0.71194   0.89853   0.00000  Uiso   1.00
N1219  N     0.69551   0.80154   0.98252   0.00000  Uiso   1.00
O1220  O     0.68682   0.75195   0.95518   0.00000  Uiso   1.00
O1221  O     0.66246   0.83067   0.99494   0.00000  Uiso   1.00
N1222  N     0.80442   0.86533   0.68425   0.00000  Uiso   1.00
O1223  O     0.81296   0.91500   0.71135   0.00000  Uiso   1.00
O1224  O     0.83760   0.83637   0.67194   0.00000  Uiso   1.00
loop_
_geom_bond_atom_site_label_1
_geom_bond_atom_site_label_2
_geom_bond_distance
_geom_bond_site_symmetry_2
_ccdc_geom_bond_type
O1     C5      1.291   .     A
O1     Cu13    1.960   .     S
O2     C6      1.291   .     A
O2     Cu14    1.960   .     S
O3     Cu14    1.961   .     S
O3     C5      1.298   .     A
O4     C6      1.298   .     A
O4     Cu13    1.961   .     S
C5     C33     1.436   .     S
C6     C34     1.436   .     S
O7     Cu13    1.970   .     S
O7     C11     1.299   .     A
O8     C12     1.299   .     A
O8     Cu14    1.970   .     S
O9     C11     1.298   .     A
O9     Cu14    1.959   .     S
O10    C12     1.298   .     A
O10    Cu13    1.959   .     S
C11    C18     1.454   .     S
C12    C17     1.454   .     S
Cu13   N36     2.032   .     S
Cu13   Cu14    2.705   .     S
Cu14   N35     2.032   .     S
C15    C25     1.415   .     A
C15    C17     1.406   .     A
C15    N37     1.433   .     S
C16    N40     1.433   .     S
C16    C26     1.415   .     A
C16    C18     1.406   .     A
C17    C19     1.400   .     A
C18    C20     1.400   .     A
C19    C21     1.401   .     A
C19    N43     1.438   .     S
C20    C22     1.401   .     A
C20    N46     1.438   .     S
C21    C27     1.399   .     A
C21    C23     1.414   .     A
C22    C28     1.399   .     A
C22    C24     1.414   .     A
C23    C25     1.426   .     A
C23    C92     1.413   .     S
C24    C26     1.426   .     A
C24    C91     1.413   1_455 S
C25    C30     1.425   .     A
C26    C29     1.425   .     A
C27    H31     1.083   .     S
C27    C97     1.392   .     S
C28    H32     1.083   .     S
C28    C98     1.392   1_455 S
C29    C49     1.514   .     S
C29    C95     1.392   1_455 S
C30    C53     1.514   .     S
C30    C96     1.392   .     S
C33    C306    1.360   1_545 S
C33    N329    1.445   1_545 S
C34    C169    1.360   .     S
C34    N196    1.445   .     S
N35    N852    1.297   1_554 S
N35    N879    1.384   1_554 S
N36    N443    1.297   .     S
N36    N474    1.384   .     S
N37    O38     1.301   .     A
N37    O39     1.300   .     A
N40    O42     1.300   .     A
N40    O41     1.301   .     A
N43    O45     1.300   .     A
N43    O44     1.301   .     A
N46    O48     1.300   .     A
N46    O47     1.301   .     A
C49    H52     1.110   .     S
C49    H51     1.108   .     S
C49    H322    1.111   1_545 S
H50    C185    1.111   .     S
C53    H55     1.110   .     S
C53    H56     1.107   .     S
C53    H190    1.111   .     S
H54    C325    1.111   1_545 S
N57    O58     1.302   .     A
N57    O59     1.300   .     A
N57    C169    1.445   .     S
N60    O62     1.302   .     A
N60    O61     1.300   .     A
N60    C306    1.445   1_545 S
N63    O65     1.301   .     A
N63    O64     1.300   .     A
N63    N443    1.384   .     S
N66    O68     1.301   .     A
N66    O67     1.300   .     A
N66    N852    1.384   1_554 S
O69    C73     1.291   .     A
O69    Cu81    1.960   .     S
O70    C74     1.291   .     A
O70    Cu82    1.960   .     S
O71    Cu82    1.961   .     S
O71    C73     1.298   .     A
O72    C74     1.298   .     A
O72    Cu81    1.961   .     S
C73    C101    1.436   .     S
C74    C102    1.436   .     S
O75    Cu81    1.970   .     S
O75    C79     1.299   .     A
O76    C80     1.299   .     A
O76    Cu82    1.970   .     S
O77    C79     1.298   .     A
O77    Cu82    1.959   .     S
O78    C80     1.298   .     A
O78    Cu81    1.959   .     S
C79    C86     1.454   .     S
C80    C85     1.454   .     S
Cu81   N104    2.032   .     S
Cu81   Cu82    2.705   .     S
Cu82   N103    2.032   .     S
C83    C93     1.415   .     A
C83    C85     1.406   .     A
C83    N105    1.433   .     S
C84    N108    1.433   .     S
C84    C94     1.415   .     A
C84    C86     1.406   .     A
C85    C87     1.400   .     A
C86    C88     1.400   .     A
C87    C89     1.401   .     A
C87    N111    1.438   .     S
C88    C90     1.401   .     A
C88    N114    1.438   .     S
C89    C95     1.399   .     A
C89    C91     1.414   .     A
C90    C96     1.399   .     A
C90    C92     1.414   .     A
C91    C93     1.426   .     A
C91    C24     1.413   1_655 S
C92    C94     1.426   .     A
C93    C98     1.425   .     A
C94    C97     1.425   .     A
C95    H99     1.083   .     S
C95    C29     1.392   1_655 S
C96    H100    1.083   .     S
C97    C117    1.514   .     S
C98    C121    1.514   .     S
C98    C28     1.392   1_655 S
C101   C374    1.360   1_545 S
C101   N397    1.445   1_545 S
C102   C237    1.360   .     S
C102   N264    1.445   .     S
N103   N920    1.297   1_554 S
N103   N947    1.384   1_554 S
N104   N511    1.297   .     S
N104   N542    1.384   .     S
N105   O106    1.301   .     A
N105   O107    1.300   .     A
N108   O110    1.300   .     A
N108   O109    1.301   .     A
N111   O113    1.300   .     A
N111   O112    1.301   .     A
N114   O116    1.300   .     A
N114   O115    1.301   .     A
C117   H120    1.110   .     S
C117   H119    1.108   .     S
C117   H390    1.111   1_545 S
H118   C253    1.111   .     S
C121   H123    1.110   .     S
C121   H124    1.107   .     S
C121   H258    1.111   .     S
H122   C393    1.111   1_545 S
N125   O126    1.302   .     A
N125   O127    1.300   .     A
N125   C237    1.445   .     S
N128   O130    1.302   .     A
N128   O129    1.300   .     A
N128   C374    1.445   1_545 S
N131   O133    1.301   .     A
N131   O132    1.300   .     A
N131   N511    1.384   .     S
N134   O136    1.301   .     A
N134   O135    1.300   .     A
N134   N920    1.384   1_554 S
O137   C141    1.291   .     A
O137   Cu149   1.960   .     S
O138   C142    1.291   .     A
O138   Cu150   1.960   .     S
O139   Cu150   1.961   .     S
O139   C141    1.298   .     A
O140   C142    1.298   .     A
O140   Cu149   1.961   .     S
C141   C169    1.436   .     S
C142   C170    1.436   .     S
O143   Cu149   1.970   .     S
O143   C147    1.299   .     A
O144   C148    1.299   .     A
O144   Cu150   1.970   .     S
O145   C147    1.298   .     A
O145   Cu150   1.959   .     S
O146   C148    1.298   .     A
O146   Cu149   1.959   .     S
C147   C154    1.454   .     S
C148   C153    1.454   .     S
Cu149  N172    2.032   .     S
Cu149  Cu150   2.705   .     S
Cu150  N171    2.032   .     S
C151   C161    1.415   .     A
C151   C153    1.406   .     A
C151   N173    1.433   .     S
C152   N176    1.433   .     S
C152   C162    1.415   .     A
C152   C154    1.406   .     A
C153   C155    1.400   .     A
C154   C156    1.400   .     A
C155   C157    1.401   .     A
C155   N179    1.438   .     S
C156   C158    1.401   .     A
C156   N182    1.438   .     S
C157   C163    1.399   .     A
C157   C159    1.414   .     A
C158   C164    1.399   .     A
C158   C160    1.414   .     A
C159   C161    1.426   .     A
C159   C228    1.413   .     S
C160   C162    1.426   .     A
C160   C227    1.413   1_455 S
C161   C166    1.425   .     A
C162   C165    1.425   .     A
C163   H167    1.083   .     S
C163   C233    1.392   .     S
C164   H168    1.083   .     S
C164   C234    1.392   1_455 S
C165   C185    1.514   .     S
C165   C231    1.392   1_455 S
C166   C189    1.514   .     S
C166   C232    1.392   .     S
C170   C305    1.360   .     S
C170   N332    1.445   .     S
N171   N988    1.297   1_554 S
N171   N1015   1.384   1_554 S
N172   N579    1.297   .     S
N172   N610    1.384   .     S
N173   O174    1.301   .     A
N173   O175    1.300   .     A
N176   O178    1.300   .     A
N176   O177    1.301   .     A
N179   O181    1.300   .     A
N179   O180    1.301   .     A
N182   O184    1.300   .     A
N182   O183    1.301   .     A
C185   H188    1.110   .     S
C185   H187    1.108   .     S
H186   C321    1.111   .     S
C189   H191    1.110   .     S
C189   H192    1.107   .     S
C189   H326    1.111   .     S
N193   O194    1.302   .     A
N193   O195    1.300   .     A
N193   C305    1.445   .     S
N196   O198    1.302   .     A
N196   O197    1.300   .     A
N199   O201    1.301   .     A
N199   O200    1.300   .     A
N199   N579    1.384   .     S
N202   O204    1.301   .     A
N202   O203    1.300   .     A
N202   N988    1.384   1_554 S
O205   C209    1.291   .     A
O205   Cu217   1.960   .     S
O206   C210    1.291   .     A
O206   Cu218   1.960   .     S
O207   Cu218   1.961   .     S
O207   C209    1.298   .     A
O208   C210    1.298   .     A
O208   Cu217   1.961   .     S
C209   C237    1.436   .     S
C210   C238    1.436   .     S
O211   Cu217   1.970   .     S
O211   C215    1.299   .     A
O212   C216    1.299   .     A
O212   Cu218   1.970   .     S
O213   C215    1.298   .     A
O213   Cu218   1.959   .     S
O214   C216    1.298   .     A
O214   Cu217   1.959   .     S
C215   C222    1.454   .     S
C216   C221    1.454   .     S
Cu217  N240    2.032   .     S
Cu217  Cu218   2.705   .     S
Cu218  N239    2.032   .     S
C219   C229    1.415   .     A
C219   C221    1.406   .     A
C219   N241    1.433   .     S
C220   N244    1.433   .     S
C220   C230    1.415   .     A
C220   C222    1.406   .     A
C221   C223    1.400   .     A
C222   C224    1.400   .     A
C223   C225    1.401   .     A
C223   N247    1.438   .     S
C224   C226    1.401   .     A
C224   N250    1.438   .     S
C225   C231    1.399   .     A
C225   C227    1.414   .     A
C226   C232    1.399   .     A
C226   C228    1.414   .     A
C227   C229    1.426   .     A
C227   C160    1.413   1_655 S
C228   C230    1.426   .     A
C229   C234    1.425   .     A
C230   C233    1.425   .     A
C231   H235    1.083   .     S
C231   C165    1.392   1_655 S
C232   H236    1.083   .     S
C233   C253    1.514   .     S
C234   C257    1.514   .     S
C234   C164    1.392   1_655 S
C238   C373    1.360   .     S
C238   N400    1.445   .     S
N239   N1056   1.297   1_554 S
N239   N1083   1.384   1_554 S
N240   N647    1.297   .     S
N240   N678    1.384   .     S
N241   O242    1.301   .     A
N241   O243    1.300   .     A
N244   O246    1.300   .     A
N244   O245    1.301   .     A
N247   O249    1.300   .     A
N247   O248    1.301   .     A
N250   O252    1.300   .     A
N250   O251    1.301   .     A
C253   H256    1.110   .     S
C253   H255    1.108   .     S
H254   C389    1.111   .     S
C257   H259    1.110   .     S
C257   H260    1.107   .     S
C257   H394    1.111   .     S
N261   O262    1.302   .     A
N261   O263    1.300   .     A
N261   C373    1.445   .     S
N264   O266    1.302   .     A
N264   O265    1.300   .     A
N267   O269    1.301   .     A
N267   O268    1.300   .     A
N267   N647    1.384   .     S
N270   O272    1.301   .     A
N270   O271    1.300   .     A
N270   N1056   1.384   1_554 S
O273   C277    1.291   .     A
O273   Cu285   1.960   .     S
O274   C278    1.291   .     A
O274   Cu286   1.960   .     S
O275   Cu286   1.961   .     S
O275   C277    1.298   .     A
O276   C278    1.298   .     A
O276   Cu285   1.961   .     S
C277   C305    1.436   .     S
C278   C306    1.436   .     S
O279   Cu285   1.970   .     S
O279   C283    1.299   .     A
O280   C284    1.299   .     A
O280   Cu286   1.970   .     S
O281   C283    1.298   .     A
O281   Cu286   1.959   .     S
O282   C284    1.298   .     A
O282   Cu285   1.959   .     S
C283   C290    1.454   .     S
C284   C289    1.454   .     S
Cu285  N308    2.032   .     S
Cu285  Cu286   2.705   .     S
Cu286  N307    2.032   .     S
C287   C297    1.415   .     A
C287   C289    1.406   .     A
C287   N309    1.433   .     S
C288   N312    1.433   .     S
C288   C298    1.415   .     A
C288   C290    1.406   .     A
C289   C291    1.400   .     A
C290   C292    1.400   .     A
C291   C293    1.401   .     A
C291   N315    1.438   .     S
C292   C294    1.401   .     A
C292   N318    1.438   .     S
C293   C299    1.399   .     A
C293   C295    1.414   .     A
C294   C300    1.399   .     A
C294   C296    1.414   .     A
C295   C297    1.426   .     A
C295   C364    1.413   .     S
C296   C298    1.426   .     A
C296   C363    1.413   1_455 S
C297   C302    1.425   .     A
C298   C301    1.425   .     A
C299   H303    1.083   .     S
C299   C369    1.392   .     S
C300   H304    1.083   .     S
C300   C370    1.392   1_455 S
C301   C321    1.514   .     S
C301   C367    1.392   1_455 S
C302   C325    1.514   .     S
C302   C368    1.392   .     S
C306   C33     1.360   1_565 S
C306   N60     1.445   1_565 S
N307   N1124   1.297   1_554 S
N307   N1151   1.384   1_554 S
N308   N715    1.297   .     S
N308   N746    1.384   .     S
N309   O310    1.301   .     A
N309   O311    1.300   .     A
N312   O314    1.300   .     A
N312   O313    1.301   .     A
N315   O317    1.300   .     A
N315   O316    1.301   .     A
N318   O320    1.300   .     A
N318   O319    1.301   .     A
C321   H324    1.110   .     S
C321   H323    1.108   .     S
H322   C49     1.111   1_565 S
C325   H327    1.110   .     S
C325   H328    1.107   .     S
C325   H54     1.111   1_565 S
N329   O330    1.302   .     A
N329   O331    1.300   .     A
N329   C33     1.445   1_565 S
N332   O334    1.302   .     A
N332   O333    1.300   .     A
N335   O337    1.301   .     A
N335   O336    1.300   .     A
N335   N715    1.384   .     S
N338   O340    1.301   .     A
N338   O339    1.300   .     A
N338   N1124   1.384   1_554 S
O341   C345    1.291   .     A
O341   Cu353   1.960   .     S
O342   C346    1.291   .     A
O342   Cu354   1.960   .     S
O343   Cu354   1.961   .     S
O343   C345    1.298   .     A
O344   C346    1.298   .     A
O344   Cu353   1.961   .     S
C345   C373    1.436   .     S
C346   C374    1.436   .     S
O347   Cu353   1.970   .     S
O347   C351    1.299   .     A
O348   C352    1.299   .     A
O348   Cu354   1.970   .     S
O349   C351    1.298   .     A
O349   Cu354   1.959   .     S
O350   C352    1.298   .     A
O350   Cu353   1.959   .     S
C351   C358    1.454   .     S
C352   C357    1.454   .     S
Cu353  N376    2.032   .     S
Cu353  Cu354   2.705   .     S
Cu354  N375    2.032   .     S
C355   C365    1.415   .     A
C355   C357    1.406   .     A
C355   N377    1.433   .     S
C356   N380    1.433   .     S
C356   C366    1.415   .     A
C356   C358    1.406   .     A
C357   C359    1.400   .     A
C358   C360    1.400   .     A
C359   C361    1.401   .     A
C359   N383    1.438   .     S
C360   C362    1.401   .     A
C360   N386    1.438   .     S
C361   C367    1.399   .     A
C361   C363    1.414   .     A
C362   C368    1.399   .     A
C362   C364    1.414   .     A
C363   C365    1.426   .     A
C363   C296    1.413   1_655 S
C364   C366    1.426   .     A
C365   C370    1.425   .     A
C366   C369    1.425   .     A
C367   H371    1.083   .     S
C367   C301    1.392   1_655 S
C368   H372    1.083   .     S
C369   C389    1.514   .     S
C370   C393    1.514   .     S
C370   C300    1.392   1_655 S
C374   C101    1.360   1_565 S
C374   N128    1.445   1_565 S
N375   N1192   1.297   1_554 S
N375   N1219   1.384   1_554 S
N376   N783    1.297   .     S
N376   N814    1.384   .     S
N377   O378    1.301   .     A
N377   O379    1.300   .     A
N380   O382    1.300   .     A
N380   O381    1.301   .     A
N383   O385    1.300   .     A
N383   O384    1.301   .     A
N386   O388    1.300   .     A
N386   O387    1.301   .     A
C389   H392    1.110   .     S
C389   H391    1.108   .     S
H390   C117    1.111   1_565 S
C393   H395    1.110   .     S
C393   H396    1.107   .     S
C393   H122    1.111   1_565 S
N397   O398    1.302   .     A
N397   O399    1.300   .     A
N397   C101    1.445   1_565 S
N400   O402    1.302   .     A
N400   O401    1.300   .     A
N403   O405    1.301   .     A
N403   O404    1.300   .     A
N403   N783    1.384   .     S
N406   O408    1.301   .     A
N406   O407    1.300   .     A
N406   N1192   1.384   1_554 S
O409   C413    1.291   .     A
O409   Cu421   1.960   .     S
O410   C414    1.291   .     A
O410   Cu422   1.960   .     S
O411   Cu422   1.961   .     S
O411   C413    1.298   .     A
O412   C414    1.298   .     A
O412   Cu421   1.961   .     S
C413   C441    1.436   .     S
C414   C442    1.436   .     S
O415   Cu421   1.970   .     S
O415   C419    1.299   .     A
O416   C420    1.299   .     A
O416   Cu422   1.970   .     S
O417   C419    1.298   .     A
O417   Cu422   1.959   .     S
O418   C420    1.298   .     A
O418   Cu421   1.959   .     S
C419   C426    1.454   .     S
C420   C425    1.454   .     S
Cu421  N444    2.032   .     S
Cu421  Cu422   2.705   .     S
Cu422  N443    2.032   .     S
C423   C433    1.415   .     A
C423   C425    1.406   .     A
C423   N445    1.433   .     S
C424   N448    1.433   .     S
C424   C434    1.415   .     A
C424   C426    1.406   .     A
C425   C427    1.400   .     A
C426   C428    1.400   .     A
C427   C429    1.401   .     A
C427   N451    1.438   .     S
C428   C430    1.401   .     A
C428   N454    1.438   .     S
C429   C435    1.399   .     A
C429   C431    1.414   .     A
C430   C436    1.399   .     A
C430   C432    1.414   .     A
C431   C433    1.426   .     A
C431   C500    1.413   .     S
C432   C434    1.426   .     A
C432   C499    1.413   1_455 S
C433   C438    1.425   .     A
C434   C437    1.425   .     A
C435   H439    1.083   .     S
C435   C505    1.392   .     S
C436   H440    1.083   .     S
C436   C506    1.392   1_455 S
C437   C457    1.514   .     S
C437   C503    1.392   1_455 S
C438   C461    1.514   .     S
C438   C504    1.392   .     S
C441   C714    1.360   1_545 S
C441   N737    1.445   1_545 S
C442   C577    1.360   .     S
C442   N604    1.445   .     S
N444   N851    1.297   .     S
N444   N882    1.384   .     S
N445   O446    1.301   .     A
N445   O447    1.300   .     A
N448   O450    1.300   .     A
N448   O449    1.301   .     A
N451   O453    1.300   .     A
N451   O452    1.301   .     A
N454   O456    1.300   .     A
N454   O455    1.301   .     A
C457   H460    1.110   .     S
C457   H459    1.108   .     S
C457   H730    1.111   1_545 S
H458   C593    1.111   .     S
C461   H463    1.110   .     S
C461   H464    1.107   .     S
C461   H598    1.111   .     S
H462   C733    1.111   1_545 S
N465   O466    1.302   .     A
N465   O467    1.300   .     A
N465   C577    1.445   .     S
N468   O470    1.302   .     A
N468   O469    1.300   .     A
N468   C714    1.445   1_545 S
N471   O473    1.301   .     A
N471   O472    1.300   .     A
N471   N851    1.384   .     S
N474   O476    1.301   .     A
N474   O475    1.300   .     A
O477   C481    1.291   .     A
O477   Cu489   1.960   .     S
O478   C482    1.291   .     A
O478   Cu490   1.960   .     S
O479   Cu490   1.961   .     S
O479   C481    1.298   .     A
O480   C482    1.298   .     A
O480   Cu489   1.961   .     S
C481   C509    1.436   .     S
C482   C510    1.436   .     S
O483   Cu489   1.970   .     S
O483   C487    1.299   .     A
O484   C488    1.299   .     A
O484   Cu490   1.970   .     S
O485   C487    1.298   .     A
O485   Cu490   1.959   .     S
O486   C488    1.298   .     A
O486   Cu489   1.959   .     S
C487   C494    1.454   .     S
C488   C493    1.454   .     S
Cu489  N512    2.032   .     S
Cu489  Cu490   2.705   .     S
Cu490  N511    2.032   .     S
C491   C501    1.415   .     A
C491   C493    1.406   .     A
C491   N513    1.433   .     S
C492   N516    1.433   .     S
C492   C502    1.415   .     A
C492   C494    1.406   .     A
C493   C495    1.400   .     A
C494   C496    1.400   .     A
C495   C497    1.401   .     A
C495   N519    1.438   .     S
C496   C498    1.401   .     A
C496   N522    1.438   .     S
C497   C503    1.399   .     A
C497   C499    1.414   .     A
C498   C504    1.399   .     A
C498   C500    1.414   .     A
C499   C501    1.426   .     A
C499   C432    1.413   1_655 S
C500   C502    1.426   .     A
C501   C506    1.425   .     A
C502   C505    1.425   .     A
C503   H507    1.083   .     S
C503   C437    1.392   1_655 S
C504   H508    1.083   .     S
C505   C525    1.514   .     S
C506   C529    1.514   .     S
C506   C436    1.392   1_655 S
C509   C782    1.360   1_545 S
C509   N805    1.445   1_545 S
C510   C645    1.360   .     S
C510   N672    1.445   .     S
N512   N919    1.297   .     S
N512   N950    1.384   .     S
N513   O514    1.301   .     A
N513   O515    1.300   .     A
N516   O518    1.300   .     A
N516   O517    1.301   .     A
N519   O521    1.300   .     A
N519   O520    1.301   .     A
N522   O524    1.300   .     A
N522   O523    1.301   .     A
C525   H528    1.110   .     S
C525   H527    1.108   .     S
C525   H798    1.111   1_545 S
H526   C661    1.111   .     S
C529   H531    1.110   .     S
C529   H532    1.107   .     S
C529   H666    1.111   .     S
H530   C801    1.111   1_545 S
N533   O534    1.302   .     A
N533   O535    1.300   .     A
N533   C645    1.445   .     S
N536   O538    1.302   .     A
N536   O537    1.300   .     A
N536   C782    1.445   1_545 S
N539   O541    1.301   .     A
N539   O540    1.300   .     A
N539   N919    1.384   .     S
N542   O544    1.301   .     A
N542   O543    1.300   .     A
O545   C549    1.291   .     A
O545   Cu557   1.960   .     S
O546   C550    1.291   .     A
O546   Cu558   1.960   .     S
O547   Cu558   1.961   .     S
O547   C549    1.298   .     A
O548   C550    1.298   .     A
O548   Cu557   1.961   .     S
C549   C577    1.436   .     S
C550   C578    1.436   .     S
O551   Cu557   1.970   .     S
O551   C555    1.299   .     A
O552   C556    1.299   .     A
O552   Cu558   1.970   .     S
O553   C555    1.298   .     A
O553   Cu558   1.959   .     S
O554   C556    1.298   .     A
O554   Cu557   1.959   .     S
C555   C562    1.454   .     S
C556   C561    1.454   .     S
Cu557  N580    2.032   .     S
Cu557  Cu558   2.705   .     S
Cu558  N579    2.032   .     S
C559   C569    1.415   .     A
C559   C561    1.406   .     A
C559   N581    1.433   .     S
C560   N584    1.433   .     S
C560   C570    1.415   .     A
C560   C562    1.406   .     A
C561   C563    1.400   .     A
C562   C564    1.400   .     A
C563   C565    1.401   .     A
C563   N587    1.438   .     S
C564   C566    1.401   .     A
C564   N590    1.438   .     S
C565   C571    1.399   .     A
C565   C567    1.414   .     A
C566   C572    1.399   .     A
C566   C568    1.414   .     A
C567   C569    1.426   .     A
C567   C636    1.413   .     S
C568   C570    1.426   .     A
C568   C635    1.413   1_455 S
C569   C574    1.425   .     A
C570   C573    1.425   .     A
C571   H575    1.083   .     S
C571   C641    1.392   .     S
C572   H576    1.083   .     S
C572   C642    1.392   1_455 S
C573   C593    1.514   .     S
C573   C639    1.392   1_455 S
C574   C597    1.514   .     S
C574   C640    1.392   .     S
C578   C713    1.360   .     S
C578   N740    1.445   .     S
N580   N987    1.297   .     S
N580   N1018   1.384   .     S
N581   O582    1.301   .     A
N581   O583    1.300   .     A
N584   O586    1.300   .     A
N584   O585    1.301   .     A
N587   O589    1.300   .     A
N587   O588    1.301   .     A
N590   O592    1.300   .     A
N590   O591    1.301   .     A
C593   H596    1.110   .     S
C593   H595    1.108   .     S
H594   C729    1.111   .     S
C597   H599    1.110   .     S
C597   H600    1.107   .     S
C597   H734    1.111   .     S
N601   O602    1.302   .     A
N601   O603    1.300   .     A
N601   C713    1.445   .     S
N604   O606    1.302   .     A
N604   O605    1.300   .     A
N607   O609    1.301   .     A
N607   O608    1.300   .     A
N607   N987    1.384   .     S
N610   O612    1.301   .     A
N610   O611    1.300   .     A
O613   C617    1.291   .     A
O613   Cu625   1.960   .     S
O614   C618    1.291   .     A
O614   Cu626   1.960   .     S
O615   Cu626   1.961   .     S
O615   C617    1.298   .     A
O616   C618    1.298   .     A
O616   Cu625   1.961   .     S
C617   C645    1.436   .     S
C618   C646    1.436   .     S
O619   Cu625   1.970   .     S
O619   C623    1.299   .     A
O620   C624    1.299   .     A
O620   Cu626   1.970   .     S
O621   C623    1.298   .     A
O621   Cu626   1.959   .     S
O622   C624    1.298   .     A
O622   Cu625   1.959   .     S
C623   C630    1.454   .     S
C624   C629    1.454   .     S
Cu625  N648    2.032   .     S
Cu625  Cu626   2.705   .     S
Cu626  N647    2.032   .     S
C627   C637    1.415   .     A
C627   C629    1.406   .     A
C627   N649    1.433   .     S
C628   N652    1.433   .     S
C628   C638    1.415   .     A
C628   C630    1.406   .     A
C629   C631    1.400   .     A
C630   C632    1.400   .     A
C631   C633    1.401   .     A
C631   N655    1.438   .     S
C632   C634    1.401   .     A
C632   N658    1.438   .     S
C633   C639    1.399   .     A
C633   C635    1.414   .     A
C634   C640    1.399   .     A
C634   C636    1.414   .     A
C635   C637    1.426   .     A
C635   C568    1.413   1_655 S
C636   C638    1.426   .     A
C637   C642    1.425   .     A
C638   C641    1.425   .     A
C639   H643    1.083   .     S
C639   C573    1.392   1_655 S
C640   H644    1.083   .     S
C641   C661    1.514   .     S
C642   C665    1.514   .     S
C642   C572    1.392   1_655 S
C646   C781    1.360   .     S
C646   N808    1.445   .     S
N648   N1055   1.297   .     S
N648   N1086   1.384   .     S
N649   O650    1.301   .     A
N649   O651    1.300   .     A
N652   O654    1.300   .     A
N652   O653    1.301   .     A
N655   O657    1.300   .     A
N655   O656    1.301   .     A
N658   O660    1.300   .     A
N658   O659    1.301   .     A
C661   H664    1.110   .     S
C661   H663    1.108   .     S
H662   C797    1.111   .     S
C665   H667    1.110   .     S
C665   H668    1.107   .     S
C665   H802    1.111   .     S
N669   O670    1.302   .     A
N669   O671    1.300   .     A
N669   C781    1.445   .     S
N672   O674    1.302   .     A
N672   O673    1.300   .     A
N675   O677    1.301   .     A
N675   O676    1.300   .     A
N675   N1055   1.384   .     S
N678   O680    1.301   .     A
N678   O679    1.300   .     A
O681   C685    1.291   .     A
O681   Cu693   1.960   .     S
O682   C686    1.291   .     A
O682   Cu694   1.960   .     S
O683   Cu694   1.961   .     S
O683   C685    1.298   .     A
O684   C686    1.298   .     A
O684   Cu693   1.961   .     S
C685   C713    1.436   .     S
C686   C714    1.436   .     S
O687   Cu693   1.970   .     S
O687   C691    1.299   .     A
O688   C692    1.299   .     A
O688   Cu694   1.970   .     S
O689   C691    1.298   .     A
O689   Cu694   1.959   .     S
O690   C692    1.298   .     A
O690   Cu693   1.959   .     S
C691   C698    1.454   .     S
C692   C697    1.454   .     S
Cu693  N716    2.032   .     S
Cu693  Cu694   2.705   .     S
Cu694  N715    2.032   .     S
C695   C705    1.415   .     A
C695   C697    1.406   .     A
C695   N717    1.433   .     S
C696   N720    1.433   .     S
C696   C706    1.415   .     A
C696   C698    1.406   .     A
C697   C699    1.400   .     A
C698   C700    1.400   .     A
C699   C701    1.401   .     A
C699   N723    1.438   .     S
C700   C702    1.401   .     A
C700   N726    1.438   .     S
C701   C707    1.399   .     A
C701   C703    1.414   .     A
C702   C708    1.399   .     A
C702   C704    1.414   .     A
C703   C705    1.426   .     A
C703   C772    1.413   .     S
C704   C706    1.426   .     A
C704   C771    1.413   1_455 S
C705   C710    1.425   .     A
C706   C709    1.425   .     A
C707   H711    1.083   .     S
C707   C777    1.392   .     S
C708   H712    1.083   .     S
C708   C778    1.392   1_455 S
C709   C729    1.514   .     S
C709   C775    1.392   1_455 S
C710   C733    1.514   .     S
C710   C776    1.392   .     S
C714   C441    1.360   1_565 S
C714   N468    1.445   1_565 S
N716   N1123   1.297   .     S
N716   N1154   1.384   .     S
N717   O718    1.301   .     A
N717   O719    1.300   .     A
N720   O722    1.300   .     A
N720   O721    1.301   .     A
N723   O725    1.300   .     A
N723   O724    1.301   .     A
N726   O728    1.300   .     A
N726   O727    1.301   .     A
C729   H732    1.110   .     S
C729   H731    1.108   .     S
H730   C457    1.111   1_565 S
C733   H735    1.110   .     S
C733   H736    1.107   .     S
C733   H462    1.111   1_565 S
N737   O738    1.302   .     A
N737   O739    1.300   .     A
N737   C441    1.445   1_565 S
N740   O742    1.302   .     A
N740   O741    1.300   .     A
N743   O745    1.301   .     A
N743   O744    1.300   .     A
N743   N1123   1.384   .     S
N746   O748    1.301   .     A
N746   O747    1.300   .     A
O749   C753    1.291   .     A
O749   Cu761   1.960   .     S
O750   C754    1.291   .     A
O750   Cu762   1.960   .     S
O751   Cu762   1.961   .     S
O751   C753    1.298   .     A
O752   C754    1.298   .     A
O752   Cu761   1.961   .     S
C753   C781    1.436   .     S
C754   C782    1.436   .     S
O755   Cu761   1.970   .     S
O755   C759    1.299   .     A
O756   C760    1.299   .     A
O756   Cu762   1.970   .     S
O757   C759    1.298   .     A
O757   Cu762   1.959   .     S
O758   C760    1.298   .     A
O758   Cu761   1.959   .     S
C759   C766    1.454   .     S
C760   C765    1.454   .     S
Cu761  N784    2.032   .     S
Cu761  Cu762   2.705   .     S
Cu762  N783    2.032   .     S
C763   C773    1.415   .     A
C763   C765    1.406   .     A
C763   N785    1.433   .     S
C764   N788    1.433   .     S
C764   C774    1.415   .     A
C764   C766    1.406   .     A
C765   C767    1.400   .     A
C766   C768    1.400   .     A
C767   C769    1.401   .     A
C767   N791    1.438   .     S
C768   C770    1.401   .     A
C768   N794    1.438   .     S
C769   C775    1.399   .     A
C769   C771    1.414   .     A
C770   C776    1.399   .     A
C770   C772    1.414   .     A
C771   C773    1.426   .     A
C771   C704    1.413   1_655 S
C772   C774    1.426   .     A
C773   C778    1.425   .     A
C774   C777    1.425   .     A
C775   H779    1.083   .     S
C775   C709    1.392   1_655 S
C776   H780    1.083   .     S
C777   C797    1.514   .     S
C778   C801    1.514   .     S
C778   C708    1.392   1_655 S
C782   C509    1.360   1_565 S
C782   N536    1.445   1_565 S
N784   N1191   1.297   .     S
N784   N1222   1.384   .     S
N785   O786    1.301   .     A
N785   O787    1.300   .     A
N788   O790    1.300   .     A
N788   O789    1.301   .     A
N791   O793    1.300   .     A
N791   O792    1.301   .     A
N794   O796    1.300   .     A
N794   O795    1.301   .     A
C797   H800    1.110   .     S
C797   H799    1.108   .     S
H798   C525    1.111   1_565 S
C801   H803    1.110   .     S
C801   H804    1.107   .     S
C801   H530    1.111   1_565 S
N805   O806    1.302   .     A
N805   O807    1.300   .     A
N805   C509    1.445   1_565 S
N808   O810    1.302   .     A
N808   O809    1.300   .     A
N811   O813    1.301   .     A
N811   O812    1.300   .     A
N811   N1191   1.384   .     S
N814   O816    1.301   .     A
N814   O815    1.300   .     A
O817   C821    1.291   .     A
O817   Cu829   1.960   .     S
O818   C822    1.291   .     A
O818   Cu830   1.960   .     S
O819   Cu830   1.961   .     S
O819   C821    1.298   .     A
O820   C822    1.298   .     A
O820   Cu829   1.961   .     S
C821   C849    1.436   .     S
C822   C850    1.436   .     S
O823   Cu829   1.970   .     S
O823   C827    1.299   .     A
O824   C828    1.299   .     A
O824   Cu830   1.970   .     S
O825   C827    1.298   .     A
O825   Cu830   1.959   .     S
O826   C828    1.298   .     A
O826   Cu829   1.959   .     S
C827   C834    1.454   .     S
C828   C833    1.454   .     S
Cu829  N852    2.032   .     S
Cu829  Cu830   2.705   .     S
Cu830  N851    2.032   .     S
C831   C841    1.415   .     A
C831   C833    1.406   .     A
C831   N853    1.433   .     S
C832   N856    1.433   .     S
C832   C842    1.415   .     A
C832   C834    1.406   .     A
C833   C835    1.400   .     A
C834   C836    1.400   .     A
C835   C837    1.401   .     A
C835   N859    1.438   .     S
C836   C838    1.401   .     A
C836   N862    1.438   .     S
C837   C843    1.399   .     A
C837   C839    1.414   .     A
C838   C844    1.399   .     A
C838   C840    1.414   .     A
C839   C841    1.426   .     A
C839   C908    1.413   .     S
C840   C842    1.426   .     A
C840   C907    1.413   1_455 S
C841   C846    1.425   .     A
C842   C845    1.425   .     A
C843   H847    1.083   .     S
C843   C913    1.392   .     S
C844   H848    1.083   .     S
C844   C914    1.392   1_455 S
C845   C865    1.514   .     S
C845   C911    1.392   1_455 S
C846   C869    1.514   .     S
C846   C912    1.392   .     S
C849   C1122   1.360   1_545 S
C849   N1145   1.445   1_545 S
C850   C985    1.360   .     S
C850   N1012   1.445   .     S
N852   N35     1.297   1_556 S
N852   N66     1.384   1_556 S
N853   O854    1.301   .     A
N853   O855    1.300   .     A
N856   O858    1.300   .     A
N856   O857    1.301   .     A
N859   O861    1.300   .     A
N859   O860    1.301   .     A
N862   O864    1.300   .     A
N862   O863    1.301   .     A
C865   H868    1.110   .     S
C865   H867    1.108   .     S
C865   H1138   1.111   1_545 S
H866   C1001   1.111   .     S
C869   H871    1.110   .     S
C869   H872    1.107   .     S
C869   H1006   1.111   .     S
H870   C1141   1.111   1_545 S
N873   O874    1.302   .     A
N873   O875    1.300   .     A
N873   C985    1.445   .     S
N876   O878    1.302   .     A
N876   O877    1.300   .     A
N876   C1122   1.445   1_545 S
N879   O881    1.301   .     A
N879   O880    1.300   .     A
N879   N35     1.384   1_556 S
N882   O884    1.301   .     A
N882   O883    1.300   .     A
O885   C889    1.291   .     A
O885   Cu897   1.960   .     S
O886   C890    1.291   .     A
O886   Cu898   1.960   .     S
O887   Cu898   1.961   .     S
O887   C889    1.298   .     A
O888   C890    1.298   .     A
O888   Cu897   1.961   .     S
C889   C917    1.436   .     S
C890   C918    1.436   .     S
O891   Cu897   1.970   .     S
O891   C895    1.299   .     A
O892   C896    1.299   .     A
O892   Cu898   1.970   .     S
O893   C895    1.298   .     A
O893   Cu898   1.959   .     S
O894   C896    1.298   .     A
O894   Cu897   1.959   .     S
C895   C902    1.454   .     S
C896   C901    1.454   .     S
Cu897  N920    2.032   .     S
Cu897  Cu898   2.705   .     S
Cu898  N919    2.032   .     S
C899   C909    1.415   .     A
C899   C901    1.406   .     A
C899   N921    1.433   .     S
C900   N924    1.433   .     S
C900   C910    1.415   .     A
C900   C902    1.406   .     A
C901   C903    1.400   .     A
C902   C904    1.400   .     A
C903   C905    1.401   .     A
C903   N927    1.438   .     S
C904   C906    1.401   .     A
C904   N930    1.438   .     S
C905   C911    1.399   .     A
C905   C907    1.414   .     A
C906   C912    1.399   .     A
C906   C908    1.414   .     A
C907   C909    1.426   .     A
C907   C840    1.413   1_655 S
C908   C910    1.426   .     A
C909   C914    1.425   .     A
C910   C913    1.425   .     A
C911   H915    1.083   .     S
C911   C845    1.392   1_655 S
C912   H916    1.083   .     S
C913   C933    1.514   .     S
C914   C937    1.514   .     S
C914   C844    1.392   1_655 S
C917   C1190   1.360   1_545 S
C917   N1213   1.445   1_545 S
C918   C1053   1.360   .     S
C918   N1080   1.445   .     S
N920   N103    1.297   1_556 S
N920   N134    1.384   1_556 S
N921   O922    1.301   .     A
N921   O923    1.300   .     A
N924   O926    1.300   .     A
N924   O925    1.301   .     A
N927   O929    1.300   .     A
N927   O928    1.301   .     A
N930   O932    1.300   .     A
N930   O931    1.301   .     A
C933   H936    1.110   .     S
C933   H935    1.108   .     S
C933   H1206   1.111   1_545 S
H934   C1069   1.111   .     S
C937   H939    1.110   .     S
C937   H940    1.107   .     S
C937   H1074   1.111   .     S
H938   C1209   1.111   1_545 S
N941   O942    1.302   .     A
N941   O943    1.300   .     A
N941   C1053   1.445   .     S
N944   O946    1.302   .     A
N944   O945    1.300   .     A
N944   C1190   1.445   1_545 S
N947   O949    1.301   .     A
N947   O948    1.300   .     A
N947   N103    1.384   1_556 S
N950   O952    1.301   .     A
N950   O951    1.300   .     A
O953   C957    1.291   .     A
O953   Cu965   1.960   .     S
O954   C958    1.291   .     A
O954   Cu966   1.960   .     S
O955   Cu966   1.961   .     S
O955   C957    1.298   .     A
O956   C958    1.298   .     A
O956   Cu965   1.961   .     S
C957   C985    1.436   .     S
C958   C986    1.436   .     S
O959   Cu965   1.970   .     S
O959   C963    1.299   .     A
O960   C964    1.299   .     A
O960   Cu966   1.970   .     S
O961   C963    1.298   .     A
O961   Cu966   1.959   .     S
O962   C964    1.298   .     A
O962   Cu965   1.959   .     S
C963   C970    1.454   .     S
C964   C969    1.454   .     S
Cu965  N988    2.032   .     S
Cu965  Cu966   2.705   .     S
Cu966  N987    2.032   .     S
C967   C977    1.415   .     A
C967   C969    1.406   .     A
C967   N989    1.433   .     S
C968   N992    1.433   .     S
C968   C978    1.415   .     A
C968   C970    1.406   .     A
C969   C971    1.400   .     A
C970   C972    1.400   .     A
C971   C973    1.401   .     A
C971   N995    1.438   .     S
C972   C974    1.401   .     A
C972   N998    1.438   .     S
C973   C979    1.399   .     A
C973   C975    1.414   .     A
C974   C980    1.399   .     A
C974   C976    1.414   .     A
C975   C977    1.426   .     A
C975   C1044   1.413   .     S
C976   C978    1.426   .     A
C976   C1043   1.413   1_455 S
C977   C982    1.425   .     A
C978   C981    1.425   .     A
C979   H983    1.083   .     S
C979   C1049   1.392   .     S
C980   H984    1.083   .     S
C980   C1050   1.392   1_455 S
C981   C1001   1.514   .     S
C981   C1047   1.392   1_455 S
C982   C1005   1.514   .     S
C982   C1048   1.392   .     S
C986   C1121   1.360   .     S
C986   N1148   1.445   .     S
N988   N171    1.297   1_556 S
N988   N202    1.384   1_556 S
N989   O990    1.301   .     A
N989   O991    1.300   .     A
N992   O994    1.300   .     A
N992   O993    1.301   .     A
N995   O997    1.300   .     A
N995   O996    1.301   .     A
N998   O1000   1.300   .     A
N998   O999    1.301   .     A
C1001  H1004   1.110   .     S
C1001  H1003   1.108   .     S
H1002  C1137   1.111   .     S
C1005  H1007   1.110   .     S
C1005  H1008   1.107   .     S
C1005  H1142   1.111   .     S
N1009  O1010   1.302   .     A
N1009  O1011   1.300   .     A
N1009  C1121   1.445   .     S
N1012  O1014   1.302   .     A
N1012  O1013   1.300   .     A
N1015  O1017   1.301   .     A
N1015  O1016   1.300   .     A
N1015  N171    1.384   1_556 S
N1018  O1020   1.301   .     A
N1018  O1019   1.300   .     A
O1021  C1025   1.291   .     A
O1021  Cu1033  1.960   .     S
O1022  C1026   1.291   .     A
O1022  Cu1034  1.960   .     S
O1023  Cu1034  1.961   .     S
O1023  C1025   1.298   .     A
O1024  C1026   1.298   .     A
O1024  Cu1033  1.961   .     S
C1025  C1053   1.436   .     S
C1026  C1054   1.436   .     S
O1027  Cu1033  1.970   .     S
O1027  C1031   1.299   .     A
O1028  C1032   1.299   .     A
O1028  Cu1034  1.970   .     S
O1029  C1031   1.298   .     A
O1029  Cu1034  1.959   .     S
O1030  C1032   1.298   .     A
O1030  Cu1033  1.959   .     S
C1031  C1038   1.454   .     S
C1032  C1037   1.454   .     S
Cu1033 N1056   2.032   .     S
Cu1033 Cu1034  2.705   .     S
Cu1034 N1055   2.032   .     S
C1035  C1045   1.415   .     A
C1035  C1037   1.406   .     A
C1035  N1057   1.433   .     S
C1036  N1060   1.433   .     S
C1036  C1046   1.415   .     A
C1036  C1038   1.406   .     A
C1037  C1039   1.400   .     A
C1038  C1040   1.400   .     A
C1039  C1041   1.401   .     A
C1039  N1063   1.438   .     S
C1040  C1042   1.401   .     A
C1040  N1066   1.438   .     S
C1041  C1047   1.399   .     A
C1041  C1043   1.414   .     A
C1042  C1048   1.399   .     A
C1042  C1044   1.414   .     A
C1043  C1045   1.426   .     A
C1043  C976    1.413   1_655 S
C1044  C1046   1.426   .     A
C1045  C1050   1.425   .     A
C1046  C1049   1.425   .     A
C1047  H1051   1.083   .     S
C1047  C981    1.392   1_655 S
C1048  H1052   1.083   .     S
C1049  C1069   1.514   .     S
C1050  C1073   1.514   .     S
C1050  C980    1.392   1_655 S
C1054  C1189   1.360   .     S
C1054  N1216   1.445   .     S
N1056  N239    1.297   1_556 S
N1056  N270    1.384   1_556 S
N1057  O1058   1.301   .     A
N1057  O1059   1.300   .     A
N1060  O1062   1.300   .     A
N1060  O1061   1.301   .     A
N1063  O1065   1.300   .     A
N1063  O1064   1.301   .     A
N1066  O1068   1.300   .     A
N1066  O1067   1.301   .     A
C1069  H1072   1.110   .     S
C1069  H1071   1.108   .     S
H1070  C1205   1.111   .     S
C1073  H1075   1.110   .     S
C1073  H1076   1.107   .     S
C1073  H1210   1.111   .     S
N1077  O1078   1.302   .     A
N1077  O1079   1.300   .     A
N1077  C1189   1.445   .     S
N1080  O1082   1.302   .     A
N1080  O1081   1.300   .     A
N1083  O1085   1.301   .     A
N1083  O1084   1.300   .     A
N1083  N239    1.384   1_556 S
N1086  O1088   1.301   .     A
N1086  O1087   1.300   .     A
O1089  C1093   1.291   .     A
O1089  Cu1101  1.960   .     S
O1090  C1094   1.291   .     A
O1090  Cu1102  1.960   .     S
O1091  Cu1102  1.961   .     S
O1091  C1093   1.298   .     A
O1092  C1094   1.298   .     A
O1092  Cu1101  1.961   .     S
C1093  C1121   1.436   .     S
C1094  C1122   1.436   .     S
O1095  Cu1101  1.970   .     S
O1095  C1099   1.299   .     A
O1096  C1100   1.299   .     A
O1096  Cu1102  1.970   .     S
O1097  C1099   1.298   .     A
O1097  Cu1102  1.959   .     S
O1098  C1100   1.298   .     A
O1098  Cu1101  1.959   .     S
C1099  C1106   1.454   .     S
C1100  C1105   1.454   .     S
Cu1101 N1124   2.032   .     S
Cu1101 Cu1102  2.705   .     S
Cu1102 N1123   2.032   .     S
C1103  C1113   1.415   .     A
C1103  C1105   1.406   .     A
C1103  N1125   1.433   .     S
C1104  N1128   1.433   .     S
C1104  C1114   1.415   .     A
C1104  C1106   1.406   .     A
C1105  C1107   1.400   .     A
C1106  C1108   1.400   .     A
C1107  C1109   1.401   .     A
C1107  N1131   1.438   .     S
C1108  C1110   1.401   .     A
C1108  N1134   1.438   .     S
C1109  C1115   1.399   .     A
C1109  C1111   1.414   .     A
C1110  C1116   1.399   .     A
C1110  C1112   1.414   .     A
C1111  C1113   1.426   .     A
C1111  C1180   1.413   .     S
C1112  C1114   1.426   .     A
C1112  C1179   1.413   1_455 S
C1113  C1118   1.425   .     A
C1114  C1117   1.425   .     A
C1115  H1119   1.083   .     S
C1115  C1185   1.392   .     S
C1116  H1120   1.083   .     S
C1116  C1186   1.392   1_455 S
C1117  C1137   1.514   .     S
C1117  C1183   1.392   1_455 S
C1118  C1141   1.514   .     S
C1118  C1184   1.392   .     S
C1122  C849    1.360   1_565 S
C1122  N876    1.445   1_565 S
N1124  N307    1.297   1_556 S
N1124  N338    1.384   1_556 S
N1125  O1126   1.301   .     A
N1125  O1127   1.300   .     A
N1128  O1130   1.300   .     A
N1128  O1129   1.301   .     A
N1131  O1133   1.300   .     A
N1131  O1132   1.301   .     A
N1134  O1136   1.300   .     A
N1134  O1135   1.301   .     A
C1137  H1140   1.110   .     S
C1137  H1139   1.108   .     S
H1138  C865    1.111   1_565 S
C1141  H1143   1.110   .     S
C1141  H1144   1.107   .     S
C1141  H870    1.111   1_565 S
N1145  O1146   1.302   .     A
N1145  O1147   1.300   .     A
N1145  C849    1.445   1_565 S
N1148  O1150   1.302   .     A
N1148  O1149   1.300   .     A
N1151  O1153   1.301   .     A
N1151  O1152   1.300   .     A
N1151  N307    1.384   1_556 S
N1154  O1156   1.301   .     A
N1154  O1155   1.300   .     A
O1157  C1161   1.291   .     A
O1157  Cu1169  1.960   .     S
O1158  C1162   1.291   .     A
O1158  Cu1170  1.960   .     S
O1159  Cu1170  1.961   .     S
O1159  C1161   1.298   .     A
O1160  C1162   1.298   .     A
O1160  Cu1169  1.961   .     S
C1161  C1189   1.436   .     S
C1162  C1190   1.436   .     S
O1163  Cu1169  1.970   .     S
O1163  C1167   1.299   .     A
O1164  C1168   1.299   .     A
O1164  Cu1170  1.970   .     S
O1165  C1167   1.298   .     A
O1165  Cu1170  1.959   .     S
O1166  C1168   1.298   .     A
O1166  Cu1169  1.959   .     S
C1167  C1174   1.454   .     S
C1168  C1173   1.454   .     S
Cu1169 N1192   2.032   .     S
Cu1169 Cu1170  2.705   .     S
Cu1170 N1191   2.032   .     S
C1171  C1181   1.415   .     A
C1171  C1173   1.406   .     A
C1171  N1193   1.433   .     S
C1172  N1196   1.433   .     S
C1172  C1182   1.415   .     A
C1172  C1174   1.406   .     A
C1173  C1175   1.400   .     A
C1174  C1176   1.400   .     A
C1175  C1177   1.401   .     A
C1175  N1199   1.438   .     S
C1176  C1178   1.401   .     A
C1176  N1202   1.438   .     S
C1177  C1183   1.399   .     A
C1177  C1179   1.414   .     A
C1178  C1184   1.399   .     A
C1178  C1180   1.414   .     A
C1179  C1181   1.426   .     A
C1179  C1112   1.413   1_655 S
C1180  C1182   1.426   .     A
C1181  C1186   1.425   .     A
C1182  C1185   1.425   .     A
C1183  H1187   1.083   .     S
C1183  C1117   1.392   1_655 S
C1184  H1188   1.083   .     S
C1185  C1205   1.514   .     S
C1186  C1209   1.514   .     S
C1186  C1116   1.392   1_655 S
C1190  C917    1.360   1_565 S
C1190  N944    1.445   1_565 S
N1192  N375    1.297   1_556 S
N1192  N406    1.384   1_556 S
N1193  O1194   1.301   .     A
N1193  O1195   1.300   .     A
N1196  O1198   1.300   .     A
N1196  O1197   1.301   .     A
N1199  O1201   1.300   .     A
N1199  O1200   1.301   .     A
N1202  O1204   1.300   .     A
N1202  O1203   1.301   .     A
C1205  H1208   1.110   .     S
C1205  H1207   1.108   .     S
H1206  C933    1.111   1_565 S
C1209  H1211   1.110   .     S
C1209  H1212   1.107   .     S
C1209  H938    1.111   1_565 S
N1213  O1214   1.302   .     A
N1213  O1215   1.300   .     A
N1213  C917    1.445   1_565 S
N1216  O1218   1.302   .     A
N1216  O1217   1.300   .     A
N1219  O1221   1.301   .     A
N1219  O1220   1.300   .     A
N1219  N375    1.384   1_556 S
N1222  O1224   1.301   .     A
N1222  O1223   1.300   .     A
