data_str_m2_o1_o2_pcu_sym.147
_audit_creation_date              2020-01-03
_audit_creation_method            'Materials Studio'
_symmetry_space_group_name_H-M    'P1'
_symmetry_Int_Tables_number       1
_symmetry_cell_setting            triclinic
loop_
_symmetry_equiv_pos_as_xyz
  x,y,z
_cell_length_a                    32.4747
_cell_length_b                    28.5439
_cell_length_c                    30.1871
_cell_angle_alpha                 89.9985
_cell_angle_beta                  90.0715
_cell_angle_gamma                 89.9994
loop_
_atom_site_label
_atom_site_type_symbol
_atom_site_fract_x
_atom_site_fract_y
_atom_site_fract_z
_atom_site_U_iso_or_equiv
_atom_site_adp_type
_atom_site_occupancy
C1     C     0.08735   0.16667   0.24999   0.00000  Uiso   1.00
C2     C     0.24598   0.16667   0.25001   0.00000  Uiso   1.00
C3     C     0.16639   0.16664   0.16495   0.00000  Uiso   1.00
C4     C     0.16695   0.16664   0.33505   0.00000  Uiso   1.00
C5     C     0.14456   0.02482   0.21919   0.00000  Uiso   1.00
C6     C     0.18864   0.30855   0.28089   0.00000  Uiso   1.00
C7     C     0.18878   0.02481   0.28081   0.00000  Uiso   1.00
C8     C     0.14469   0.30855   0.21911   0.00000  Uiso   1.00
C9     C     0.02128   0.12410   0.24976   0.00000  Uiso   1.00
C10    C     0.31205   0.20922   0.24978   0.00000  Uiso   1.00
C11    C     0.31205   0.12410   0.25021   0.00000  Uiso   1.00
C12    C     0.02128   0.20922   0.25025   0.00000  Uiso   1.00
C13    C     0.14457   0.20118   0.04697   0.00000  Uiso   1.00
C14    C     0.14505   0.13232   0.45301   0.00000  Uiso   1.00
C15    C     0.18880   0.20116   0.45302   0.00000  Uiso   1.00
C16    C     0.18827   0.13230   0.04699   0.00000  Uiso   1.00
C17    C     0.14312   0.20035   0.09315   0.00000  Uiso   1.00
C18    C     0.14427   0.13247   0.40684   0.00000  Uiso   1.00
C19    C     0.19025   0.20033   0.40684   0.00000  Uiso   1.00
C20    C     0.18905   0.13245   0.09316   0.00000  Uiso   1.00
C21    C     0.16625   0.16654   0.11654   0.00000  Uiso   1.00
C22    C     0.16709   0.16654   0.38346   0.00000  Uiso   1.00
C23    C     0.16668   0.16698   0.02407   0.00000  Uiso   1.00
C24    C     0.16667   0.16697   0.47592   0.00000  Uiso   1.00
C25    C     0.29059   0.16666   0.25000   0.00000  Uiso   1.00
C26    C     0.04274   0.16666   0.25000   0.00000  Uiso   1.00
Cu27   Cu    0.16667   0.21355   0.25000   0.00000  Uiso   1.00
Cu28   Cu    0.16667   0.11978   0.25000   0.00000  Uiso   1.00
H29    H     0.12678   0.04350   0.19455   0.00000  Uiso   1.00
H30    H     0.20608   0.28991   0.30574   0.00000  Uiso   1.00
H31    H     0.20656   0.04349   0.30545   0.00000  Uiso   1.00
H32    H     0.12726   0.28991   0.19426   0.00000  Uiso   1.00
H33    H     0.12739   0.22761   0.02899   0.00000  Uiso   1.00
H34    H     0.12820   0.10563   0.47098   0.00000  Uiso   1.00
H35    H     0.20601   0.22757   0.47100   0.00000  Uiso   1.00
H36    H     0.20511   0.10559   0.02902   0.00000  Uiso   1.00
H37    H     0.03728   0.09081   0.24940   0.00000  Uiso   1.00
H38    H     0.29606   0.24251   0.24940   0.00000  Uiso   1.00
H39    H     0.29606   0.09081   0.25054   0.00000  Uiso   1.00
H40    H     0.03728   0.24251   0.25066   0.00000  Uiso   1.00
N41    N     0.16667   0.28402   0.25000   0.00000  Uiso   1.00
N42    N     0.16667   0.04931   0.25000   0.00000  Uiso   1.00
O43    O     0.10655   0.20625   0.24999   0.00000  Uiso   1.00
O44    O     0.22679   0.12709   0.25000   0.00000  Uiso   1.00
O45    O     0.22679   0.20625   0.25000   0.00000  Uiso   1.00
O46    O     0.10655   0.12709   0.24999   0.00000  Uiso   1.00
O47    O     0.16666   0.20626   0.18573   0.00000  Uiso   1.00
O48    O     0.16667   0.12707   0.31427   0.00000  Uiso   1.00
O49    O     0.16667   0.20626   0.31427   0.00000  Uiso   1.00
O50    O     0.16666   0.12707   0.18573   0.00000  Uiso   1.00
O51    O     0.11891   0.23268   0.11516   0.00000  Uiso   1.00
C52    C     0.07883   0.21388   0.11927   0.00000  Uiso   1.00
H53    H     0.07911   0.18213   0.14074   0.00000  Uiso   1.00
H54    H     0.06569   0.20465   0.08626   0.00000  Uiso   1.00
C55    C     0.05067   0.25008   0.14041   0.00000  Uiso   1.00
H56    H     0.04965   0.28223   0.11972   0.00000  Uiso   1.00
H57    H     0.01905   0.23562   0.14341   0.00000  Uiso   1.00
H58    H     0.06204   0.25924   0.17395   0.00000  Uiso   1.00
O59    O     0.12265   0.09784   0.38483   0.00000  Uiso   1.00
C60    C     0.08202   0.11370   0.37762   0.00000  Uiso   1.00
H61    H     0.08174   0.14606   0.35696   0.00000  Uiso   1.00
H62    H     0.06617   0.12078   0.40965   0.00000  Uiso   1.00
C63    C     0.05805   0.07596   0.35311   0.00000  Uiso   1.00
H64    H     0.05644   0.04367   0.37356   0.00000  Uiso   1.00
H65    H     0.02628   0.08841   0.34625   0.00000  Uiso   1.00
H66    H     0.07348   0.06767   0.32125   0.00000  Uiso   1.00
O67    O     0.21448   0.23264   0.38483   0.00000  Uiso   1.00
C68    C     0.25452   0.21377   0.38062   0.00000  Uiso   1.00
H69    H     0.25417   0.18210   0.35903   0.00000  Uiso   1.00
H70    H     0.26767   0.20435   0.41359   0.00000  Uiso   1.00
C71    C     0.28273   0.24999   0.35960   0.00000  Uiso   1.00
H72    H     0.28386   0.28203   0.38044   0.00000  Uiso   1.00
H73    H     0.31432   0.23545   0.35649   0.00000  Uiso   1.00
H74    H     0.27134   0.25935   0.32612   0.00000  Uiso   1.00
O75    O     0.21063   0.09779   0.11518   0.00000  Uiso   1.00
C76    C     0.25127   0.11359   0.12239   0.00000  Uiso   1.00
H77    H     0.25159   0.14597   0.14303   0.00000  Uiso   1.00
H78    H     0.26714   0.12064   0.09036   0.00000  Uiso   1.00
C79    C     0.27520   0.07584   0.14692   0.00000  Uiso   1.00
H80    H     0.27677   0.04353   0.12649   0.00000  Uiso   1.00
H81    H     0.30699   0.08824   0.15378   0.00000  Uiso   1.00
H82    H     0.25976   0.06758   0.17878   0.00000  Uiso   1.00
C83    C     0.42068   0.16667   0.24999   0.00000  Uiso   1.00
C84    C     0.57932   0.16667   0.25001   0.00000  Uiso   1.00
C85    C     0.49972   0.16664   0.16495   0.00000  Uiso   1.00
C86    C     0.50028   0.16664   0.33505   0.00000  Uiso   1.00
C87    C     0.47789   0.02482   0.21919   0.00000  Uiso   1.00
C88    C     0.52198   0.30855   0.28089   0.00000  Uiso   1.00
C89    C     0.52211   0.02481   0.28081   0.00000  Uiso   1.00
C90    C     0.47802   0.30855   0.21911   0.00000  Uiso   1.00
C91    C     0.35462   0.12410   0.24976   0.00000  Uiso   1.00
C92    C     0.64538   0.20922   0.24978   0.00000  Uiso   1.00
C93    C     0.64538   0.12410   0.25021   0.00000  Uiso   1.00
C94    C     0.35462   0.20922   0.25025   0.00000  Uiso   1.00
C95    C     0.47791   0.20118   0.04697   0.00000  Uiso   1.00
C96    C     0.47838   0.13232   0.45301   0.00000  Uiso   1.00
C97    C     0.52213   0.20116   0.45302   0.00000  Uiso   1.00
C98    C     0.52161   0.13230   0.04699   0.00000  Uiso   1.00
C99    C     0.47646   0.20035   0.09315   0.00000  Uiso   1.00
C100   C     0.47760   0.13247   0.40684   0.00000  Uiso   1.00
C101   C     0.52358   0.20033   0.40684   0.00000  Uiso   1.00
C102   C     0.52238   0.13245   0.09316   0.00000  Uiso   1.00
C103   C     0.49958   0.16654   0.11654   0.00000  Uiso   1.00
C104   C     0.50043   0.16654   0.38346   0.00000  Uiso   1.00
C105   C     0.50002   0.16698   0.02407   0.00000  Uiso   1.00
C106   C     0.50000   0.16697   0.47592   0.00000  Uiso   1.00
C107   C     0.62393   0.16666   0.25000   0.00000  Uiso   1.00
C108   C     0.37607   0.16666   0.25000   0.00000  Uiso   1.00
Cu109  Cu    0.50000   0.21355   0.25000   0.00000  Uiso   1.00
Cu110  Cu    0.50000   0.11978   0.25000   0.00000  Uiso   1.00
H111   H     0.46011   0.04350   0.19455   0.00000  Uiso   1.00
H112   H     0.53941   0.28991   0.30574   0.00000  Uiso   1.00
H113   H     0.53989   0.04349   0.30545   0.00000  Uiso   1.00
H114   H     0.46059   0.28991   0.19426   0.00000  Uiso   1.00
H115   H     0.46072   0.22761   0.02899   0.00000  Uiso   1.00
H116   H     0.46153   0.10563   0.47098   0.00000  Uiso   1.00
H117   H     0.53935   0.22757   0.47100   0.00000  Uiso   1.00
H118   H     0.53844   0.10559   0.02902   0.00000  Uiso   1.00
H119   H     0.37061   0.09081   0.24940   0.00000  Uiso   1.00
H120   H     0.62939   0.24251   0.24940   0.00000  Uiso   1.00
H121   H     0.62939   0.09081   0.25054   0.00000  Uiso   1.00
H122   H     0.37061   0.24251   0.25066   0.00000  Uiso   1.00
N123   N     0.50000   0.28402   0.25000   0.00000  Uiso   1.00
N124   N     0.50000   0.04931   0.25000   0.00000  Uiso   1.00
O125   O     0.43988   0.20625   0.24999   0.00000  Uiso   1.00
O126   O     0.56012   0.12709   0.25000   0.00000  Uiso   1.00
O127   O     0.56012   0.20625   0.25000   0.00000  Uiso   1.00
O128   O     0.43988   0.12709   0.24999   0.00000  Uiso   1.00
O129   O     0.50000   0.20626   0.18573   0.00000  Uiso   1.00
O130   O     0.50000   0.12707   0.31427   0.00000  Uiso   1.00
O131   O     0.50000   0.20626   0.31427   0.00000  Uiso   1.00
O132   O     0.50000   0.12707   0.18573   0.00000  Uiso   1.00
O133   O     0.45224   0.23268   0.11516   0.00000  Uiso   1.00
C134   C     0.41216   0.21388   0.11927   0.00000  Uiso   1.00
H135   H     0.41244   0.18213   0.14074   0.00000  Uiso   1.00
H136   H     0.39902   0.20465   0.08626   0.00000  Uiso   1.00
C137   C     0.38401   0.25008   0.14041   0.00000  Uiso   1.00
H138   H     0.38298   0.28223   0.11972   0.00000  Uiso   1.00
H139   H     0.35238   0.23562   0.14341   0.00000  Uiso   1.00
H140   H     0.39537   0.25924   0.17395   0.00000  Uiso   1.00
O141   O     0.45599   0.09784   0.38483   0.00000  Uiso   1.00
C142   C     0.41536   0.11370   0.37762   0.00000  Uiso   1.00
H143   H     0.41508   0.14606   0.35696   0.00000  Uiso   1.00
H144   H     0.39950   0.12078   0.40965   0.00000  Uiso   1.00
C145   C     0.39138   0.07596   0.35311   0.00000  Uiso   1.00
H146   H     0.38977   0.04367   0.37356   0.00000  Uiso   1.00
H147   H     0.35961   0.08841   0.34625   0.00000  Uiso   1.00
H148   H     0.40681   0.06767   0.32125   0.00000  Uiso   1.00
O149   O     0.54781   0.23264   0.38483   0.00000  Uiso   1.00
C150   C     0.58786   0.21377   0.38062   0.00000  Uiso   1.00
H151   H     0.58750   0.18210   0.35903   0.00000  Uiso   1.00
H152   H     0.60100   0.20435   0.41359   0.00000  Uiso   1.00
C153   C     0.61606   0.24999   0.35960   0.00000  Uiso   1.00
H154   H     0.61719   0.28203   0.38044   0.00000  Uiso   1.00
H155   H     0.64765   0.23545   0.35649   0.00000  Uiso   1.00
H156   H     0.60467   0.25935   0.32612   0.00000  Uiso   1.00
O157   O     0.54396   0.09779   0.11518   0.00000  Uiso   1.00
C158   C     0.58461   0.11359   0.12239   0.00000  Uiso   1.00
H159   H     0.58492   0.14597   0.14303   0.00000  Uiso   1.00
H160   H     0.60048   0.12064   0.09036   0.00000  Uiso   1.00
C161   C     0.60853   0.07584   0.14692   0.00000  Uiso   1.00
H162   H     0.61011   0.04353   0.12649   0.00000  Uiso   1.00
H163   H     0.64032   0.08824   0.15378   0.00000  Uiso   1.00
H164   H     0.59309   0.06758   0.17878   0.00000  Uiso   1.00
C165   C     0.75402   0.16667   0.24999   0.00000  Uiso   1.00
C166   C     0.91265   0.16667   0.25001   0.00000  Uiso   1.00
C167   C     0.83305   0.16664   0.16495   0.00000  Uiso   1.00
C168   C     0.83361   0.16664   0.33505   0.00000  Uiso   1.00
C169   C     0.81122   0.02482   0.21919   0.00000  Uiso   1.00
C170   C     0.85531   0.30855   0.28089   0.00000  Uiso   1.00
C171   C     0.85544   0.02481   0.28081   0.00000  Uiso   1.00
C172   C     0.81136   0.30855   0.21911   0.00000  Uiso   1.00
C173   C     0.68795   0.12410   0.24976   0.00000  Uiso   1.00
C174   C     0.97872   0.20922   0.24978   0.00000  Uiso   1.00
C175   C     0.97872   0.12410   0.25021   0.00000  Uiso   1.00
C176   C     0.68795   0.20922   0.25025   0.00000  Uiso   1.00
C177   C     0.81124   0.20118   0.04697   0.00000  Uiso   1.00
C178   C     0.81172   0.13232   0.45301   0.00000  Uiso   1.00
C179   C     0.85547   0.20116   0.45302   0.00000  Uiso   1.00
C180   C     0.85494   0.13230   0.04699   0.00000  Uiso   1.00
C181   C     0.80979   0.20035   0.09315   0.00000  Uiso   1.00
C182   C     0.81094   0.13247   0.40684   0.00000  Uiso   1.00
C183   C     0.85691   0.20033   0.40684   0.00000  Uiso   1.00
C184   C     0.85571   0.13245   0.09316   0.00000  Uiso   1.00
C185   C     0.83291   0.16654   0.11654   0.00000  Uiso   1.00
C186   C     0.83376   0.16654   0.38346   0.00000  Uiso   1.00
C187   C     0.83335   0.16698   0.02407   0.00000  Uiso   1.00
C188   C     0.83333   0.16697   0.47592   0.00000  Uiso   1.00
C189   C     0.95726   0.16666   0.25000   0.00000  Uiso   1.00
C190   C     0.70941   0.16666   0.25000   0.00000  Uiso   1.00
Cu191  Cu    0.83333   0.21355   0.25000   0.00000  Uiso   1.00
Cu192  Cu    0.83333   0.11978   0.25000   0.00000  Uiso   1.00
H193   H     0.79345   0.04350   0.19455   0.00000  Uiso   1.00
H194   H     0.87275   0.28991   0.30574   0.00000  Uiso   1.00
H195   H     0.87322   0.04349   0.30545   0.00000  Uiso   1.00
H196   H     0.79392   0.28991   0.19426   0.00000  Uiso   1.00
H197   H     0.79405   0.22761   0.02899   0.00000  Uiso   1.00
H198   H     0.79486   0.10563   0.47098   0.00000  Uiso   1.00
H199   H     0.87268   0.22757   0.47100   0.00000  Uiso   1.00
H200   H     0.87177   0.10559   0.02902   0.00000  Uiso   1.00
H201   H     0.70395   0.09081   0.24940   0.00000  Uiso   1.00
H202   H     0.96272   0.24251   0.24940   0.00000  Uiso   1.00
H203   H     0.96272   0.09081   0.25054   0.00000  Uiso   1.00
H204   H     0.70394   0.24251   0.25066   0.00000  Uiso   1.00
N205   N     0.83333   0.28402   0.25000   0.00000  Uiso   1.00
N206   N     0.83333   0.04931   0.25000   0.00000  Uiso   1.00
O207   O     0.77321   0.20625   0.24999   0.00000  Uiso   1.00
O208   O     0.89345   0.12709   0.25000   0.00000  Uiso   1.00
O209   O     0.89345   0.20625   0.25000   0.00000  Uiso   1.00
O210   O     0.77321   0.12709   0.24999   0.00000  Uiso   1.00
O211   O     0.83333   0.20626   0.18573   0.00000  Uiso   1.00
O212   O     0.83334   0.12707   0.31427   0.00000  Uiso   1.00
O213   O     0.83334   0.20626   0.31427   0.00000  Uiso   1.00
O214   O     0.83333   0.12707   0.18573   0.00000  Uiso   1.00
O215   O     0.78558   0.23268   0.11516   0.00000  Uiso   1.00
C216   C     0.74550   0.21388   0.11927   0.00000  Uiso   1.00
H217   H     0.74578   0.18213   0.14074   0.00000  Uiso   1.00
H218   H     0.73236   0.20465   0.08626   0.00000  Uiso   1.00
C219   C     0.71734   0.25008   0.14041   0.00000  Uiso   1.00
H220   H     0.71631   0.28223   0.11972   0.00000  Uiso   1.00
H221   H     0.68572   0.23562   0.14341   0.00000  Uiso   1.00
H222   H     0.72871   0.25924   0.17395   0.00000  Uiso   1.00
O223   O     0.78932   0.09784   0.38483   0.00000  Uiso   1.00
C224   C     0.74869   0.11370   0.37762   0.00000  Uiso   1.00
H225   H     0.74841   0.14606   0.35696   0.00000  Uiso   1.00
H226   H     0.73283   0.12078   0.40965   0.00000  Uiso   1.00
C227   C     0.72472   0.07596   0.35311   0.00000  Uiso   1.00
H228   H     0.72311   0.04367   0.37356   0.00000  Uiso   1.00
H229   H     0.69294   0.08841   0.34625   0.00000  Uiso   1.00
H230   H     0.74015   0.06767   0.32125   0.00000  Uiso   1.00
O231   O     0.88115   0.23264   0.38483   0.00000  Uiso   1.00
C232   C     0.92119   0.21377   0.38062   0.00000  Uiso   1.00
H233   H     0.92083   0.18210   0.35903   0.00000  Uiso   1.00
H234   H     0.93434   0.20435   0.41359   0.00000  Uiso   1.00
C235   C     0.94940   0.24999   0.35960   0.00000  Uiso   1.00
H236   H     0.95052   0.28203   0.38044   0.00000  Uiso   1.00
H237   H     0.98098   0.23545   0.35649   0.00000  Uiso   1.00
H238   H     0.93801   0.25935   0.32612   0.00000  Uiso   1.00
O239   O     0.87730   0.09779   0.11518   0.00000  Uiso   1.00
C240   C     0.91794   0.11359   0.12239   0.00000  Uiso   1.00
H241   H     0.91825   0.14597   0.14303   0.00000  Uiso   1.00
H242   H     0.93381   0.12064   0.09036   0.00000  Uiso   1.00
C243   C     0.94187   0.07584   0.14692   0.00000  Uiso   1.00
H244   H     0.94344   0.04353   0.12649   0.00000  Uiso   1.00
H245   H     0.97365   0.08824   0.15378   0.00000  Uiso   1.00
H246   H     0.92642   0.06758   0.17878   0.00000  Uiso   1.00
C247   C     0.08735   0.50000   0.24999   0.00000  Uiso   1.00
C248   C     0.24598   0.50000   0.25001   0.00000  Uiso   1.00
C249   C     0.16639   0.49997   0.16495   0.00000  Uiso   1.00
C250   C     0.16695   0.49997   0.33505   0.00000  Uiso   1.00
C251   C     0.14456   0.35815   0.21919   0.00000  Uiso   1.00
C252   C     0.18864   0.64188   0.28089   0.00000  Uiso   1.00
C253   C     0.18878   0.35815   0.28081   0.00000  Uiso   1.00
C254   C     0.14469   0.64188   0.21911   0.00000  Uiso   1.00
C255   C     0.02128   0.45743   0.24976   0.00000  Uiso   1.00
C256   C     0.31205   0.54255   0.24978   0.00000  Uiso   1.00
C257   C     0.31205   0.45743   0.25021   0.00000  Uiso   1.00
C258   C     0.02128   0.54255   0.25025   0.00000  Uiso   1.00
C259   C     0.14457   0.53452   0.04697   0.00000  Uiso   1.00
C260   C     0.14505   0.46565   0.45301   0.00000  Uiso   1.00
C261   C     0.18880   0.53449   0.45302   0.00000  Uiso   1.00
C262   C     0.18827   0.46563   0.04699   0.00000  Uiso   1.00
C263   C     0.14312   0.53369   0.09315   0.00000  Uiso   1.00
C264   C     0.14427   0.46581   0.40684   0.00000  Uiso   1.00
C265   C     0.19025   0.53366   0.40684   0.00000  Uiso   1.00
C266   C     0.18905   0.46579   0.09316   0.00000  Uiso   1.00
C267   C     0.16625   0.49987   0.11654   0.00000  Uiso   1.00
C268   C     0.16709   0.49987   0.38346   0.00000  Uiso   1.00
C269   C     0.16668   0.50031   0.02407   0.00000  Uiso   1.00
C270   C     0.16667   0.50031   0.47592   0.00000  Uiso   1.00
C271   C     0.29059   0.49999   0.25000   0.00000  Uiso   1.00
C272   C     0.04274   0.49999   0.25000   0.00000  Uiso   1.00
Cu273  Cu    0.16667   0.54689   0.25000   0.00000  Uiso   1.00
Cu274  Cu    0.16667   0.45311   0.25000   0.00000  Uiso   1.00
H275   H     0.12678   0.37683   0.19455   0.00000  Uiso   1.00
H276   H     0.20608   0.62324   0.30574   0.00000  Uiso   1.00
H277   H     0.20656   0.37682   0.30545   0.00000  Uiso   1.00
H278   H     0.12726   0.62324   0.19426   0.00000  Uiso   1.00
H279   H     0.12739   0.56095   0.02899   0.00000  Uiso   1.00
H280   H     0.12820   0.43896   0.47098   0.00000  Uiso   1.00
H281   H     0.20601   0.56090   0.47100   0.00000  Uiso   1.00
H282   H     0.20511   0.43893   0.02902   0.00000  Uiso   1.00
H283   H     0.03728   0.42414   0.24940   0.00000  Uiso   1.00
H284   H     0.29606   0.57584   0.24940   0.00000  Uiso   1.00
H285   H     0.29606   0.42414   0.25054   0.00000  Uiso   1.00
H286   H     0.03728   0.57584   0.25066   0.00000  Uiso   1.00
N287   N     0.16667   0.61736   0.25000   0.00000  Uiso   1.00
N288   N     0.16667   0.38264   0.25000   0.00000  Uiso   1.00
O289   O     0.10655   0.53958   0.24999   0.00000  Uiso   1.00
O290   O     0.22679   0.46042   0.25000   0.00000  Uiso   1.00
O291   O     0.22679   0.53958   0.25000   0.00000  Uiso   1.00
O292   O     0.10655   0.46042   0.24999   0.00000  Uiso   1.00
O293   O     0.16666   0.53959   0.18573   0.00000  Uiso   1.00
O294   O     0.16667   0.46041   0.31427   0.00000  Uiso   1.00
O295   O     0.16667   0.53959   0.31427   0.00000  Uiso   1.00
O296   O     0.16666   0.46041   0.18573   0.00000  Uiso   1.00
O297   O     0.11891   0.56601   0.11516   0.00000  Uiso   1.00
C298   C     0.07883   0.54722   0.11927   0.00000  Uiso   1.00
H299   H     0.07911   0.51546   0.14074   0.00000  Uiso   1.00
H300   H     0.06569   0.53798   0.08626   0.00000  Uiso   1.00
C301   C     0.05067   0.58342   0.14041   0.00000  Uiso   1.00
H302   H     0.04965   0.61557   0.11972   0.00000  Uiso   1.00
H303   H     0.01905   0.56895   0.14341   0.00000  Uiso   1.00
H304   H     0.06204   0.59258   0.17395   0.00000  Uiso   1.00
O305   O     0.12265   0.43117   0.38483   0.00000  Uiso   1.00
C306   C     0.08202   0.44703   0.37762   0.00000  Uiso   1.00
H307   H     0.08174   0.47940   0.35696   0.00000  Uiso   1.00
H308   H     0.06617   0.45412   0.40965   0.00000  Uiso   1.00
C309   C     0.05805   0.40929   0.35311   0.00000  Uiso   1.00
H310   H     0.05644   0.37700   0.37356   0.00000  Uiso   1.00
H311   H     0.02628   0.42175   0.34625   0.00000  Uiso   1.00
H312   H     0.07348   0.40100   0.32125   0.00000  Uiso   1.00
O313   O     0.21448   0.56597   0.38483   0.00000  Uiso   1.00
C314   C     0.25452   0.54710   0.38062   0.00000  Uiso   1.00
H315   H     0.25417   0.51543   0.35903   0.00000  Uiso   1.00
H316   H     0.26767   0.53769   0.41359   0.00000  Uiso   1.00
C317   C     0.28273   0.58332   0.35960   0.00000  Uiso   1.00
H318   H     0.28386   0.61536   0.38044   0.00000  Uiso   1.00
H319   H     0.31432   0.56878   0.35649   0.00000  Uiso   1.00
H320   H     0.27134   0.59269   0.32612   0.00000  Uiso   1.00
O321   O     0.21063   0.43113   0.11518   0.00000  Uiso   1.00
C322   C     0.25127   0.44693   0.12239   0.00000  Uiso   1.00
H323   H     0.25159   0.47930   0.14303   0.00000  Uiso   1.00
H324   H     0.26714   0.45397   0.09036   0.00000  Uiso   1.00
C325   C     0.27520   0.40917   0.14692   0.00000  Uiso   1.00
H326   H     0.27677   0.37686   0.12649   0.00000  Uiso   1.00
H327   H     0.30699   0.42158   0.15378   0.00000  Uiso   1.00
H328   H     0.25976   0.40091   0.17878   0.00000  Uiso   1.00
C329   C     0.42068   0.50000   0.24999   0.00000  Uiso   1.00
C330   C     0.57932   0.50000   0.25001   0.00000  Uiso   1.00
C331   C     0.49972   0.49997   0.16495   0.00000  Uiso   1.00
C332   C     0.50028   0.49997   0.33505   0.00000  Uiso   1.00
C333   C     0.47789   0.35815   0.21919   0.00000  Uiso   1.00
C334   C     0.52198   0.64188   0.28089   0.00000  Uiso   1.00
C335   C     0.52211   0.35815   0.28081   0.00000  Uiso   1.00
C336   C     0.47802   0.64188   0.21911   0.00000  Uiso   1.00
C337   C     0.35462   0.45743   0.24976   0.00000  Uiso   1.00
C338   C     0.64538   0.54255   0.24978   0.00000  Uiso   1.00
C339   C     0.64538   0.45743   0.25021   0.00000  Uiso   1.00
C340   C     0.35462   0.54255   0.25025   0.00000  Uiso   1.00
C341   C     0.47791   0.53452   0.04697   0.00000  Uiso   1.00
C342   C     0.47838   0.46565   0.45301   0.00000  Uiso   1.00
C343   C     0.52213   0.53449   0.45302   0.00000  Uiso   1.00
C344   C     0.52161   0.46563   0.04699   0.00000  Uiso   1.00
C345   C     0.47646   0.53369   0.09315   0.00000  Uiso   1.00
C346   C     0.47760   0.46581   0.40684   0.00000  Uiso   1.00
C347   C     0.52358   0.53366   0.40684   0.00000  Uiso   1.00
C348   C     0.52238   0.46579   0.09316   0.00000  Uiso   1.00
C349   C     0.49958   0.49987   0.11654   0.00000  Uiso   1.00
C350   C     0.50043   0.49987   0.38346   0.00000  Uiso   1.00
C351   C     0.50002   0.50031   0.02407   0.00000  Uiso   1.00
C352   C     0.50000   0.50031   0.47592   0.00000  Uiso   1.00
C353   C     0.62393   0.49999   0.25000   0.00000  Uiso   1.00
C354   C     0.37607   0.49999   0.25000   0.00000  Uiso   1.00
Cu355  Cu    0.50000   0.54689   0.25000   0.00000  Uiso   1.00
Cu356  Cu    0.50000   0.45311   0.25000   0.00000  Uiso   1.00
H357   H     0.46011   0.37683   0.19455   0.00000  Uiso   1.00
H358   H     0.53941   0.62324   0.30574   0.00000  Uiso   1.00
H359   H     0.53989   0.37682   0.30545   0.00000  Uiso   1.00
H360   H     0.46059   0.62324   0.19426   0.00000  Uiso   1.00
H361   H     0.46072   0.56095   0.02899   0.00000  Uiso   1.00
H362   H     0.46153   0.43896   0.47098   0.00000  Uiso   1.00
H363   H     0.53935   0.56090   0.47100   0.00000  Uiso   1.00
H364   H     0.53844   0.43893   0.02902   0.00000  Uiso   1.00
H365   H     0.37061   0.42414   0.24940   0.00000  Uiso   1.00
H366   H     0.62939   0.57584   0.24940   0.00000  Uiso   1.00
H367   H     0.62939   0.42414   0.25054   0.00000  Uiso   1.00
H368   H     0.37061   0.57584   0.25066   0.00000  Uiso   1.00
N369   N     0.50000   0.61736   0.25000   0.00000  Uiso   1.00
N370   N     0.50000   0.38264   0.25000   0.00000  Uiso   1.00
O371   O     0.43988   0.53958   0.24999   0.00000  Uiso   1.00
O372   O     0.56012   0.46042   0.25000   0.00000  Uiso   1.00
O373   O     0.56012   0.53958   0.25000   0.00000  Uiso   1.00
O374   O     0.43988   0.46042   0.24999   0.00000  Uiso   1.00
O375   O     0.50000   0.53959   0.18573   0.00000  Uiso   1.00
O376   O     0.50000   0.46041   0.31427   0.00000  Uiso   1.00
O377   O     0.50000   0.53959   0.31427   0.00000  Uiso   1.00
O378   O     0.50000   0.46041   0.18573   0.00000  Uiso   1.00
O379   O     0.45224   0.56601   0.11516   0.00000  Uiso   1.00
C380   C     0.41216   0.54722   0.11927   0.00000  Uiso   1.00
H381   H     0.41244   0.51546   0.14074   0.00000  Uiso   1.00
H382   H     0.39902   0.53798   0.08626   0.00000  Uiso   1.00
C383   C     0.38401   0.58342   0.14041   0.00000  Uiso   1.00
H384   H     0.38298   0.61557   0.11972   0.00000  Uiso   1.00
H385   H     0.35238   0.56895   0.14341   0.00000  Uiso   1.00
H386   H     0.39537   0.59258   0.17395   0.00000  Uiso   1.00
O387   O     0.45599   0.43117   0.38483   0.00000  Uiso   1.00
C388   C     0.41536   0.44703   0.37762   0.00000  Uiso   1.00
H389   H     0.41508   0.47940   0.35696   0.00000  Uiso   1.00
H390   H     0.39950   0.45412   0.40965   0.00000  Uiso   1.00
C391   C     0.39138   0.40929   0.35311   0.00000  Uiso   1.00
H392   H     0.38977   0.37700   0.37356   0.00000  Uiso   1.00
H393   H     0.35961   0.42175   0.34625   0.00000  Uiso   1.00
H394   H     0.40681   0.40100   0.32125   0.00000  Uiso   1.00
O395   O     0.54781   0.56597   0.38483   0.00000  Uiso   1.00
C396   C     0.58786   0.54710   0.38062   0.00000  Uiso   1.00
H397   H     0.58750   0.51543   0.35903   0.00000  Uiso   1.00
H398   H     0.60100   0.53769   0.41359   0.00000  Uiso   1.00
C399   C     0.61606   0.58332   0.35960   0.00000  Uiso   1.00
H400   H     0.61719   0.61536   0.38044   0.00000  Uiso   1.00
H401   H     0.64765   0.56878   0.35649   0.00000  Uiso   1.00
H402   H     0.60467   0.59269   0.32612   0.00000  Uiso   1.00
O403   O     0.54396   0.43113   0.11518   0.00000  Uiso   1.00
C404   C     0.58461   0.44693   0.12239   0.00000  Uiso   1.00
H405   H     0.58492   0.47930   0.14303   0.00000  Uiso   1.00
H406   H     0.60048   0.45397   0.09036   0.00000  Uiso   1.00
C407   C     0.60853   0.40917   0.14692   0.00000  Uiso   1.00
H408   H     0.61011   0.37686   0.12649   0.00000  Uiso   1.00
H409   H     0.64032   0.42158   0.15378   0.00000  Uiso   1.00
H410   H     0.59309   0.40091   0.17878   0.00000  Uiso   1.00
C411   C     0.75402   0.50000   0.24999   0.00000  Uiso   1.00
C412   C     0.91265   0.50000   0.25001   0.00000  Uiso   1.00
C413   C     0.83305   0.49997   0.16495   0.00000  Uiso   1.00
C414   C     0.83361   0.49997   0.33505   0.00000  Uiso   1.00
C415   C     0.81122   0.35815   0.21919   0.00000  Uiso   1.00
C416   C     0.85531   0.64188   0.28089   0.00000  Uiso   1.00
C417   C     0.85544   0.35815   0.28081   0.00000  Uiso   1.00
C418   C     0.81136   0.64188   0.21911   0.00000  Uiso   1.00
C419   C     0.68795   0.45743   0.24976   0.00000  Uiso   1.00
C420   C     0.97872   0.54255   0.24978   0.00000  Uiso   1.00
C421   C     0.97872   0.45743   0.25021   0.00000  Uiso   1.00
C422   C     0.68795   0.54255   0.25025   0.00000  Uiso   1.00
C423   C     0.81124   0.53452   0.04697   0.00000  Uiso   1.00
C424   C     0.81172   0.46565   0.45301   0.00000  Uiso   1.00
C425   C     0.85547   0.53449   0.45302   0.00000  Uiso   1.00
C426   C     0.85494   0.46563   0.04699   0.00000  Uiso   1.00
C427   C     0.80979   0.53369   0.09315   0.00000  Uiso   1.00
C428   C     0.81094   0.46581   0.40684   0.00000  Uiso   1.00
C429   C     0.85691   0.53366   0.40684   0.00000  Uiso   1.00
C430   C     0.85571   0.46579   0.09316   0.00000  Uiso   1.00
C431   C     0.83291   0.49987   0.11654   0.00000  Uiso   1.00
C432   C     0.83376   0.49987   0.38346   0.00000  Uiso   1.00
C433   C     0.83335   0.50031   0.02407   0.00000  Uiso   1.00
C434   C     0.83333   0.50031   0.47592   0.00000  Uiso   1.00
C435   C     0.95726   0.49999   0.25000   0.00000  Uiso   1.00
C436   C     0.70941   0.49999   0.25000   0.00000  Uiso   1.00
Cu437  Cu    0.83333   0.54689   0.25000   0.00000  Uiso   1.00
Cu438  Cu    0.83333   0.45311   0.25000   0.00000  Uiso   1.00
H439   H     0.79345   0.37683   0.19455   0.00000  Uiso   1.00
H440   H     0.87275   0.62324   0.30574   0.00000  Uiso   1.00
H441   H     0.87322   0.37682   0.30545   0.00000  Uiso   1.00
H442   H     0.79392   0.62324   0.19426   0.00000  Uiso   1.00
H443   H     0.79405   0.56095   0.02899   0.00000  Uiso   1.00
H444   H     0.79486   0.43896   0.47098   0.00000  Uiso   1.00
H445   H     0.87268   0.56090   0.47100   0.00000  Uiso   1.00
H446   H     0.87177   0.43893   0.02902   0.00000  Uiso   1.00
H447   H     0.70395   0.42414   0.24940   0.00000  Uiso   1.00
H448   H     0.96272   0.57584   0.24940   0.00000  Uiso   1.00
H449   H     0.96272   0.42414   0.25054   0.00000  Uiso   1.00
H450   H     0.70394   0.57584   0.25066   0.00000  Uiso   1.00
N451   N     0.83333   0.61736   0.25000   0.00000  Uiso   1.00
N452   N     0.83333   0.38264   0.25000   0.00000  Uiso   1.00
O453   O     0.77321   0.53958   0.24999   0.00000  Uiso   1.00
O454   O     0.89345   0.46042   0.25000   0.00000  Uiso   1.00
O455   O     0.89345   0.53958   0.25000   0.00000  Uiso   1.00
O456   O     0.77321   0.46042   0.24999   0.00000  Uiso   1.00
O457   O     0.83333   0.53959   0.18573   0.00000  Uiso   1.00
O458   O     0.83334   0.46041   0.31427   0.00000  Uiso   1.00
O459   O     0.83334   0.53959   0.31427   0.00000  Uiso   1.00
O460   O     0.83333   0.46041   0.18573   0.00000  Uiso   1.00
O461   O     0.78558   0.56601   0.11516   0.00000  Uiso   1.00
C462   C     0.74550   0.54722   0.11927   0.00000  Uiso   1.00
H463   H     0.74578   0.51546   0.14074   0.00000  Uiso   1.00
H464   H     0.73236   0.53798   0.08626   0.00000  Uiso   1.00
C465   C     0.71734   0.58342   0.14041   0.00000  Uiso   1.00
H466   H     0.71631   0.61557   0.11972   0.00000  Uiso   1.00
H467   H     0.68572   0.56895   0.14341   0.00000  Uiso   1.00
H468   H     0.72871   0.59258   0.17395   0.00000  Uiso   1.00
O469   O     0.78932   0.43117   0.38483   0.00000  Uiso   1.00
C470   C     0.74869   0.44703   0.37762   0.00000  Uiso   1.00
H471   H     0.74841   0.47940   0.35696   0.00000  Uiso   1.00
H472   H     0.73283   0.45412   0.40965   0.00000  Uiso   1.00
C473   C     0.72472   0.40929   0.35311   0.00000  Uiso   1.00
H474   H     0.72311   0.37700   0.37356   0.00000  Uiso   1.00
H475   H     0.69294   0.42175   0.34625   0.00000  Uiso   1.00
H476   H     0.74015   0.40100   0.32125   0.00000  Uiso   1.00
O477   O     0.88115   0.56597   0.38483   0.00000  Uiso   1.00
C478   C     0.92119   0.54710   0.38062   0.00000  Uiso   1.00
H479   H     0.92083   0.51543   0.35903   0.00000  Uiso   1.00
H480   H     0.93434   0.53769   0.41359   0.00000  Uiso   1.00
C481   C     0.94940   0.58332   0.35960   0.00000  Uiso   1.00
H482   H     0.95052   0.61536   0.38044   0.00000  Uiso   1.00
H483   H     0.98098   0.56878   0.35649   0.00000  Uiso   1.00
H484   H     0.93801   0.59269   0.32612   0.00000  Uiso   1.00
O485   O     0.87730   0.43113   0.11518   0.00000  Uiso   1.00
C486   C     0.91794   0.44693   0.12239   0.00000  Uiso   1.00
H487   H     0.91825   0.47930   0.14303   0.00000  Uiso   1.00
H488   H     0.93381   0.45397   0.09036   0.00000  Uiso   1.00
C489   C     0.94187   0.40917   0.14692   0.00000  Uiso   1.00
H490   H     0.94344   0.37686   0.12649   0.00000  Uiso   1.00
H491   H     0.97365   0.42158   0.15378   0.00000  Uiso   1.00
H492   H     0.92642   0.40091   0.17878   0.00000  Uiso   1.00
C493   C     0.08735   0.83333   0.24999   0.00000  Uiso   1.00
C494   C     0.24598   0.83333   0.25001   0.00000  Uiso   1.00
C495   C     0.16639   0.83331   0.16495   0.00000  Uiso   1.00
C496   C     0.16695   0.83331   0.33505   0.00000  Uiso   1.00
C497   C     0.14456   0.69148   0.21919   0.00000  Uiso   1.00
C498   C     0.18864   0.97522   0.28089   0.00000  Uiso   1.00
C499   C     0.18878   0.69148   0.28081   0.00000  Uiso   1.00
C500   C     0.14469   0.97522   0.21911   0.00000  Uiso   1.00
C501   C     0.02128   0.79077   0.24976   0.00000  Uiso   1.00
C502   C     0.31205   0.87589   0.24978   0.00000  Uiso   1.00
C503   C     0.31205   0.79077   0.25021   0.00000  Uiso   1.00
C504   C     0.02128   0.87589   0.25025   0.00000  Uiso   1.00
C505   C     0.14457   0.86785   0.04697   0.00000  Uiso   1.00
C506   C     0.14505   0.79898   0.45301   0.00000  Uiso   1.00
C507   C     0.18880   0.86782   0.45302   0.00000  Uiso   1.00
C508   C     0.18827   0.79896   0.04699   0.00000  Uiso   1.00
C509   C     0.14312   0.86702   0.09315   0.00000  Uiso   1.00
C510   C     0.14427   0.79914   0.40684   0.00000  Uiso   1.00
C511   C     0.19025   0.86700   0.40684   0.00000  Uiso   1.00
C512   C     0.18905   0.79912   0.09316   0.00000  Uiso   1.00
C513   C     0.16625   0.83321   0.11654   0.00000  Uiso   1.00
C514   C     0.16709   0.83320   0.38346   0.00000  Uiso   1.00
C515   C     0.16668   0.83364   0.02407   0.00000  Uiso   1.00
C516   C     0.16667   0.83364   0.47592   0.00000  Uiso   1.00
C517   C     0.29059   0.83333   0.25000   0.00000  Uiso   1.00
C518   C     0.04274   0.83333   0.25000   0.00000  Uiso   1.00
Cu519  Cu    0.16667   0.88022   0.25000   0.00000  Uiso   1.00
Cu520  Cu    0.16667   0.78645   0.25000   0.00000  Uiso   1.00
H521   H     0.12678   0.71016   0.19455   0.00000  Uiso   1.00
H522   H     0.20608   0.95657   0.30574   0.00000  Uiso   1.00
H523   H     0.20656   0.71016   0.30545   0.00000  Uiso   1.00
H524   H     0.12726   0.95658   0.19426   0.00000  Uiso   1.00
H525   H     0.12739   0.89428   0.02899   0.00000  Uiso   1.00
H526   H     0.12820   0.77230   0.47098   0.00000  Uiso   1.00
H527   H     0.20601   0.89424   0.47100   0.00000  Uiso   1.00
H528   H     0.20511   0.77226   0.02902   0.00000  Uiso   1.00
H529   H     0.03728   0.75748   0.24940   0.00000  Uiso   1.00
H530   H     0.29606   0.90918   0.24940   0.00000  Uiso   1.00
H531   H     0.29606   0.75748   0.25054   0.00000  Uiso   1.00
H532   H     0.03728   0.90918   0.25066   0.00000  Uiso   1.00
N533   N     0.16667   0.95069   0.25000   0.00000  Uiso   1.00
N534   N     0.16667   0.71598   0.25000   0.00000  Uiso   1.00
O535   O     0.10655   0.87291   0.24999   0.00000  Uiso   1.00
O536   O     0.22679   0.79375   0.25000   0.00000  Uiso   1.00
O537   O     0.22679   0.87291   0.25000   0.00000  Uiso   1.00
O538   O     0.10655   0.79375   0.24999   0.00000  Uiso   1.00
O539   O     0.16666   0.87293   0.18573   0.00000  Uiso   1.00
O540   O     0.16667   0.79374   0.31427   0.00000  Uiso   1.00
O541   O     0.16667   0.87293   0.31427   0.00000  Uiso   1.00
O542   O     0.16666   0.79374   0.18573   0.00000  Uiso   1.00
O543   O     0.11891   0.89935   0.11516   0.00000  Uiso   1.00
C544   C     0.07883   0.88055   0.11927   0.00000  Uiso   1.00
H545   H     0.07911   0.84879   0.14074   0.00000  Uiso   1.00
H546   H     0.06569   0.87132   0.08626   0.00000  Uiso   1.00
C547   C     0.05067   0.91675   0.14041   0.00000  Uiso   1.00
H548   H     0.04965   0.94890   0.11972   0.00000  Uiso   1.00
H549   H     0.01905   0.90228   0.14341   0.00000  Uiso   1.00
H550   H     0.06204   0.92591   0.17395   0.00000  Uiso   1.00
O551   O     0.12265   0.76451   0.38483   0.00000  Uiso   1.00
C552   C     0.08202   0.78036   0.37762   0.00000  Uiso   1.00
H553   H     0.08174   0.81273   0.35696   0.00000  Uiso   1.00
H554   H     0.06617   0.78745   0.40965   0.00000  Uiso   1.00
C555   C     0.05805   0.74263   0.35311   0.00000  Uiso   1.00
H556   H     0.05644   0.71034   0.37356   0.00000  Uiso   1.00
H557   H     0.02628   0.75508   0.34625   0.00000  Uiso   1.00
H558   H     0.07348   0.73433   0.32125   0.00000  Uiso   1.00
O559   O     0.21448   0.89931   0.38483   0.00000  Uiso   1.00
C560   C     0.25452   0.88043   0.38062   0.00000  Uiso   1.00
H561   H     0.25417   0.84877   0.35903   0.00000  Uiso   1.00
H562   H     0.26767   0.87102   0.41359   0.00000  Uiso   1.00
C563   C     0.28273   0.91666   0.35960   0.00000  Uiso   1.00
H564   H     0.28386   0.94870   0.38044   0.00000  Uiso   1.00
H565   H     0.31432   0.90211   0.35649   0.00000  Uiso   1.00
H566   H     0.27134   0.92602   0.32612   0.00000  Uiso   1.00
O567   O     0.21063   0.76446   0.11518   0.00000  Uiso   1.00
C568   C     0.25127   0.78026   0.12239   0.00000  Uiso   1.00
H569   H     0.25159   0.81264   0.14303   0.00000  Uiso   1.00
H570   H     0.26714   0.78731   0.09036   0.00000  Uiso   1.00
C571   C     0.27520   0.74250   0.14692   0.00000  Uiso   1.00
H572   H     0.27677   0.71020   0.12649   0.00000  Uiso   1.00
H573   H     0.30699   0.75491   0.15378   0.00000  Uiso   1.00
H574   H     0.25976   0.73425   0.17878   0.00000  Uiso   1.00
C575   C     0.42068   0.83333   0.24999   0.00000  Uiso   1.00
C576   C     0.57932   0.83333   0.25001   0.00000  Uiso   1.00
C577   C     0.49972   0.83331   0.16495   0.00000  Uiso   1.00
C578   C     0.50028   0.83331   0.33505   0.00000  Uiso   1.00
C579   C     0.47789   0.69148   0.21919   0.00000  Uiso   1.00
C580   C     0.52198   0.97522   0.28089   0.00000  Uiso   1.00
C581   C     0.52211   0.69148   0.28081   0.00000  Uiso   1.00
C582   C     0.47802   0.97522   0.21911   0.00000  Uiso   1.00
C583   C     0.35462   0.79077   0.24976   0.00000  Uiso   1.00
C584   C     0.64538   0.87589   0.24978   0.00000  Uiso   1.00
C585   C     0.64538   0.79077   0.25021   0.00000  Uiso   1.00
C586   C     0.35462   0.87589   0.25025   0.00000  Uiso   1.00
C587   C     0.47791   0.86785   0.04697   0.00000  Uiso   1.00
C588   C     0.47838   0.79898   0.45301   0.00000  Uiso   1.00
C589   C     0.52213   0.86782   0.45302   0.00000  Uiso   1.00
C590   C     0.52161   0.79896   0.04699   0.00000  Uiso   1.00
C591   C     0.47646   0.86702   0.09315   0.00000  Uiso   1.00
C592   C     0.47760   0.79914   0.40684   0.00000  Uiso   1.00
C593   C     0.52358   0.86700   0.40684   0.00000  Uiso   1.00
C594   C     0.52238   0.79912   0.09316   0.00000  Uiso   1.00
C595   C     0.49958   0.83321   0.11654   0.00000  Uiso   1.00
C596   C     0.50043   0.83320   0.38346   0.00000  Uiso   1.00
C597   C     0.50002   0.83364   0.02407   0.00000  Uiso   1.00
C598   C     0.50000   0.83364   0.47592   0.00000  Uiso   1.00
C599   C     0.62393   0.83333   0.25000   0.00000  Uiso   1.00
C600   C     0.37607   0.83333   0.25000   0.00000  Uiso   1.00
Cu601  Cu    0.50000   0.88022   0.25000   0.00000  Uiso   1.00
Cu602  Cu    0.50000   0.78645   0.25000   0.00000  Uiso   1.00
H603   H     0.46011   0.71016   0.19455   0.00000  Uiso   1.00
H604   H     0.53941   0.95657   0.30574   0.00000  Uiso   1.00
H605   H     0.53989   0.71016   0.30545   0.00000  Uiso   1.00
H606   H     0.46059   0.95658   0.19426   0.00000  Uiso   1.00
H607   H     0.46072   0.89428   0.02899   0.00000  Uiso   1.00
H608   H     0.46153   0.77230   0.47098   0.00000  Uiso   1.00
H609   H     0.53935   0.89424   0.47100   0.00000  Uiso   1.00
H610   H     0.53844   0.77226   0.02902   0.00000  Uiso   1.00
H611   H     0.37061   0.75748   0.24940   0.00000  Uiso   1.00
H612   H     0.62939   0.90918   0.24940   0.00000  Uiso   1.00
H613   H     0.62939   0.75748   0.25054   0.00000  Uiso   1.00
H614   H     0.37061   0.90918   0.25066   0.00000  Uiso   1.00
N615   N     0.50000   0.95069   0.25000   0.00000  Uiso   1.00
N616   N     0.50000   0.71598   0.25000   0.00000  Uiso   1.00
O617   O     0.43988   0.87291   0.24999   0.00000  Uiso   1.00
O618   O     0.56012   0.79375   0.25000   0.00000  Uiso   1.00
O619   O     0.56012   0.87291   0.25000   0.00000  Uiso   1.00
O620   O     0.43988   0.79375   0.24999   0.00000  Uiso   1.00
O621   O     0.50000   0.87293   0.18573   0.00000  Uiso   1.00
O622   O     0.50000   0.79374   0.31427   0.00000  Uiso   1.00
O623   O     0.50000   0.87293   0.31427   0.00000  Uiso   1.00
O624   O     0.50000   0.79374   0.18573   0.00000  Uiso   1.00
O625   O     0.45224   0.89935   0.11516   0.00000  Uiso   1.00
C626   C     0.41216   0.88055   0.11927   0.00000  Uiso   1.00
H627   H     0.41244   0.84879   0.14074   0.00000  Uiso   1.00
H628   H     0.39902   0.87132   0.08626   0.00000  Uiso   1.00
C629   C     0.38401   0.91675   0.14041   0.00000  Uiso   1.00
H630   H     0.38298   0.94890   0.11972   0.00000  Uiso   1.00
H631   H     0.35238   0.90228   0.14341   0.00000  Uiso   1.00
H632   H     0.39537   0.92591   0.17395   0.00000  Uiso   1.00
O633   O     0.45599   0.76451   0.38483   0.00000  Uiso   1.00
C634   C     0.41536   0.78036   0.37762   0.00000  Uiso   1.00
H635   H     0.41508   0.81273   0.35696   0.00000  Uiso   1.00
H636   H     0.39950   0.78745   0.40965   0.00000  Uiso   1.00
C637   C     0.39138   0.74263   0.35311   0.00000  Uiso   1.00
H638   H     0.38977   0.71034   0.37356   0.00000  Uiso   1.00
H639   H     0.35961   0.75508   0.34625   0.00000  Uiso   1.00
H640   H     0.40681   0.73433   0.32125   0.00000  Uiso   1.00
O641   O     0.54781   0.89931   0.38483   0.00000  Uiso   1.00
C642   C     0.58786   0.88043   0.38062   0.00000  Uiso   1.00
H643   H     0.58750   0.84877   0.35903   0.00000  Uiso   1.00
H644   H     0.60100   0.87102   0.41359   0.00000  Uiso   1.00
C645   C     0.61606   0.91666   0.35960   0.00000  Uiso   1.00
H646   H     0.61719   0.94870   0.38044   0.00000  Uiso   1.00
H647   H     0.64765   0.90211   0.35649   0.00000  Uiso   1.00
H648   H     0.60467   0.92602   0.32612   0.00000  Uiso   1.00
O649   O     0.54396   0.76446   0.11518   0.00000  Uiso   1.00
C650   C     0.58461   0.78026   0.12239   0.00000  Uiso   1.00
H651   H     0.58492   0.81264   0.14303   0.00000  Uiso   1.00
H652   H     0.60048   0.78731   0.09036   0.00000  Uiso   1.00
C653   C     0.60853   0.74250   0.14692   0.00000  Uiso   1.00
H654   H     0.61011   0.71020   0.12649   0.00000  Uiso   1.00
H655   H     0.64032   0.75491   0.15378   0.00000  Uiso   1.00
H656   H     0.59309   0.73425   0.17878   0.00000  Uiso   1.00
C657   C     0.75402   0.83333   0.24999   0.00000  Uiso   1.00
C658   C     0.91265   0.83333   0.25001   0.00000  Uiso   1.00
C659   C     0.83305   0.83331   0.16495   0.00000  Uiso   1.00
C660   C     0.83361   0.83331   0.33505   0.00000  Uiso   1.00
C661   C     0.81122   0.69148   0.21919   0.00000  Uiso   1.00
C662   C     0.85531   0.97522   0.28089   0.00000  Uiso   1.00
C663   C     0.85544   0.69148   0.28081   0.00000  Uiso   1.00
C664   C     0.81136   0.97522   0.21911   0.00000  Uiso   1.00
C665   C     0.68795   0.79077   0.24976   0.00000  Uiso   1.00
C666   C     0.97872   0.87589   0.24978   0.00000  Uiso   1.00
C667   C     0.97872   0.79077   0.25021   0.00000  Uiso   1.00
C668   C     0.68795   0.87589   0.25025   0.00000  Uiso   1.00
C669   C     0.81124   0.86785   0.04697   0.00000  Uiso   1.00
C670   C     0.81172   0.79898   0.45301   0.00000  Uiso   1.00
C671   C     0.85547   0.86782   0.45302   0.00000  Uiso   1.00
C672   C     0.85494   0.79896   0.04699   0.00000  Uiso   1.00
C673   C     0.80979   0.86702   0.09315   0.00000  Uiso   1.00
C674   C     0.81094   0.79914   0.40684   0.00000  Uiso   1.00
C675   C     0.85691   0.86700   0.40684   0.00000  Uiso   1.00
C676   C     0.85571   0.79912   0.09316   0.00000  Uiso   1.00
C677   C     0.83291   0.83321   0.11654   0.00000  Uiso   1.00
C678   C     0.83376   0.83320   0.38346   0.00000  Uiso   1.00
C679   C     0.83335   0.83364   0.02407   0.00000  Uiso   1.00
C680   C     0.83333   0.83364   0.47592   0.00000  Uiso   1.00
C681   C     0.95726   0.83333   0.25000   0.00000  Uiso   1.00
C682   C     0.70941   0.83333   0.25000   0.00000  Uiso   1.00
Cu683  Cu    0.83333   0.88022   0.25000   0.00000  Uiso   1.00
Cu684  Cu    0.83333   0.78645   0.25000   0.00000  Uiso   1.00
H685   H     0.79345   0.71016   0.19455   0.00000  Uiso   1.00
H686   H     0.87275   0.95657   0.30574   0.00000  Uiso   1.00
H687   H     0.87322   0.71016   0.30545   0.00000  Uiso   1.00
H688   H     0.79392   0.95658   0.19426   0.00000  Uiso   1.00
H689   H     0.79405   0.89428   0.02899   0.00000  Uiso   1.00
H690   H     0.79486   0.77230   0.47098   0.00000  Uiso   1.00
H691   H     0.87268   0.89424   0.47100   0.00000  Uiso   1.00
H692   H     0.87177   0.77226   0.02902   0.00000  Uiso   1.00
H693   H     0.70395   0.75748   0.24940   0.00000  Uiso   1.00
H694   H     0.96272   0.90918   0.24940   0.00000  Uiso   1.00
H695   H     0.96272   0.75748   0.25054   0.00000  Uiso   1.00
H696   H     0.70394   0.90918   0.25066   0.00000  Uiso   1.00
N697   N     0.83333   0.95069   0.25000   0.00000  Uiso   1.00
N698   N     0.83333   0.71598   0.25000   0.00000  Uiso   1.00
O699   O     0.77321   0.87291   0.24999   0.00000  Uiso   1.00
O700   O     0.89345   0.79375   0.25000   0.00000  Uiso   1.00
O701   O     0.89345   0.87291   0.25000   0.00000  Uiso   1.00
O702   O     0.77321   0.79375   0.24999   0.00000  Uiso   1.00
O703   O     0.83333   0.87293   0.18573   0.00000  Uiso   1.00
O704   O     0.83334   0.79374   0.31427   0.00000  Uiso   1.00
O705   O     0.83334   0.87293   0.31427   0.00000  Uiso   1.00
O706   O     0.83333   0.79374   0.18573   0.00000  Uiso   1.00
O707   O     0.78558   0.89935   0.11516   0.00000  Uiso   1.00
C708   C     0.74550   0.88055   0.11927   0.00000  Uiso   1.00
H709   H     0.74578   0.84879   0.14074   0.00000  Uiso   1.00
H710   H     0.73236   0.87132   0.08626   0.00000  Uiso   1.00
C711   C     0.71734   0.91675   0.14041   0.00000  Uiso   1.00
H712   H     0.71631   0.94890   0.11972   0.00000  Uiso   1.00
H713   H     0.68572   0.90228   0.14341   0.00000  Uiso   1.00
H714   H     0.72871   0.92591   0.17395   0.00000  Uiso   1.00
O715   O     0.78932   0.76451   0.38483   0.00000  Uiso   1.00
C716   C     0.74869   0.78036   0.37762   0.00000  Uiso   1.00
H717   H     0.74841   0.81273   0.35696   0.00000  Uiso   1.00
H718   H     0.73283   0.78745   0.40965   0.00000  Uiso   1.00
C719   C     0.72472   0.74263   0.35311   0.00000  Uiso   1.00
H720   H     0.72311   0.71034   0.37356   0.00000  Uiso   1.00
H721   H     0.69294   0.75508   0.34625   0.00000  Uiso   1.00
H722   H     0.74015   0.73433   0.32125   0.00000  Uiso   1.00
O723   O     0.88115   0.89931   0.38483   0.00000  Uiso   1.00
C724   C     0.92119   0.88043   0.38062   0.00000  Uiso   1.00
H725   H     0.92083   0.84877   0.35903   0.00000  Uiso   1.00
H726   H     0.93434   0.87102   0.41359   0.00000  Uiso   1.00
C727   C     0.94940   0.91666   0.35960   0.00000  Uiso   1.00
H728   H     0.95052   0.94870   0.38044   0.00000  Uiso   1.00
H729   H     0.98098   0.90211   0.35649   0.00000  Uiso   1.00
H730   H     0.93801   0.92602   0.32612   0.00000  Uiso   1.00
O731   O     0.87730   0.76446   0.11518   0.00000  Uiso   1.00
C732   C     0.91794   0.78026   0.12239   0.00000  Uiso   1.00
H733   H     0.91825   0.81264   0.14303   0.00000  Uiso   1.00
H734   H     0.93381   0.78731   0.09036   0.00000  Uiso   1.00
C735   C     0.94187   0.74250   0.14692   0.00000  Uiso   1.00
H736   H     0.94344   0.71020   0.12649   0.00000  Uiso   1.00
H737   H     0.97365   0.75491   0.15378   0.00000  Uiso   1.00
H738   H     0.92642   0.73425   0.17878   0.00000  Uiso   1.00
C739   C     0.08735   0.16667   0.74999   0.00000  Uiso   1.00
C740   C     0.24598   0.16667   0.75001   0.00000  Uiso   1.00
C741   C     0.16639   0.16664   0.66495   0.00000  Uiso   1.00
C742   C     0.16695   0.16664   0.83505   0.00000  Uiso   1.00
C743   C     0.14456   0.02482   0.71919   0.00000  Uiso   1.00
C744   C     0.18864   0.30855   0.78089   0.00000  Uiso   1.00
C745   C     0.18878   0.02481   0.78081   0.00000  Uiso   1.00
C746   C     0.14469   0.30855   0.71911   0.00000  Uiso   1.00
C747   C     0.02128   0.12410   0.74976   0.00000  Uiso   1.00
C748   C     0.31205   0.20922   0.74978   0.00000  Uiso   1.00
C749   C     0.31205   0.12410   0.75021   0.00000  Uiso   1.00
C750   C     0.02128   0.20922   0.75025   0.00000  Uiso   1.00
C751   C     0.14457   0.20118   0.54697   0.00000  Uiso   1.00
C752   C     0.14505   0.13232   0.95301   0.00000  Uiso   1.00
C753   C     0.18880   0.20116   0.95302   0.00000  Uiso   1.00
C754   C     0.18827   0.13230   0.54699   0.00000  Uiso   1.00
C755   C     0.14312   0.20035   0.59315   0.00000  Uiso   1.00
C756   C     0.14427   0.13247   0.90684   0.00000  Uiso   1.00
C757   C     0.19025   0.20033   0.90684   0.00000  Uiso   1.00
C758   C     0.18905   0.13245   0.59316   0.00000  Uiso   1.00
C759   C     0.16625   0.16654   0.61654   0.00000  Uiso   1.00
C760   C     0.16709   0.16654   0.88346   0.00000  Uiso   1.00
C761   C     0.16668   0.16698   0.52407   0.00000  Uiso   1.00
C762   C     0.16667   0.16697   0.97592   0.00000  Uiso   1.00
C763   C     0.29059   0.16666   0.75000   0.00000  Uiso   1.00
C764   C     0.04274   0.16666   0.75000   0.00000  Uiso   1.00
Cu765  Cu    0.16667   0.21355   0.75000   0.00000  Uiso   1.00
Cu766  Cu    0.16667   0.11978   0.75000   0.00000  Uiso   1.00
H767   H     0.12678   0.04350   0.69455   0.00000  Uiso   1.00
H768   H     0.20608   0.28991   0.80574   0.00000  Uiso   1.00
H769   H     0.20656   0.04349   0.80545   0.00000  Uiso   1.00
H770   H     0.12726   0.28991   0.69426   0.00000  Uiso   1.00
H771   H     0.12739   0.22761   0.52899   0.00000  Uiso   1.00
H772   H     0.12820   0.10563   0.97098   0.00000  Uiso   1.00
H773   H     0.20601   0.22757   0.97100   0.00000  Uiso   1.00
H774   H     0.20511   0.10559   0.52902   0.00000  Uiso   1.00
H775   H     0.03728   0.09081   0.74940   0.00000  Uiso   1.00
H776   H     0.29606   0.24251   0.74940   0.00000  Uiso   1.00
H777   H     0.29606   0.09081   0.75054   0.00000  Uiso   1.00
H778   H     0.03728   0.24251   0.75066   0.00000  Uiso   1.00
N779   N     0.16667   0.28402   0.75000   0.00000  Uiso   1.00
N780   N     0.16667   0.04931   0.75000   0.00000  Uiso   1.00
O781   O     0.10655   0.20625   0.74999   0.00000  Uiso   1.00
O782   O     0.22679   0.12709   0.75000   0.00000  Uiso   1.00
O783   O     0.22679   0.20625   0.75000   0.00000  Uiso   1.00
O784   O     0.10655   0.12709   0.74999   0.00000  Uiso   1.00
O785   O     0.16666   0.20626   0.68573   0.00000  Uiso   1.00
O786   O     0.16667   0.12707   0.81427   0.00000  Uiso   1.00
O787   O     0.16667   0.20626   0.81427   0.00000  Uiso   1.00
O788   O     0.16666   0.12707   0.68573   0.00000  Uiso   1.00
O789   O     0.11891   0.23268   0.61516   0.00000  Uiso   1.00
C790   C     0.07883   0.21388   0.61927   0.00000  Uiso   1.00
H791   H     0.07911   0.18213   0.64074   0.00000  Uiso   1.00
H792   H     0.06569   0.20465   0.58626   0.00000  Uiso   1.00
C793   C     0.05067   0.25008   0.64041   0.00000  Uiso   1.00
H794   H     0.04965   0.28223   0.61972   0.00000  Uiso   1.00
H795   H     0.01905   0.23562   0.64341   0.00000  Uiso   1.00
H796   H     0.06204   0.25924   0.67395   0.00000  Uiso   1.00
O797   O     0.12265   0.09784   0.88483   0.00000  Uiso   1.00
C798   C     0.08202   0.11370   0.87762   0.00000  Uiso   1.00
H799   H     0.08174   0.14606   0.85696   0.00000  Uiso   1.00
H800   H     0.06617   0.12078   0.90965   0.00000  Uiso   1.00
C801   C     0.05805   0.07596   0.85311   0.00000  Uiso   1.00
H802   H     0.05644   0.04367   0.87356   0.00000  Uiso   1.00
H803   H     0.02628   0.08841   0.84625   0.00000  Uiso   1.00
H804   H     0.07348   0.06767   0.82125   0.00000  Uiso   1.00
O805   O     0.21448   0.23264   0.88483   0.00000  Uiso   1.00
C806   C     0.25452   0.21377   0.88062   0.00000  Uiso   1.00
H807   H     0.25417   0.18210   0.85903   0.00000  Uiso   1.00
H808   H     0.26767   0.20435   0.91359   0.00000  Uiso   1.00
C809   C     0.28273   0.24999   0.85960   0.00000  Uiso   1.00
H810   H     0.28386   0.28203   0.88044   0.00000  Uiso   1.00
H811   H     0.31432   0.23545   0.85649   0.00000  Uiso   1.00
H812   H     0.27134   0.25935   0.82612   0.00000  Uiso   1.00
O813   O     0.21063   0.09779   0.61518   0.00000  Uiso   1.00
C814   C     0.25127   0.11359   0.62239   0.00000  Uiso   1.00
H815   H     0.25159   0.14597   0.64303   0.00000  Uiso   1.00
H816   H     0.26714   0.12064   0.59036   0.00000  Uiso   1.00
C817   C     0.27520   0.07584   0.64692   0.00000  Uiso   1.00
H818   H     0.27677   0.04353   0.62649   0.00000  Uiso   1.00
H819   H     0.30699   0.08824   0.65378   0.00000  Uiso   1.00
H820   H     0.25976   0.06758   0.67878   0.00000  Uiso   1.00
C821   C     0.42068   0.16667   0.74999   0.00000  Uiso   1.00
C822   C     0.57932   0.16667   0.75001   0.00000  Uiso   1.00
C823   C     0.49972   0.16664   0.66495   0.00000  Uiso   1.00
C824   C     0.50028   0.16664   0.83505   0.00000  Uiso   1.00
C825   C     0.47789   0.02482   0.71919   0.00000  Uiso   1.00
C826   C     0.52198   0.30855   0.78089   0.00000  Uiso   1.00
C827   C     0.52211   0.02481   0.78081   0.00000  Uiso   1.00
C828   C     0.47802   0.30855   0.71911   0.00000  Uiso   1.00
C829   C     0.35462   0.12410   0.74976   0.00000  Uiso   1.00
C830   C     0.64538   0.20922   0.74978   0.00000  Uiso   1.00
C831   C     0.64538   0.12410   0.75021   0.00000  Uiso   1.00
C832   C     0.35462   0.20922   0.75025   0.00000  Uiso   1.00
C833   C     0.47791   0.20118   0.54697   0.00000  Uiso   1.00
C834   C     0.47838   0.13232   0.95301   0.00000  Uiso   1.00
C835   C     0.52213   0.20116   0.95302   0.00000  Uiso   1.00
C836   C     0.52161   0.13230   0.54699   0.00000  Uiso   1.00
C837   C     0.47646   0.20035   0.59315   0.00000  Uiso   1.00
C838   C     0.47760   0.13247   0.90684   0.00000  Uiso   1.00
C839   C     0.52358   0.20033   0.90684   0.00000  Uiso   1.00
C840   C     0.52238   0.13245   0.59316   0.00000  Uiso   1.00
C841   C     0.49958   0.16654   0.61654   0.00000  Uiso   1.00
C842   C     0.50043   0.16654   0.88346   0.00000  Uiso   1.00
C843   C     0.50002   0.16698   0.52407   0.00000  Uiso   1.00
C844   C     0.50000   0.16697   0.97592   0.00000  Uiso   1.00
C845   C     0.62393   0.16666   0.75000   0.00000  Uiso   1.00
C846   C     0.37607   0.16666   0.75000   0.00000  Uiso   1.00
Cu847  Cu    0.50000   0.21355   0.75000   0.00000  Uiso   1.00
Cu848  Cu    0.50000   0.11978   0.75000   0.00000  Uiso   1.00
H849   H     0.46011   0.04350   0.69455   0.00000  Uiso   1.00
H850   H     0.53941   0.28991   0.80574   0.00000  Uiso   1.00
H851   H     0.53989   0.04349   0.80545   0.00000  Uiso   1.00
H852   H     0.46059   0.28991   0.69426   0.00000  Uiso   1.00
H853   H     0.46072   0.22761   0.52899   0.00000  Uiso   1.00
H854   H     0.46153   0.10563   0.97098   0.00000  Uiso   1.00
H855   H     0.53935   0.22757   0.97100   0.00000  Uiso   1.00
H856   H     0.53844   0.10559   0.52902   0.00000  Uiso   1.00
H857   H     0.37061   0.09081   0.74940   0.00000  Uiso   1.00
H858   H     0.62939   0.24251   0.74940   0.00000  Uiso   1.00
H859   H     0.62939   0.09081   0.75054   0.00000  Uiso   1.00
H860   H     0.37061   0.24251   0.75066   0.00000  Uiso   1.00
N861   N     0.50000   0.28402   0.75000   0.00000  Uiso   1.00
N862   N     0.50000   0.04931   0.75000   0.00000  Uiso   1.00
O863   O     0.43988   0.20625   0.74999   0.00000  Uiso   1.00
O864   O     0.56012   0.12709   0.75000   0.00000  Uiso   1.00
O865   O     0.56012   0.20625   0.75000   0.00000  Uiso   1.00
O866   O     0.43988   0.12709   0.74999   0.00000  Uiso   1.00
O867   O     0.50000   0.20626   0.68573   0.00000  Uiso   1.00
O868   O     0.50000   0.12707   0.81427   0.00000  Uiso   1.00
O869   O     0.50000   0.20626   0.81427   0.00000  Uiso   1.00
O870   O     0.50000   0.12707   0.68573   0.00000  Uiso   1.00
O871   O     0.45224   0.23268   0.61516   0.00000  Uiso   1.00
C872   C     0.41216   0.21388   0.61927   0.00000  Uiso   1.00
H873   H     0.41244   0.18213   0.64074   0.00000  Uiso   1.00
H874   H     0.39902   0.20465   0.58626   0.00000  Uiso   1.00
C875   C     0.38401   0.25008   0.64041   0.00000  Uiso   1.00
H876   H     0.38298   0.28223   0.61972   0.00000  Uiso   1.00
H877   H     0.35238   0.23562   0.64341   0.00000  Uiso   1.00
H878   H     0.39537   0.25924   0.67395   0.00000  Uiso   1.00
O879   O     0.45599   0.09784   0.88483   0.00000  Uiso   1.00
C880   C     0.41536   0.11370   0.87762   0.00000  Uiso   1.00
H881   H     0.41508   0.14606   0.85696   0.00000  Uiso   1.00
H882   H     0.39950   0.12078   0.90965   0.00000  Uiso   1.00
C883   C     0.39138   0.07596   0.85311   0.00000  Uiso   1.00
H884   H     0.38977   0.04367   0.87356   0.00000  Uiso   1.00
H885   H     0.35961   0.08841   0.84625   0.00000  Uiso   1.00
H886   H     0.40681   0.06767   0.82125   0.00000  Uiso   1.00
O887   O     0.54781   0.23264   0.88483   0.00000  Uiso   1.00
C888   C     0.58786   0.21377   0.88062   0.00000  Uiso   1.00
H889   H     0.58750   0.18210   0.85903   0.00000  Uiso   1.00
H890   H     0.60100   0.20435   0.91359   0.00000  Uiso   1.00
C891   C     0.61606   0.24999   0.85960   0.00000  Uiso   1.00
H892   H     0.61719   0.28203   0.88044   0.00000  Uiso   1.00
H893   H     0.64765   0.23545   0.85649   0.00000  Uiso   1.00
H894   H     0.60467   0.25935   0.82612   0.00000  Uiso   1.00
O895   O     0.54396   0.09779   0.61518   0.00000  Uiso   1.00
C896   C     0.58461   0.11359   0.62239   0.00000  Uiso   1.00
H897   H     0.58492   0.14597   0.64303   0.00000  Uiso   1.00
H898   H     0.60048   0.12064   0.59036   0.00000  Uiso   1.00
C899   C     0.60853   0.07584   0.64692   0.00000  Uiso   1.00
H900   H     0.61011   0.04353   0.62649   0.00000  Uiso   1.00
H901   H     0.64032   0.08824   0.65378   0.00000  Uiso   1.00
H902   H     0.59309   0.06758   0.67878   0.00000  Uiso   1.00
C903   C     0.75402   0.16667   0.74999   0.00000  Uiso   1.00
C904   C     0.91265   0.16667   0.75001   0.00000  Uiso   1.00
C905   C     0.83305   0.16664   0.66495   0.00000  Uiso   1.00
C906   C     0.83361   0.16664   0.83505   0.00000  Uiso   1.00
C907   C     0.81122   0.02482   0.71919   0.00000  Uiso   1.00
C908   C     0.85531   0.30855   0.78089   0.00000  Uiso   1.00
C909   C     0.85544   0.02481   0.78081   0.00000  Uiso   1.00
C910   C     0.81136   0.30855   0.71911   0.00000  Uiso   1.00
C911   C     0.68795   0.12410   0.74976   0.00000  Uiso   1.00
C912   C     0.97872   0.20922   0.74978   0.00000  Uiso   1.00
C913   C     0.97872   0.12410   0.75021   0.00000  Uiso   1.00
C914   C     0.68795   0.20922   0.75025   0.00000  Uiso   1.00
C915   C     0.81124   0.20118   0.54697   0.00000  Uiso   1.00
C916   C     0.81172   0.13232   0.95301   0.00000  Uiso   1.00
C917   C     0.85547   0.20116   0.95302   0.00000  Uiso   1.00
C918   C     0.85494   0.13230   0.54699   0.00000  Uiso   1.00
C919   C     0.80979   0.20035   0.59315   0.00000  Uiso   1.00
C920   C     0.81094   0.13247   0.90684   0.00000  Uiso   1.00
C921   C     0.85691   0.20033   0.90684   0.00000  Uiso   1.00
C922   C     0.85571   0.13245   0.59316   0.00000  Uiso   1.00
C923   C     0.83291   0.16654   0.61654   0.00000  Uiso   1.00
C924   C     0.83376   0.16654   0.88346   0.00000  Uiso   1.00
C925   C     0.83335   0.16698   0.52407   0.00000  Uiso   1.00
C926   C     0.83333   0.16697   0.97592   0.00000  Uiso   1.00
C927   C     0.95726   0.16666   0.75000   0.00000  Uiso   1.00
C928   C     0.70941   0.16666   0.75000   0.00000  Uiso   1.00
Cu929  Cu    0.83333   0.21355   0.75000   0.00000  Uiso   1.00
Cu930  Cu    0.83333   0.11978   0.75000   0.00000  Uiso   1.00
H931   H     0.79345   0.04350   0.69455   0.00000  Uiso   1.00
H932   H     0.87275   0.28991   0.80574   0.00000  Uiso   1.00
H933   H     0.87322   0.04349   0.80545   0.00000  Uiso   1.00
H934   H     0.79392   0.28991   0.69426   0.00000  Uiso   1.00
H935   H     0.79405   0.22761   0.52899   0.00000  Uiso   1.00
H936   H     0.79486   0.10563   0.97098   0.00000  Uiso   1.00
H937   H     0.87268   0.22757   0.97100   0.00000  Uiso   1.00
H938   H     0.87177   0.10559   0.52902   0.00000  Uiso   1.00
H939   H     0.70395   0.09081   0.74940   0.00000  Uiso   1.00
H940   H     0.96272   0.24251   0.74940   0.00000  Uiso   1.00
H941   H     0.96272   0.09081   0.75054   0.00000  Uiso   1.00
H942   H     0.70394   0.24251   0.75066   0.00000  Uiso   1.00
N943   N     0.83333   0.28402   0.75000   0.00000  Uiso   1.00
N944   N     0.83333   0.04931   0.75000   0.00000  Uiso   1.00
O945   O     0.77321   0.20625   0.74999   0.00000  Uiso   1.00
O946   O     0.89345   0.12709   0.75000   0.00000  Uiso   1.00
O947   O     0.89345   0.20625   0.75000   0.00000  Uiso   1.00
O948   O     0.77321   0.12709   0.74999   0.00000  Uiso   1.00
O949   O     0.83333   0.20626   0.68573   0.00000  Uiso   1.00
O950   O     0.83334   0.12707   0.81427   0.00000  Uiso   1.00
O951   O     0.83334   0.20626   0.81427   0.00000  Uiso   1.00
O952   O     0.83333   0.12707   0.68573   0.00000  Uiso   1.00
O953   O     0.78558   0.23268   0.61516   0.00000  Uiso   1.00
C954   C     0.74550   0.21388   0.61927   0.00000  Uiso   1.00
H955   H     0.74578   0.18213   0.64074   0.00000  Uiso   1.00
H956   H     0.73236   0.20465   0.58626   0.00000  Uiso   1.00
C957   C     0.71734   0.25008   0.64041   0.00000  Uiso   1.00
H958   H     0.71631   0.28223   0.61972   0.00000  Uiso   1.00
H959   H     0.68572   0.23562   0.64341   0.00000  Uiso   1.00
H960   H     0.72871   0.25924   0.67395   0.00000  Uiso   1.00
O961   O     0.78932   0.09784   0.88483   0.00000  Uiso   1.00
C962   C     0.74869   0.11370   0.87762   0.00000  Uiso   1.00
H963   H     0.74841   0.14606   0.85696   0.00000  Uiso   1.00
H964   H     0.73283   0.12078   0.90965   0.00000  Uiso   1.00
C965   C     0.72472   0.07596   0.85311   0.00000  Uiso   1.00
H966   H     0.72311   0.04367   0.87356   0.00000  Uiso   1.00
H967   H     0.69294   0.08841   0.84625   0.00000  Uiso   1.00
H968   H     0.74015   0.06767   0.82125   0.00000  Uiso   1.00
O969   O     0.88115   0.23264   0.88483   0.00000  Uiso   1.00
C970   C     0.92119   0.21377   0.88062   0.00000  Uiso   1.00
H971   H     0.92083   0.18210   0.85903   0.00000  Uiso   1.00
H972   H     0.93434   0.20435   0.91359   0.00000  Uiso   1.00
C973   C     0.94940   0.24999   0.85960   0.00000  Uiso   1.00
H974   H     0.95052   0.28203   0.88044   0.00000  Uiso   1.00
H975   H     0.98098   0.23545   0.85649   0.00000  Uiso   1.00
H976   H     0.93801   0.25935   0.82612   0.00000  Uiso   1.00
O977   O     0.87730   0.09779   0.61518   0.00000  Uiso   1.00
C978   C     0.91794   0.11359   0.62239   0.00000  Uiso   1.00
H979   H     0.91825   0.14597   0.64303   0.00000  Uiso   1.00
H980   H     0.93381   0.12064   0.59036   0.00000  Uiso   1.00
C981   C     0.94187   0.07584   0.64692   0.00000  Uiso   1.00
H982   H     0.94344   0.04353   0.62649   0.00000  Uiso   1.00
H983   H     0.97365   0.08824   0.65378   0.00000  Uiso   1.00
H984   H     0.92642   0.06758   0.67878   0.00000  Uiso   1.00
C985   C     0.08735   0.50000   0.74999   0.00000  Uiso   1.00
C986   C     0.24598   0.50000   0.75001   0.00000  Uiso   1.00
C987   C     0.16639   0.49997   0.66495   0.00000  Uiso   1.00
C988   C     0.16695   0.49997   0.83505   0.00000  Uiso   1.00
C989   C     0.14456   0.35815   0.71919   0.00000  Uiso   1.00
C990   C     0.18864   0.64188   0.78089   0.00000  Uiso   1.00
C991   C     0.18878   0.35815   0.78081   0.00000  Uiso   1.00
C992   C     0.14469   0.64188   0.71911   0.00000  Uiso   1.00
C993   C     0.02128   0.45743   0.74976   0.00000  Uiso   1.00
C994   C     0.31205   0.54255   0.74978   0.00000  Uiso   1.00
C995   C     0.31205   0.45743   0.75021   0.00000  Uiso   1.00
C996   C     0.02128   0.54255   0.75025   0.00000  Uiso   1.00
C997   C     0.14457   0.53452   0.54697   0.00000  Uiso   1.00
C998   C     0.14505   0.46565   0.95301   0.00000  Uiso   1.00
C999   C     0.18880   0.53449   0.95302   0.00000  Uiso   1.00
C1000  C     0.18827   0.46563   0.54699   0.00000  Uiso   1.00
C1001  C     0.14312   0.53369   0.59315   0.00000  Uiso   1.00
C1002  C     0.14427   0.46581   0.90684   0.00000  Uiso   1.00
C1003  C     0.19025   0.53366   0.90684   0.00000  Uiso   1.00
C1004  C     0.18905   0.46579   0.59316   0.00000  Uiso   1.00
C1005  C     0.16625   0.49987   0.61654   0.00000  Uiso   1.00
C1006  C     0.16709   0.49987   0.88346   0.00000  Uiso   1.00
C1007  C     0.16668   0.50031   0.52407   0.00000  Uiso   1.00
C1008  C     0.16667   0.50031   0.97592   0.00000  Uiso   1.00
C1009  C     0.29059   0.49999   0.75000   0.00000  Uiso   1.00
C1010  C     0.04274   0.49999   0.75000   0.00000  Uiso   1.00
Cu1011 Cu    0.16667   0.54689   0.75000   0.00000  Uiso   1.00
Cu1012 Cu    0.16667   0.45311   0.75000   0.00000  Uiso   1.00
H1013  H     0.12678   0.37683   0.69455   0.00000  Uiso   1.00
H1014  H     0.20608   0.62324   0.80574   0.00000  Uiso   1.00
H1015  H     0.20656   0.37682   0.80545   0.00000  Uiso   1.00
H1016  H     0.12726   0.62324   0.69426   0.00000  Uiso   1.00
H1017  H     0.12739   0.56095   0.52899   0.00000  Uiso   1.00
H1018  H     0.12820   0.43896   0.97098   0.00000  Uiso   1.00
H1019  H     0.20601   0.56090   0.97100   0.00000  Uiso   1.00
H1020  H     0.20511   0.43893   0.52902   0.00000  Uiso   1.00
H1021  H     0.03728   0.42414   0.74940   0.00000  Uiso   1.00
H1022  H     0.29606   0.57584   0.74940   0.00000  Uiso   1.00
H1023  H     0.29606   0.42414   0.75054   0.00000  Uiso   1.00
H1024  H     0.03728   0.57584   0.75066   0.00000  Uiso   1.00
N1025  N     0.16667   0.61736   0.75000   0.00000  Uiso   1.00
N1026  N     0.16667   0.38264   0.75000   0.00000  Uiso   1.00
O1027  O     0.10655   0.53958   0.74999   0.00000  Uiso   1.00
O1028  O     0.22679   0.46042   0.75000   0.00000  Uiso   1.00
O1029  O     0.22679   0.53958   0.75000   0.00000  Uiso   1.00
O1030  O     0.10655   0.46042   0.74999   0.00000  Uiso   1.00
O1031  O     0.16666   0.53959   0.68573   0.00000  Uiso   1.00
O1032  O     0.16667   0.46041   0.81427   0.00000  Uiso   1.00
O1033  O     0.16667   0.53959   0.81427   0.00000  Uiso   1.00
O1034  O     0.16666   0.46041   0.68573   0.00000  Uiso   1.00
O1035  O     0.11891   0.56601   0.61516   0.00000  Uiso   1.00
C1036  C     0.07883   0.54722   0.61927   0.00000  Uiso   1.00
H1037  H     0.07911   0.51546   0.64074   0.00000  Uiso   1.00
H1038  H     0.06569   0.53798   0.58626   0.00000  Uiso   1.00
C1039  C     0.05067   0.58342   0.64041   0.00000  Uiso   1.00
H1040  H     0.04965   0.61557   0.61972   0.00000  Uiso   1.00
H1041  H     0.01905   0.56895   0.64341   0.00000  Uiso   1.00
H1042  H     0.06204   0.59258   0.67395   0.00000  Uiso   1.00
O1043  O     0.12265   0.43117   0.88483   0.00000  Uiso   1.00
C1044  C     0.08202   0.44703   0.87762   0.00000  Uiso   1.00
H1045  H     0.08174   0.47940   0.85696   0.00000  Uiso   1.00
H1046  H     0.06617   0.45412   0.90965   0.00000  Uiso   1.00
C1047  C     0.05805   0.40929   0.85311   0.00000  Uiso   1.00
H1048  H     0.05644   0.37700   0.87356   0.00000  Uiso   1.00
H1049  H     0.02628   0.42175   0.84625   0.00000  Uiso   1.00
H1050  H     0.07348   0.40100   0.82125   0.00000  Uiso   1.00
O1051  O     0.21448   0.56597   0.88483   0.00000  Uiso   1.00
C1052  C     0.25452   0.54710   0.88062   0.00000  Uiso   1.00
H1053  H     0.25417   0.51543   0.85903   0.00000  Uiso   1.00
H1054  H     0.26767   0.53769   0.91359   0.00000  Uiso   1.00
C1055  C     0.28273   0.58332   0.85960   0.00000  Uiso   1.00
H1056  H     0.28386   0.61536   0.88044   0.00000  Uiso   1.00
H1057  H     0.31432   0.56878   0.85649   0.00000  Uiso   1.00
H1058  H     0.27134   0.59269   0.82612   0.00000  Uiso   1.00
O1059  O     0.21063   0.43113   0.61518   0.00000  Uiso   1.00
C1060  C     0.25127   0.44693   0.62239   0.00000  Uiso   1.00
H1061  H     0.25159   0.47930   0.64303   0.00000  Uiso   1.00
H1062  H     0.26714   0.45397   0.59036   0.00000  Uiso   1.00
C1063  C     0.27520   0.40917   0.64692   0.00000  Uiso   1.00
H1064  H     0.27677   0.37686   0.62649   0.00000  Uiso   1.00
H1065  H     0.30699   0.42158   0.65378   0.00000  Uiso   1.00
H1066  H     0.25976   0.40091   0.67878   0.00000  Uiso   1.00
C1067  C     0.42068   0.50000   0.74999   0.00000  Uiso   1.00
C1068  C     0.57932   0.50000   0.75001   0.00000  Uiso   1.00
C1069  C     0.49972   0.49997   0.66495   0.00000  Uiso   1.00
C1070  C     0.50028   0.49997   0.83505   0.00000  Uiso   1.00
C1071  C     0.47789   0.35815   0.71919   0.00000  Uiso   1.00
C1072  C     0.52198   0.64188   0.78089   0.00000  Uiso   1.00
C1073  C     0.52211   0.35815   0.78081   0.00000  Uiso   1.00
C1074  C     0.47802   0.64188   0.71911   0.00000  Uiso   1.00
C1075  C     0.35462   0.45743   0.74976   0.00000  Uiso   1.00
C1076  C     0.64538   0.54255   0.74978   0.00000  Uiso   1.00
C1077  C     0.64538   0.45743   0.75021   0.00000  Uiso   1.00
C1078  C     0.35462   0.54255   0.75025   0.00000  Uiso   1.00
C1079  C     0.47791   0.53452   0.54697   0.00000  Uiso   1.00
C1080  C     0.47838   0.46565   0.95301   0.00000  Uiso   1.00
C1081  C     0.52213   0.53449   0.95302   0.00000  Uiso   1.00
C1082  C     0.52161   0.46563   0.54699   0.00000  Uiso   1.00
C1083  C     0.47646   0.53369   0.59315   0.00000  Uiso   1.00
C1084  C     0.47760   0.46581   0.90684   0.00000  Uiso   1.00
C1085  C     0.52358   0.53366   0.90684   0.00000  Uiso   1.00
C1086  C     0.52238   0.46579   0.59316   0.00000  Uiso   1.00
C1087  C     0.49958   0.49987   0.61654   0.00000  Uiso   1.00
C1088  C     0.50043   0.49987   0.88346   0.00000  Uiso   1.00
C1089  C     0.50002   0.50031   0.52407   0.00000  Uiso   1.00
C1090  C     0.50000   0.50031   0.97592   0.00000  Uiso   1.00
C1091  C     0.62393   0.49999   0.75000   0.00000  Uiso   1.00
C1092  C     0.37607   0.49999   0.75000   0.00000  Uiso   1.00
Cu1093 Cu    0.50000   0.54689   0.75000   0.00000  Uiso   1.00
Cu1094 Cu    0.50000   0.45311   0.75000   0.00000  Uiso   1.00
H1095  H     0.46011   0.37683   0.69455   0.00000  Uiso   1.00
H1096  H     0.53941   0.62324   0.80574   0.00000  Uiso   1.00
H1097  H     0.53989   0.37682   0.80545   0.00000  Uiso   1.00
H1098  H     0.46059   0.62324   0.69426   0.00000  Uiso   1.00
H1099  H     0.46072   0.56095   0.52899   0.00000  Uiso   1.00
H1100  H     0.46153   0.43896   0.97098   0.00000  Uiso   1.00
H1101  H     0.53935   0.56090   0.97100   0.00000  Uiso   1.00
H1102  H     0.53844   0.43893   0.52902   0.00000  Uiso   1.00
H1103  H     0.37061   0.42414   0.74940   0.00000  Uiso   1.00
H1104  H     0.62939   0.57584   0.74940   0.00000  Uiso   1.00
H1105  H     0.62939   0.42414   0.75054   0.00000  Uiso   1.00
H1106  H     0.37061   0.57584   0.75066   0.00000  Uiso   1.00
N1107  N     0.50000   0.61736   0.75000   0.00000  Uiso   1.00
N1108  N     0.50000   0.38264   0.75000   0.00000  Uiso   1.00
O1109  O     0.43988   0.53958   0.74999   0.00000  Uiso   1.00
O1110  O     0.56012   0.46042   0.75000   0.00000  Uiso   1.00
O1111  O     0.56012   0.53958   0.75000   0.00000  Uiso   1.00
O1112  O     0.43988   0.46042   0.74999   0.00000  Uiso   1.00
O1113  O     0.50000   0.53959   0.68573   0.00000  Uiso   1.00
O1114  O     0.50000   0.46041   0.81427   0.00000  Uiso   1.00
O1115  O     0.50000   0.53959   0.81427   0.00000  Uiso   1.00
O1116  O     0.50000   0.46041   0.68573   0.00000  Uiso   1.00
O1117  O     0.45224   0.56601   0.61516   0.00000  Uiso   1.00
C1118  C     0.41216   0.54722   0.61927   0.00000  Uiso   1.00
H1119  H     0.41244   0.51546   0.64074   0.00000  Uiso   1.00
H1120  H     0.39902   0.53798   0.58626   0.00000  Uiso   1.00
C1121  C     0.38401   0.58342   0.64041   0.00000  Uiso   1.00
H1122  H     0.38298   0.61557   0.61972   0.00000  Uiso   1.00
H1123  H     0.35238   0.56895   0.64341   0.00000  Uiso   1.00
H1124  H     0.39537   0.59258   0.67395   0.00000  Uiso   1.00
O1125  O     0.45599   0.43117   0.88483   0.00000  Uiso   1.00
C1126  C     0.41536   0.44703   0.87762   0.00000  Uiso   1.00
H1127  H     0.41508   0.47940   0.85696   0.00000  Uiso   1.00
H1128  H     0.39950   0.45412   0.90965   0.00000  Uiso   1.00
C1129  C     0.39138   0.40929   0.85311   0.00000  Uiso   1.00
H1130  H     0.38977   0.37700   0.87356   0.00000  Uiso   1.00
H1131  H     0.35961   0.42175   0.84625   0.00000  Uiso   1.00
H1132  H     0.40681   0.40100   0.82125   0.00000  Uiso   1.00
O1133  O     0.54781   0.56597   0.88483   0.00000  Uiso   1.00
C1134  C     0.58786   0.54710   0.88062   0.00000  Uiso   1.00
H1135  H     0.58750   0.51543   0.85903   0.00000  Uiso   1.00
H1136  H     0.60100   0.53769   0.91359   0.00000  Uiso   1.00
C1137  C     0.61606   0.58332   0.85960   0.00000  Uiso   1.00
H1138  H     0.61719   0.61536   0.88044   0.00000  Uiso   1.00
H1139  H     0.64765   0.56878   0.85649   0.00000  Uiso   1.00
H1140  H     0.60467   0.59269   0.82612   0.00000  Uiso   1.00
O1141  O     0.54396   0.43113   0.61518   0.00000  Uiso   1.00
C1142  C     0.58461   0.44693   0.62239   0.00000  Uiso   1.00
H1143  H     0.58492   0.47930   0.64303   0.00000  Uiso   1.00
H1144  H     0.60048   0.45397   0.59036   0.00000  Uiso   1.00
C1145  C     0.60853   0.40917   0.64692   0.00000  Uiso   1.00
H1146  H     0.61011   0.37686   0.62649   0.00000  Uiso   1.00
H1147  H     0.64032   0.42158   0.65378   0.00000  Uiso   1.00
H1148  H     0.59309   0.40091   0.67878   0.00000  Uiso   1.00
C1149  C     0.75402   0.50000   0.74999   0.00000  Uiso   1.00
C1150  C     0.91265   0.50000   0.75001   0.00000  Uiso   1.00
C1151  C     0.83305   0.49997   0.66495   0.00000  Uiso   1.00
C1152  C     0.83361   0.49997   0.83505   0.00000  Uiso   1.00
C1153  C     0.81122   0.35815   0.71919   0.00000  Uiso   1.00
C1154  C     0.85531   0.64188   0.78089   0.00000  Uiso   1.00
C1155  C     0.85544   0.35815   0.78081   0.00000  Uiso   1.00
C1156  C     0.81136   0.64188   0.71911   0.00000  Uiso   1.00
C1157  C     0.68795   0.45743   0.74976   0.00000  Uiso   1.00
C1158  C     0.97872   0.54255   0.74978   0.00000  Uiso   1.00
C1159  C     0.97872   0.45743   0.75021   0.00000  Uiso   1.00
C1160  C     0.68795   0.54255   0.75025   0.00000  Uiso   1.00
C1161  C     0.81124   0.53452   0.54697   0.00000  Uiso   1.00
C1162  C     0.81172   0.46565   0.95301   0.00000  Uiso   1.00
C1163  C     0.85547   0.53449   0.95302   0.00000  Uiso   1.00
C1164  C     0.85494   0.46563   0.54699   0.00000  Uiso   1.00
C1165  C     0.80979   0.53369   0.59315   0.00000  Uiso   1.00
C1166  C     0.81094   0.46581   0.90684   0.00000  Uiso   1.00
C1167  C     0.85691   0.53366   0.90684   0.00000  Uiso   1.00
C1168  C     0.85571   0.46579   0.59316   0.00000  Uiso   1.00
C1169  C     0.83291   0.49987   0.61654   0.00000  Uiso   1.00
C1170  C     0.83376   0.49987   0.88346   0.00000  Uiso   1.00
C1171  C     0.83335   0.50031   0.52407   0.00000  Uiso   1.00
C1172  C     0.83333   0.50031   0.97592   0.00000  Uiso   1.00
C1173  C     0.95726   0.49999   0.75000   0.00000  Uiso   1.00
C1174  C     0.70941   0.49999   0.75000   0.00000  Uiso   1.00
Cu1175 Cu    0.83333   0.54689   0.75000   0.00000  Uiso   1.00
Cu1176 Cu    0.83333   0.45311   0.75000   0.00000  Uiso   1.00
H1177  H     0.79345   0.37683   0.69455   0.00000  Uiso   1.00
H1178  H     0.87275   0.62324   0.80574   0.00000  Uiso   1.00
H1179  H     0.87322   0.37682   0.80545   0.00000  Uiso   1.00
H1180  H     0.79392   0.62324   0.69426   0.00000  Uiso   1.00
H1181  H     0.79405   0.56095   0.52899   0.00000  Uiso   1.00
H1182  H     0.79486   0.43896   0.97098   0.00000  Uiso   1.00
H1183  H     0.87268   0.56090   0.97100   0.00000  Uiso   1.00
H1184  H     0.87177   0.43893   0.52902   0.00000  Uiso   1.00
H1185  H     0.70395   0.42414   0.74940   0.00000  Uiso   1.00
H1186  H     0.96272   0.57584   0.74940   0.00000  Uiso   1.00
H1187  H     0.96272   0.42414   0.75054   0.00000  Uiso   1.00
H1188  H     0.70394   0.57584   0.75066   0.00000  Uiso   1.00
N1189  N     0.83333   0.61736   0.75000   0.00000  Uiso   1.00
N1190  N     0.83333   0.38264   0.75000   0.00000  Uiso   1.00
O1191  O     0.77321   0.53958   0.74999   0.00000  Uiso   1.00
O1192  O     0.89345   0.46042   0.75000   0.00000  Uiso   1.00
O1193  O     0.89345   0.53958   0.75000   0.00000  Uiso   1.00
O1194  O     0.77321   0.46042   0.74999   0.00000  Uiso   1.00
O1195  O     0.83333   0.53959   0.68573   0.00000  Uiso   1.00
O1196  O     0.83334   0.46041   0.81427   0.00000  Uiso   1.00
O1197  O     0.83334   0.53959   0.81427   0.00000  Uiso   1.00
O1198  O     0.83333   0.46041   0.68573   0.00000  Uiso   1.00
O1199  O     0.78558   0.56601   0.61516   0.00000  Uiso   1.00
C1200  C     0.74550   0.54722   0.61927   0.00000  Uiso   1.00
H1201  H     0.74578   0.51546   0.64074   0.00000  Uiso   1.00
H1202  H     0.73236   0.53798   0.58626   0.00000  Uiso   1.00
C1203  C     0.71734   0.58342   0.64041   0.00000  Uiso   1.00
H1204  H     0.71631   0.61557   0.61972   0.00000  Uiso   1.00
H1205  H     0.68572   0.56895   0.64341   0.00000  Uiso   1.00
H1206  H     0.72871   0.59258   0.67395   0.00000  Uiso   1.00
O1207  O     0.78932   0.43117   0.88483   0.00000  Uiso   1.00
C1208  C     0.74869   0.44703   0.87762   0.00000  Uiso   1.00
H1209  H     0.74841   0.47940   0.85696   0.00000  Uiso   1.00
H1210  H     0.73283   0.45412   0.90965   0.00000  Uiso   1.00
C1211  C     0.72472   0.40929   0.85311   0.00000  Uiso   1.00
H1212  H     0.72311   0.37700   0.87356   0.00000  Uiso   1.00
H1213  H     0.69294   0.42175   0.84625   0.00000  Uiso   1.00
H1214  H     0.74015   0.40100   0.82125   0.00000  Uiso   1.00
O1215  O     0.88115   0.56597   0.88483   0.00000  Uiso   1.00
C1216  C     0.92119   0.54710   0.88062   0.00000  Uiso   1.00
H1217  H     0.92083   0.51543   0.85903   0.00000  Uiso   1.00
H1218  H     0.93434   0.53769   0.91359   0.00000  Uiso   1.00
C1219  C     0.94940   0.58332   0.85960   0.00000  Uiso   1.00
H1220  H     0.95052   0.61536   0.88044   0.00000  Uiso   1.00
H1221  H     0.98098   0.56878   0.85649   0.00000  Uiso   1.00
H1222  H     0.93801   0.59269   0.82612   0.00000  Uiso   1.00
O1223  O     0.87730   0.43113   0.61518   0.00000  Uiso   1.00
C1224  C     0.91794   0.44693   0.62239   0.00000  Uiso   1.00
H1225  H     0.91825   0.47930   0.64303   0.00000  Uiso   1.00
H1226  H     0.93381   0.45397   0.59036   0.00000  Uiso   1.00
C1227  C     0.94187   0.40917   0.64692   0.00000  Uiso   1.00
H1228  H     0.94344   0.37686   0.62649   0.00000  Uiso   1.00
H1229  H     0.97365   0.42158   0.65378   0.00000  Uiso   1.00
H1230  H     0.92642   0.40091   0.67878   0.00000  Uiso   1.00
C1231  C     0.08735   0.83333   0.74999   0.00000  Uiso   1.00
C1232  C     0.24598   0.83333   0.75001   0.00000  Uiso   1.00
C1233  C     0.16639   0.83331   0.66495   0.00000  Uiso   1.00
C1234  C     0.16695   0.83331   0.83505   0.00000  Uiso   1.00
C1235  C     0.14456   0.69148   0.71919   0.00000  Uiso   1.00
C1236  C     0.18864   0.97522   0.78089   0.00000  Uiso   1.00
C1237  C     0.18878   0.69148   0.78081   0.00000  Uiso   1.00
C1238  C     0.14469   0.97522   0.71911   0.00000  Uiso   1.00
C1239  C     0.02128   0.79077   0.74976   0.00000  Uiso   1.00
C1240  C     0.31205   0.87589   0.74978   0.00000  Uiso   1.00
C1241  C     0.31205   0.79077   0.75021   0.00000  Uiso   1.00
C1242  C     0.02128   0.87589   0.75025   0.00000  Uiso   1.00
C1243  C     0.14457   0.86785   0.54697   0.00000  Uiso   1.00
C1244  C     0.14505   0.79898   0.95301   0.00000  Uiso   1.00
C1245  C     0.18880   0.86782   0.95302   0.00000  Uiso   1.00
C1246  C     0.18827   0.79896   0.54699   0.00000  Uiso   1.00
C1247  C     0.14312   0.86702   0.59315   0.00000  Uiso   1.00
C1248  C     0.14427   0.79914   0.90684   0.00000  Uiso   1.00
C1249  C     0.19025   0.86700   0.90684   0.00000  Uiso   1.00
C1250  C     0.18905   0.79912   0.59316   0.00000  Uiso   1.00
C1251  C     0.16625   0.83321   0.61654   0.00000  Uiso   1.00
C1252  C     0.16709   0.83320   0.88346   0.00000  Uiso   1.00
C1253  C     0.16668   0.83364   0.52407   0.00000  Uiso   1.00
C1254  C     0.16667   0.83364   0.97592   0.00000  Uiso   1.00
C1255  C     0.29059   0.83333   0.75000   0.00000  Uiso   1.00
C1256  C     0.04274   0.83333   0.75000   0.00000  Uiso   1.00
Cu1257 Cu    0.16667   0.88022   0.75000   0.00000  Uiso   1.00
Cu1258 Cu    0.16667   0.78645   0.75000   0.00000  Uiso   1.00
H1259  H     0.12678   0.71016   0.69455   0.00000  Uiso   1.00
H1260  H     0.20608   0.95657   0.80574   0.00000  Uiso   1.00
H1261  H     0.20656   0.71016   0.80545   0.00000  Uiso   1.00
H1262  H     0.12726   0.95658   0.69426   0.00000  Uiso   1.00
H1263  H     0.12739   0.89428   0.52899   0.00000  Uiso   1.00
H1264  H     0.12820   0.77230   0.97098   0.00000  Uiso   1.00
H1265  H     0.20601   0.89424   0.97100   0.00000  Uiso   1.00
H1266  H     0.20511   0.77226   0.52902   0.00000  Uiso   1.00
H1267  H     0.03728   0.75748   0.74940   0.00000  Uiso   1.00
H1268  H     0.29606   0.90918   0.74940   0.00000  Uiso   1.00
H1269  H     0.29606   0.75748   0.75054   0.00000  Uiso   1.00
H1270  H     0.03728   0.90918   0.75066   0.00000  Uiso   1.00
N1271  N     0.16667   0.95069   0.75000   0.00000  Uiso   1.00
N1272  N     0.16667   0.71598   0.75000   0.00000  Uiso   1.00
O1273  O     0.10655   0.87291   0.74999   0.00000  Uiso   1.00
O1274  O     0.22679   0.79375   0.75000   0.00000  Uiso   1.00
O1275  O     0.22679   0.87291   0.75000   0.00000  Uiso   1.00
O1276  O     0.10655   0.79375   0.74999   0.00000  Uiso   1.00
O1277  O     0.16666   0.87293   0.68573   0.00000  Uiso   1.00
O1278  O     0.16667   0.79374   0.81427   0.00000  Uiso   1.00
O1279  O     0.16667   0.87293   0.81427   0.00000  Uiso   1.00
O1280  O     0.16666   0.79374   0.68573   0.00000  Uiso   1.00
O1281  O     0.11891   0.89935   0.61516   0.00000  Uiso   1.00
C1282  C     0.07883   0.88055   0.61927   0.00000  Uiso   1.00
H1283  H     0.07911   0.84879   0.64074   0.00000  Uiso   1.00
H1284  H     0.06569   0.87132   0.58626   0.00000  Uiso   1.00
C1285  C     0.05067   0.91675   0.64041   0.00000  Uiso   1.00
H1286  H     0.04965   0.94890   0.61972   0.00000  Uiso   1.00
H1287  H     0.01905   0.90228   0.64341   0.00000  Uiso   1.00
H1288  H     0.06204   0.92591   0.67395   0.00000  Uiso   1.00
O1289  O     0.12265   0.76451   0.88483   0.00000  Uiso   1.00
C1290  C     0.08202   0.78036   0.87762   0.00000  Uiso   1.00
H1291  H     0.08174   0.81273   0.85696   0.00000  Uiso   1.00
H1292  H     0.06617   0.78745   0.90965   0.00000  Uiso   1.00
C1293  C     0.05805   0.74263   0.85311   0.00000  Uiso   1.00
H1294  H     0.05644   0.71034   0.87356   0.00000  Uiso   1.00
H1295  H     0.02628   0.75508   0.84625   0.00000  Uiso   1.00
H1296  H     0.07348   0.73433   0.82125   0.00000  Uiso   1.00
O1297  O     0.21448   0.89931   0.88483   0.00000  Uiso   1.00
C1298  C     0.25452   0.88043   0.88062   0.00000  Uiso   1.00
H1299  H     0.25417   0.84877   0.85903   0.00000  Uiso   1.00
H1300  H     0.26767   0.87102   0.91359   0.00000  Uiso   1.00
C1301  C     0.28273   0.91666   0.85960   0.00000  Uiso   1.00
H1302  H     0.28386   0.94870   0.88044   0.00000  Uiso   1.00
H1303  H     0.31432   0.90211   0.85649   0.00000  Uiso   1.00
H1304  H     0.27134   0.92602   0.82612   0.00000  Uiso   1.00
O1305  O     0.21063   0.76446   0.61518   0.00000  Uiso   1.00
C1306  C     0.25127   0.78026   0.62239   0.00000  Uiso   1.00
H1307  H     0.25159   0.81264   0.64303   0.00000  Uiso   1.00
H1308  H     0.26714   0.78731   0.59036   0.00000  Uiso   1.00
C1309  C     0.27520   0.74250   0.64692   0.00000  Uiso   1.00
H1310  H     0.27677   0.71020   0.62649   0.00000  Uiso   1.00
H1311  H     0.30699   0.75491   0.65378   0.00000  Uiso   1.00
H1312  H     0.25976   0.73425   0.67878   0.00000  Uiso   1.00
C1313  C     0.42068   0.83333   0.74999   0.00000  Uiso   1.00
C1314  C     0.57932   0.83333   0.75001   0.00000  Uiso   1.00
C1315  C     0.49972   0.83331   0.66495   0.00000  Uiso   1.00
C1316  C     0.50028   0.83331   0.83505   0.00000  Uiso   1.00
C1317  C     0.47789   0.69148   0.71919   0.00000  Uiso   1.00
C1318  C     0.52198   0.97522   0.78089   0.00000  Uiso   1.00
C1319  C     0.52211   0.69148   0.78081   0.00000  Uiso   1.00
C1320  C     0.47802   0.97522   0.71911   0.00000  Uiso   1.00
C1321  C     0.35462   0.79077   0.74976   0.00000  Uiso   1.00
C1322  C     0.64538   0.87589   0.74978   0.00000  Uiso   1.00
C1323  C     0.64538   0.79077   0.75021   0.00000  Uiso   1.00
C1324  C     0.35462   0.87589   0.75025   0.00000  Uiso   1.00
C1325  C     0.47791   0.86785   0.54697   0.00000  Uiso   1.00
C1326  C     0.47838   0.79898   0.95301   0.00000  Uiso   1.00
C1327  C     0.52213   0.86782   0.95302   0.00000  Uiso   1.00
C1328  C     0.52161   0.79896   0.54699   0.00000  Uiso   1.00
C1329  C     0.47646   0.86702   0.59315   0.00000  Uiso   1.00
C1330  C     0.47760   0.79914   0.90684   0.00000  Uiso   1.00
C1331  C     0.52358   0.86700   0.90684   0.00000  Uiso   1.00
C1332  C     0.52238   0.79912   0.59316   0.00000  Uiso   1.00
C1333  C     0.49958   0.83321   0.61654   0.00000  Uiso   1.00
C1334  C     0.50043   0.83320   0.88346   0.00000  Uiso   1.00
C1335  C     0.50002   0.83364   0.52407   0.00000  Uiso   1.00
C1336  C     0.50000   0.83364   0.97592   0.00000  Uiso   1.00
C1337  C     0.62393   0.83333   0.75000   0.00000  Uiso   1.00
C1338  C     0.37607   0.83333   0.75000   0.00000  Uiso   1.00
Cu1339 Cu    0.50000   0.88022   0.75000   0.00000  Uiso   1.00
Cu1340 Cu    0.50000   0.78645   0.75000   0.00000  Uiso   1.00
H1341  H     0.46011   0.71016   0.69455   0.00000  Uiso   1.00
H1342  H     0.53941   0.95657   0.80574   0.00000  Uiso   1.00
H1343  H     0.53989   0.71016   0.80545   0.00000  Uiso   1.00
H1344  H     0.46059   0.95658   0.69426   0.00000  Uiso   1.00
H1345  H     0.46072   0.89428   0.52899   0.00000  Uiso   1.00
H1346  H     0.46153   0.77230   0.97098   0.00000  Uiso   1.00
H1347  H     0.53935   0.89424   0.97100   0.00000  Uiso   1.00
H1348  H     0.53844   0.77226   0.52902   0.00000  Uiso   1.00
H1349  H     0.37061   0.75748   0.74940   0.00000  Uiso   1.00
H1350  H     0.62939   0.90918   0.74940   0.00000  Uiso   1.00
H1351  H     0.62939   0.75748   0.75054   0.00000  Uiso   1.00
H1352  H     0.37061   0.90918   0.75066   0.00000  Uiso   1.00
N1353  N     0.50000   0.95069   0.75000   0.00000  Uiso   1.00
N1354  N     0.50000   0.71598   0.75000   0.00000  Uiso   1.00
O1355  O     0.43988   0.87291   0.74999   0.00000  Uiso   1.00
O1356  O     0.56012   0.79375   0.75000   0.00000  Uiso   1.00
O1357  O     0.56012   0.87291   0.75000   0.00000  Uiso   1.00
O1358  O     0.43988   0.79375   0.74999   0.00000  Uiso   1.00
O1359  O     0.50000   0.87293   0.68573   0.00000  Uiso   1.00
O1360  O     0.50000   0.79374   0.81427   0.00000  Uiso   1.00
O1361  O     0.50000   0.87293   0.81427   0.00000  Uiso   1.00
O1362  O     0.50000   0.79374   0.68573   0.00000  Uiso   1.00
O1363  O     0.45224   0.89935   0.61516   0.00000  Uiso   1.00
C1364  C     0.41216   0.88055   0.61927   0.00000  Uiso   1.00
H1365  H     0.41244   0.84879   0.64074   0.00000  Uiso   1.00
H1366  H     0.39902   0.87132   0.58626   0.00000  Uiso   1.00
C1367  C     0.38401   0.91675   0.64041   0.00000  Uiso   1.00
H1368  H     0.38298   0.94890   0.61972   0.00000  Uiso   1.00
H1369  H     0.35238   0.90228   0.64341   0.00000  Uiso   1.00
H1370  H     0.39537   0.92591   0.67395   0.00000  Uiso   1.00
O1371  O     0.45599   0.76451   0.88483   0.00000  Uiso   1.00
C1372  C     0.41536   0.78036   0.87762   0.00000  Uiso   1.00
H1373  H     0.41508   0.81273   0.85696   0.00000  Uiso   1.00
H1374  H     0.39950   0.78745   0.90965   0.00000  Uiso   1.00
C1375  C     0.39138   0.74263   0.85311   0.00000  Uiso   1.00
H1376  H     0.38977   0.71034   0.87356   0.00000  Uiso   1.00
H1377  H     0.35961   0.75508   0.84625   0.00000  Uiso   1.00
H1378  H     0.40681   0.73433   0.82125   0.00000  Uiso   1.00
O1379  O     0.54781   0.89931   0.88483   0.00000  Uiso   1.00
C1380  C     0.58786   0.88043   0.88062   0.00000  Uiso   1.00
H1381  H     0.58750   0.84877   0.85903   0.00000  Uiso   1.00
H1382  H     0.60100   0.87102   0.91359   0.00000  Uiso   1.00
C1383  C     0.61606   0.91666   0.85960   0.00000  Uiso   1.00
H1384  H     0.61719   0.94870   0.88044   0.00000  Uiso   1.00
H1385  H     0.64765   0.90211   0.85649   0.00000  Uiso   1.00
H1386  H     0.60467   0.92602   0.82612   0.00000  Uiso   1.00
O1387  O     0.54396   0.76446   0.61518   0.00000  Uiso   1.00
C1388  C     0.58461   0.78026   0.62239   0.00000  Uiso   1.00
H1389  H     0.58492   0.81264   0.64303   0.00000  Uiso   1.00
H1390  H     0.60048   0.78731   0.59036   0.00000  Uiso   1.00
C1391  C     0.60853   0.74250   0.64692   0.00000  Uiso   1.00
H1392  H     0.61011   0.71020   0.62649   0.00000  Uiso   1.00
H1393  H     0.64032   0.75491   0.65378   0.00000  Uiso   1.00
H1394  H     0.59309   0.73425   0.67878   0.00000  Uiso   1.00
C1395  C     0.75402   0.83333   0.74999   0.00000  Uiso   1.00
C1396  C     0.91265   0.83333   0.75001   0.00000  Uiso   1.00
C1397  C     0.83305   0.83331   0.66495   0.00000  Uiso   1.00
C1398  C     0.83361   0.83331   0.83505   0.00000  Uiso   1.00
C1399  C     0.81122   0.69148   0.71919   0.00000  Uiso   1.00
C1400  C     0.85531   0.97522   0.78089   0.00000  Uiso   1.00
C1401  C     0.85544   0.69148   0.78081   0.00000  Uiso   1.00
C1402  C     0.81136   0.97522   0.71911   0.00000  Uiso   1.00
C1403  C     0.68795   0.79077   0.74976   0.00000  Uiso   1.00
C1404  C     0.97872   0.87589   0.74978   0.00000  Uiso   1.00
C1405  C     0.97872   0.79077   0.75021   0.00000  Uiso   1.00
C1406  C     0.68795   0.87589   0.75025   0.00000  Uiso   1.00
C1407  C     0.81124   0.86785   0.54697   0.00000  Uiso   1.00
C1408  C     0.81172   0.79898   0.95301   0.00000  Uiso   1.00
C1409  C     0.85547   0.86782   0.95302   0.00000  Uiso   1.00
C1410  C     0.85494   0.79896   0.54699   0.00000  Uiso   1.00
C1411  C     0.80979   0.86702   0.59315   0.00000  Uiso   1.00
C1412  C     0.81094   0.79914   0.90684   0.00000  Uiso   1.00
C1413  C     0.85691   0.86700   0.90684   0.00000  Uiso   1.00
C1414  C     0.85571   0.79912   0.59316   0.00000  Uiso   1.00
C1415  C     0.83291   0.83321   0.61654   0.00000  Uiso   1.00
C1416  C     0.83376   0.83320   0.88346   0.00000  Uiso   1.00
C1417  C     0.83335   0.83364   0.52407   0.00000  Uiso   1.00
C1418  C     0.83333   0.83364   0.97592   0.00000  Uiso   1.00
C1419  C     0.95726   0.83333   0.75000   0.00000  Uiso   1.00
C1420  C     0.70941   0.83333   0.75000   0.00000  Uiso   1.00
Cu1421 Cu    0.83333   0.88022   0.75000   0.00000  Uiso   1.00
Cu1422 Cu    0.83333   0.78645   0.75000   0.00000  Uiso   1.00
H1423  H     0.79345   0.71016   0.69455   0.00000  Uiso   1.00
H1424  H     0.87275   0.95657   0.80574   0.00000  Uiso   1.00
H1425  H     0.87322   0.71016   0.80545   0.00000  Uiso   1.00
H1426  H     0.79392   0.95658   0.69426   0.00000  Uiso   1.00
H1427  H     0.79405   0.89428   0.52899   0.00000  Uiso   1.00
H1428  H     0.79486   0.77230   0.97098   0.00000  Uiso   1.00
H1429  H     0.87268   0.89424   0.97100   0.00000  Uiso   1.00
H1430  H     0.87177   0.77226   0.52902   0.00000  Uiso   1.00
H1431  H     0.70395   0.75748   0.74940   0.00000  Uiso   1.00
H1432  H     0.96272   0.90918   0.74940   0.00000  Uiso   1.00
H1433  H     0.96272   0.75748   0.75054   0.00000  Uiso   1.00
H1434  H     0.70394   0.90918   0.75066   0.00000  Uiso   1.00
N1435  N     0.83333   0.95069   0.75000   0.00000  Uiso   1.00
N1436  N     0.83333   0.71598   0.75000   0.00000  Uiso   1.00
O1437  O     0.77321   0.87291   0.74999   0.00000  Uiso   1.00
O1438  O     0.89345   0.79375   0.75000   0.00000  Uiso   1.00
O1439  O     0.89345   0.87291   0.75000   0.00000  Uiso   1.00
O1440  O     0.77321   0.79375   0.74999   0.00000  Uiso   1.00
O1441  O     0.83333   0.87293   0.68573   0.00000  Uiso   1.00
O1442  O     0.83334   0.79374   0.81427   0.00000  Uiso   1.00
O1443  O     0.83334   0.87293   0.81427   0.00000  Uiso   1.00
O1444  O     0.83333   0.79374   0.68573   0.00000  Uiso   1.00
O1445  O     0.78558   0.89935   0.61516   0.00000  Uiso   1.00
C1446  C     0.74550   0.88055   0.61927   0.00000  Uiso   1.00
H1447  H     0.74578   0.84879   0.64074   0.00000  Uiso   1.00
H1448  H     0.73236   0.87132   0.58626   0.00000  Uiso   1.00
C1449  C     0.71734   0.91675   0.64041   0.00000  Uiso   1.00
H1450  H     0.71631   0.94890   0.61972   0.00000  Uiso   1.00
H1451  H     0.68572   0.90228   0.64341   0.00000  Uiso   1.00
H1452  H     0.72871   0.92591   0.67395   0.00000  Uiso   1.00
O1453  O     0.78932   0.76451   0.88483   0.00000  Uiso   1.00
C1454  C     0.74869   0.78036   0.87762   0.00000  Uiso   1.00
H1455  H     0.74841   0.81273   0.85696   0.00000  Uiso   1.00
H1456  H     0.73283   0.78745   0.90965   0.00000  Uiso   1.00
C1457  C     0.72472   0.74263   0.85311   0.00000  Uiso   1.00
H1458  H     0.72311   0.71034   0.87356   0.00000  Uiso   1.00
H1459  H     0.69294   0.75508   0.84625   0.00000  Uiso   1.00
H1460  H     0.74015   0.73433   0.82125   0.00000  Uiso   1.00
O1461  O     0.88115   0.89931   0.88483   0.00000  Uiso   1.00
C1462  C     0.92119   0.88043   0.88062   0.00000  Uiso   1.00
H1463  H     0.92083   0.84877   0.85903   0.00000  Uiso   1.00
H1464  H     0.93434   0.87102   0.91359   0.00000  Uiso   1.00
C1465  C     0.94940   0.91666   0.85960   0.00000  Uiso   1.00
H1466  H     0.95052   0.94870   0.88044   0.00000  Uiso   1.00
H1467  H     0.98098   0.90211   0.85649   0.00000  Uiso   1.00
H1468  H     0.93801   0.92602   0.82612   0.00000  Uiso   1.00
O1469  O     0.87730   0.76446   0.61518   0.00000  Uiso   1.00
C1470  C     0.91794   0.78026   0.62239   0.00000  Uiso   1.00
H1471  H     0.91825   0.81264   0.64303   0.00000  Uiso   1.00
H1472  H     0.93381   0.78731   0.59036   0.00000  Uiso   1.00
C1473  C     0.94187   0.74250   0.64692   0.00000  Uiso   1.00
H1474  H     0.94344   0.71020   0.62649   0.00000  Uiso   1.00
H1475  H     0.97365   0.75491   0.65378   0.00000  Uiso   1.00
H1476  H     0.92642   0.73425   0.67878   0.00000  Uiso   1.00
loop_
_geom_bond_atom_site_label_1
_geom_bond_atom_site_label_2
_geom_bond_distance
_geom_bond_site_symmetry_2
_ccdc_geom_bond_type
C1     O46     1.290   .     A
C1     O43     1.290   .     A
C1     C26     1.449   .     S
C2     O44     1.290   .     A
C2     O45     1.290   .     A
C2     C25     1.449   .     S
C3     O50     1.292   .     A
C3     C21     1.461   .     S
C3     O47     1.293   .     A
C4     C22     1.461   .     S
C4     O48     1.292   .     A
C4     O49     1.293   .     A
C5     N42     1.367   .     A
C5     H29     1.082   .     S
C5     C500    1.416   1_545 S
C6     N41     1.367   .     A
C6     H30     1.079   .     S
C6     C253    1.416   .     S
C7     N42     1.367   .     A
C7     H31     1.082   .     S
C7     C498    1.416   1_545 S
C8     H32     1.079   .     S
C8     N41     1.367   .     A
C8     C251    1.416   .     S
C9     C26     1.401   .     A
C9     H37     1.083   .     S
C9     C175    1.382   1_455 S
C10    C25     1.401   .     A
C10    H38     1.083   .     S
C10    C94     1.382   .     S
C11    C25     1.401   .     A
C11    H39     1.083   .     S
C11    C91     1.382   .     S
C12    C26     1.400   .     A
C12    H40     1.083   .     S
C12    C174    1.382   1_455 S
C13    C23     1.396   .     A
C13    H33     1.084   .     S
C13    C17     1.395   .     A
C14    C18     1.394   .     A
C14    C24     1.396   .     A
C14    H34     1.084   .     S
C15    C19     1.395   .     A
C15    H35     1.084   .     S
C15    C24     1.396   .     A
C16    C20     1.394   .     A
C16    C23     1.396   .     A
C16    H36     1.084   .     S
C17    O51     1.383   .     S
C17    C21     1.412   .     A
C18    C22     1.412   .     A
C18    O59     1.382   .     S
C19    O67     1.383   .     S
C19    C22     1.412   .     A
C20    O75     1.382   .     S
C20    C21     1.412   .     A
C23    C762    1.453   1_554 S
C24    C761    1.453   .     S
Cu27   O45     1.963   .     S
Cu27   N41     2.011   .     S
Cu27   O47     1.951   .     S
Cu27   O43     1.963   .     S
Cu27   Cu28    2.677   .     S
Cu27   O49     1.951   .     S
Cu28   O46     1.963   .     S
Cu28   N42     2.011   .     S
Cu28   O50     1.951   .     S
Cu28   O44     1.963   .     S
Cu28   O48     1.951   .     S
O51    C52     1.413   .     S
C52    C55     1.521   .     S
C52    H54     1.115   .     S
C52    H53     1.114   .     S
C55    H56     1.111   .     S
C55    H57     1.111   .     S
C55    H58     1.108   .     S
O59    C60     1.412   .     S
C60    C63     1.521   .     S
C60    H62     1.115   .     S
C60    H61     1.115   .     S
C63    H65     1.111   .     S
C63    H66     1.111   .     S
C63    H64     1.111   .     S
O67    C68     1.413   .     S
C68    H69     1.114   .     S
C68    C71     1.521   .     S
C68    H70     1.115   .     S
C71    H74     1.108   .     S
C71    H73     1.111   .     S
C71    H72     1.111   .     S
O75    C76     1.411   .     S
C76    C79     1.521   .     S
C76    H78     1.115   .     S
C76    H77     1.115   .     S
C79    H81     1.111   .     S
C79    H82     1.111   .     S
C79    H80     1.111   .     S
C83    O128    1.290   .     A
C83    O125    1.290   .     A
C83    C108    1.449   .     S
C84    O126    1.290   .     A
C84    O127    1.290   .     A
C84    C107    1.449   .     S
C85    O132    1.292   .     A
C85    C103    1.461   .     S
C85    O129    1.293   .     A
C86    C104    1.461   .     S
C86    O130    1.292   .     A
C86    O131    1.293   .     A
C87    N124    1.367   .     A
C87    H111    1.082   .     S
C87    C582    1.416   1_545 S
C88    N123    1.367   .     A
C88    H112    1.079   .     S
C88    C335    1.416   .     S
C89    N124    1.367   .     A
C89    H113    1.082   .     S
C89    C580    1.416   1_545 S
C90    H114    1.079   .     S
C90    N123    1.367   .     A
C90    C333    1.416   .     S
C91    C108    1.401   .     A
C91    H119    1.083   .     S
C92    C107    1.401   .     A
C92    H120    1.083   .     S
C92    C176    1.382   .     S
C93    C107    1.401   .     A
C93    H121    1.083   .     S
C93    C173    1.382   .     S
C94    C108    1.400   .     A
C94    H122    1.083   .     S
C95    C105    1.396   .     A
C95    H115    1.084   .     S
C95    C99     1.395   .     A
C96    C100    1.394   .     A
C96    C106    1.396   .     A
C96    H116    1.084   .     S
C97    C101    1.395   .     A
C97    H117    1.084   .     S
C97    C106    1.396   .     A
C98    C102    1.394   .     A
C98    C105    1.396   .     A
C98    H118    1.084   .     S
C99    O133    1.383   .     S
C99    C103    1.412   .     A
C100   C104    1.412   .     A
C100   O141    1.382   .     S
C101   O149    1.383   .     S
C101   C104    1.412   .     A
C102   O157    1.382   .     S
C102   C103    1.412   .     A
C105   C844    1.453   1_554 S
C106   C843    1.453   .     S
Cu109  O127    1.963   .     S
Cu109  N123    2.011   .     S
Cu109  O129    1.951   .     S
Cu109  O125    1.963   .     S
Cu109  Cu110   2.677   .     S
Cu109  O131    1.951   .     S
Cu110  O128    1.963   .     S
Cu110  N124    2.011   .     S
Cu110  O132    1.951   .     S
Cu110  O126    1.963   .     S
Cu110  O130    1.951   .     S
O133   C134    1.413   .     S
C134   C137    1.521   .     S
C134   H136    1.115   .     S
C134   H135    1.114   .     S
C137   H138    1.111   .     S
C137   H139    1.111   .     S
C137   H140    1.108   .     S
O141   C142    1.412   .     S
C142   C145    1.521   .     S
C142   H144    1.115   .     S
C142   H143    1.115   .     S
C145   H147    1.111   .     S
C145   H148    1.111   .     S
C145   H146    1.111   .     S
O149   C150    1.413   .     S
C150   H151    1.114   .     S
C150   C153    1.521   .     S
C150   H152    1.115   .     S
C153   H156    1.108   .     S
C153   H155    1.111   .     S
C153   H154    1.111   .     S
O157   C158    1.411   .     S
C158   C161    1.521   .     S
C158   H160    1.115   .     S
C158   H159    1.115   .     S
C161   H163    1.111   .     S
C161   H164    1.111   .     S
C161   H162    1.111   .     S
C165   O210    1.290   .     A
C165   O207    1.290   .     A
C165   C190    1.449   .     S
C166   O208    1.290   .     A
C166   O209    1.290   .     A
C166   C189    1.449   .     S
C167   O214    1.292   .     A
C167   C185    1.461   .     S
C167   O211    1.293   .     A
C168   C186    1.461   .     S
C168   O212    1.292   .     A
C168   O213    1.293   .     A
C169   N206    1.367   .     A
C169   H193    1.082   .     S
C169   C664    1.416   1_545 S
C170   N205    1.367   .     A
C170   H194    1.079   .     S
C170   C417    1.416   .     S
C171   N206    1.367   .     A
C171   H195    1.082   .     S
C171   C662    1.416   1_545 S
C172   H196    1.079   .     S
C172   N205    1.367   .     A
C172   C415    1.416   .     S
C173   C190    1.401   .     A
C173   H201    1.083   .     S
C174   C189    1.401   .     A
C174   H202    1.083   .     S
C174   C12     1.382   1_655 S
C175   C189    1.401   .     A
C175   H203    1.083   .     S
C175   C9      1.382   1_655 S
C176   C190    1.400   .     A
C176   H204    1.083   .     S
C177   C187    1.396   .     A
C177   H197    1.084   .     S
C177   C181    1.395   .     A
C178   C182    1.394   .     A
C178   C188    1.396   .     A
C178   H198    1.084   .     S
C179   C183    1.395   .     A
C179   H199    1.084   .     S
C179   C188    1.396   .     A
C180   C184    1.394   .     A
C180   C187    1.396   .     A
C180   H200    1.084   .     S
C181   O215    1.383   .     S
C181   C185    1.412   .     A
C182   C186    1.412   .     A
C182   O223    1.382   .     S
C183   O231    1.383   .     S
C183   C186    1.412   .     A
C184   O239    1.382   .     S
C184   C185    1.412   .     A
C187   C926    1.453   1_554 S
C188   C925    1.453   .     S
Cu191  O209    1.963   .     S
Cu191  N205    2.011   .     S
Cu191  O211    1.951   .     S
Cu191  O207    1.963   .     S
Cu191  Cu192   2.677   .     S
Cu191  O213    1.951   .     S
Cu192  O210    1.963   .     S
Cu192  N206    2.011   .     S
Cu192  O214    1.951   .     S
Cu192  O208    1.963   .     S
Cu192  O212    1.951   .     S
O215   C216    1.413   .     S
C216   C219    1.521   .     S
C216   H218    1.115   .     S
C216   H217    1.114   .     S
C219   H220    1.111   .     S
C219   H221    1.111   .     S
C219   H222    1.108   .     S
O223   C224    1.412   .     S
C224   C227    1.521   .     S
C224   H226    1.115   .     S
C224   H225    1.115   .     S
C227   H229    1.111   .     S
C227   H230    1.111   .     S
C227   H228    1.111   .     S
O231   C232    1.413   .     S
C232   H233    1.114   .     S
C232   C235    1.521   .     S
C232   H234    1.115   .     S
C235   H238    1.108   .     S
C235   H237    1.111   .     S
C235   H236    1.111   .     S
O239   C240    1.411   .     S
C240   C243    1.521   .     S
C240   H242    1.115   .     S
C240   H241    1.115   .     S
C243   H245    1.111   .     S
C243   H246    1.111   .     S
C243   H244    1.111   .     S
C247   O292    1.290   .     A
C247   O289    1.290   .     A
C247   C272    1.449   .     S
C248   O290    1.290   .     A
C248   O291    1.290   .     A
C248   C271    1.449   .     S
C249   O296    1.292   .     A
C249   C267    1.461   .     S
C249   O293    1.293   .     A
C250   C268    1.461   .     S
C250   O294    1.292   .     A
C250   O295    1.293   .     A
C251   N288    1.367   .     A
C251   H275    1.082   .     S
C252   N287    1.367   .     A
C252   H276    1.079   .     S
C252   C499    1.416   .     S
C253   N288    1.367   .     A
C253   H277    1.082   .     S
C254   H278    1.079   .     S
C254   N287    1.367   .     A
C254   C497    1.416   .     S
C255   C272    1.401   .     A
C255   H283    1.083   .     S
C255   C421    1.382   1_455 S
C256   C271    1.401   .     A
C256   H284    1.083   .     S
C256   C340    1.382   .     S
C257   C271    1.401   .     A
C257   H285    1.083   .     S
C257   C337    1.382   .     S
C258   C272    1.400   .     A
C258   H286    1.083   .     S
C258   C420    1.382   1_455 S
C259   C269    1.396   .     A
C259   H279    1.084   .     S
C259   C263    1.395   .     A
C260   C264    1.394   .     A
C260   C270    1.396   .     A
C260   H280    1.084   .     S
C261   C265    1.395   .     A
C261   H281    1.084   .     S
C261   C270    1.396   .     A
C262   C266    1.394   .     A
C262   C269    1.396   .     A
C262   H282    1.084   .     S
C263   O297    1.383   .     S
C263   C267    1.412   .     A
C264   C268    1.412   .     A
C264   O305    1.382   .     S
C265   O313    1.383   .     S
C265   C268    1.412   .     A
C266   O321    1.382   .     S
C266   C267    1.412   .     A
C269   C1008   1.453   1_554 S
C270   C1007   1.453   .     S
Cu273  O291    1.963   .     S
Cu273  N287    2.011   .     S
Cu273  O293    1.951   .     S
Cu273  O289    1.963   .     S
Cu273  Cu274   2.677   .     S
Cu273  O295    1.951   .     S
Cu274  O292    1.963   .     S
Cu274  N288    2.011   .     S
Cu274  O296    1.951   .     S
Cu274  O290    1.963   .     S
Cu274  O294    1.951   .     S
O297   C298    1.413   .     S
C298   C301    1.521   .     S
C298   H300    1.115   .     S
C298   H299    1.114   .     S
C301   H302    1.111   .     S
C301   H303    1.111   .     S
C301   H304    1.108   .     S
O305   C306    1.412   .     S
C306   C309    1.521   .     S
C306   H308    1.115   .     S
C306   H307    1.115   .     S
C309   H311    1.111   .     S
C309   H312    1.111   .     S
C309   H310    1.111   .     S
O313   C314    1.413   .     S
C314   H315    1.114   .     S
C314   C317    1.521   .     S
C314   H316    1.115   .     S
C317   H320    1.108   .     S
C317   H319    1.111   .     S
C317   H318    1.111   .     S
O321   C322    1.411   .     S
C322   C325    1.521   .     S
C322   H324    1.115   .     S
C322   H323    1.115   .     S
C325   H327    1.111   .     S
C325   H328    1.111   .     S
C325   H326    1.111   .     S
C329   O374    1.290   .     A
C329   O371    1.290   .     A
C329   C354    1.449   .     S
C330   O372    1.290   .     A
C330   O373    1.290   .     A
C330   C353    1.449   .     S
C331   O378    1.292   .     A
C331   C349    1.461   .     S
C331   O375    1.293   .     A
C332   C350    1.461   .     S
C332   O376    1.292   .     A
C332   O377    1.293   .     A
C333   N370    1.367   .     A
C333   H357    1.082   .     S
C334   N369    1.367   .     A
C334   H358    1.079   .     S
C334   C581    1.416   .     S
C335   N370    1.367   .     A
C335   H359    1.082   .     S
C336   H360    1.079   .     S
C336   N369    1.367   .     A
C336   C579    1.416   .     S
C337   C354    1.401   .     A
C337   H365    1.083   .     S
C338   C353    1.401   .     A
C338   H366    1.083   .     S
C338   C422    1.382   .     S
C339   C353    1.401   .     A
C339   H367    1.083   .     S
C339   C419    1.382   .     S
C340   C354    1.400   .     A
C340   H368    1.083   .     S
C341   C351    1.396   .     A
C341   H361    1.084   .     S
C341   C345    1.395   .     A
C342   C346    1.394   .     A
C342   C352    1.396   .     A
C342   H362    1.084   .     S
C343   C347    1.395   .     A
C343   H363    1.084   .     S
C343   C352    1.396   .     A
C344   C348    1.394   .     A
C344   C351    1.396   .     A
C344   H364    1.084   .     S
C345   O379    1.383   .     S
C345   C349    1.412   .     A
C346   C350    1.412   .     A
C346   O387    1.382   .     S
C347   O395    1.383   .     S
C347   C350    1.412   .     A
C348   O403    1.382   .     S
C348   C349    1.412   .     A
C351   C1090   1.453   1_554 S
C352   C1089   1.453   .     S
Cu355  O373    1.963   .     S
Cu355  N369    2.011   .     S
Cu355  O375    1.951   .     S
Cu355  O371    1.963   .     S
Cu355  Cu356   2.677   .     S
Cu355  O377    1.951   .     S
Cu356  O374    1.963   .     S
Cu356  N370    2.011   .     S
Cu356  O378    1.951   .     S
Cu356  O372    1.963   .     S
Cu356  O376    1.951   .     S
O379   C380    1.413   .     S
C380   C383    1.521   .     S
C380   H382    1.115   .     S
C380   H381    1.114   .     S
C383   H384    1.111   .     S
C383   H385    1.111   .     S
C383   H386    1.108   .     S
O387   C388    1.412   .     S
C388   C391    1.521   .     S
C388   H390    1.115   .     S
C388   H389    1.115   .     S
C391   H393    1.111   .     S
C391   H394    1.111   .     S
C391   H392    1.111   .     S
O395   C396    1.413   .     S
C396   H397    1.114   .     S
C396   C399    1.521   .     S
C396   H398    1.115   .     S
C399   H402    1.108   .     S
C399   H401    1.111   .     S
C399   H400    1.111   .     S
O403   C404    1.411   .     S
C404   C407    1.521   .     S
C404   H406    1.115   .     S
C404   H405    1.115   .     S
C407   H409    1.111   .     S
C407   H410    1.111   .     S
C407   H408    1.111   .     S
C411   O456    1.290   .     A
C411   O453    1.290   .     A
C411   C436    1.449   .     S
C412   O454    1.290   .     A
C412   O455    1.290   .     A
C412   C435    1.449   .     S
C413   O460    1.292   .     A
C413   C431    1.461   .     S
C413   O457    1.293   .     A
C414   C432    1.461   .     S
C414   O458    1.292   .     A
C414   O459    1.293   .     A
C415   N452    1.367   .     A
C415   H439    1.082   .     S
C416   N451    1.367   .     A
C416   H440    1.079   .     S
C416   C663    1.416   .     S
C417   N452    1.367   .     A
C417   H441    1.082   .     S
C418   H442    1.079   .     S
C418   N451    1.367   .     A
C418   C661    1.416   .     S
C419   C436    1.401   .     A
C419   H447    1.083   .     S
C420   C435    1.401   .     A
C420   H448    1.083   .     S
C420   C258    1.382   1_655 S
C421   C435    1.401   .     A
C421   H449    1.083   .     S
C421   C255    1.382   1_655 S
C422   C436    1.400   .     A
C422   H450    1.083   .     S
C423   C433    1.396   .     A
C423   H443    1.084   .     S
C423   C427    1.395   .     A
C424   C428    1.394   .     A
C424   C434    1.396   .     A
C424   H444    1.084   .     S
C425   C429    1.395   .     A
C425   H445    1.084   .     S
C425   C434    1.396   .     A
C426   C430    1.394   .     A
C426   C433    1.396   .     A
C426   H446    1.084   .     S
C427   O461    1.383   .     S
C427   C431    1.412   .     A
C428   C432    1.412   .     A
C428   O469    1.382   .     S
C429   O477    1.383   .     S
C429   C432    1.412   .     A
C430   O485    1.382   .     S
C430   C431    1.412   .     A
C433   C1172   1.453   1_554 S
C434   C1171   1.453   .     S
Cu437  O455    1.963   .     S
Cu437  N451    2.011   .     S
Cu437  O457    1.951   .     S
Cu437  O453    1.963   .     S
Cu437  Cu438   2.677   .     S
Cu437  O459    1.951   .     S
Cu438  O456    1.963   .     S
Cu438  N452    2.011   .     S
Cu438  O460    1.951   .     S
Cu438  O454    1.963   .     S
Cu438  O458    1.951   .     S
O461   C462    1.413   .     S
C462   C465    1.521   .     S
C462   H464    1.115   .     S
C462   H463    1.114   .     S
C465   H466    1.111   .     S
C465   H467    1.111   .     S
C465   H468    1.108   .     S
O469   C470    1.412   .     S
C470   C473    1.521   .     S
C470   H472    1.115   .     S
C470   H471    1.115   .     S
C473   H475    1.111   .     S
C473   H476    1.111   .     S
C473   H474    1.111   .     S
O477   C478    1.413   .     S
C478   H479    1.114   .     S
C478   C481    1.521   .     S
C478   H480    1.115   .     S
C481   H484    1.108   .     S
C481   H483    1.111   .     S
C481   H482    1.111   .     S
O485   C486    1.411   .     S
C486   C489    1.521   .     S
C486   H488    1.115   .     S
C486   H487    1.115   .     S
C489   H491    1.111   .     S
C489   H492    1.111   .     S
C489   H490    1.111   .     S
C493   O538    1.290   .     A
C493   O535    1.290   .     A
C493   C518    1.449   .     S
C494   O536    1.290   .     A
C494   O537    1.290   .     A
C494   C517    1.449   .     S
C495   O542    1.292   .     A
C495   C513    1.461   .     S
C495   O539    1.293   .     A
C496   C514    1.461   .     S
C496   O540    1.292   .     A
C496   O541    1.293   .     A
C497   N534    1.367   .     A
C497   H521    1.082   .     S
C498   N533    1.367   .     A
C498   H522    1.079   .     S
C498   C7      1.416   1_565 S
C499   N534    1.367   .     A
C499   H523    1.082   .     S
C500   H524    1.079   .     S
C500   N533    1.367   .     A
C500   C5      1.416   1_565 S
C501   C518    1.401   .     A
C501   H529    1.083   .     S
C501   C667    1.382   1_455 S
C502   C517    1.401   .     A
C502   H530    1.083   .     S
C502   C586    1.382   .     S
C503   C517    1.401   .     A
C503   H531    1.083   .     S
C503   C583    1.382   .     S
C504   C518    1.400   .     A
C504   H532    1.083   .     S
C504   C666    1.382   1_455 S
C505   C515    1.396   .     A
C505   H525    1.084   .     S
C505   C509    1.395   .     A
C506   C510    1.394   .     A
C506   C516    1.396   .     A
C506   H526    1.084   .     S
C507   C511    1.395   .     A
C507   H527    1.084   .     S
C507   C516    1.396   .     A
C508   C512    1.394   .     A
C508   C515    1.396   .     A
C508   H528    1.084   .     S
C509   O543    1.383   .     S
C509   C513    1.412   .     A
C510   C514    1.412   .     A
C510   O551    1.382   .     S
C511   O559    1.383   .     S
C511   C514    1.412   .     A
C512   O567    1.382   .     S
C512   C513    1.412   .     A
C515   C1254   1.453   1_554 S
C516   C1253   1.453   .     S
Cu519  O537    1.963   .     S
Cu519  N533    2.011   .     S
Cu519  O539    1.951   .     S
Cu519  O535    1.963   .     S
Cu519  Cu520   2.677   .     S
Cu519  O541    1.951   .     S
Cu520  O538    1.963   .     S
Cu520  N534    2.011   .     S
Cu520  O542    1.951   .     S
Cu520  O536    1.963   .     S
Cu520  O540    1.951   .     S
O543   C544    1.413   .     S
C544   C547    1.521   .     S
C544   H546    1.115   .     S
C544   H545    1.114   .     S
C547   H548    1.111   .     S
C547   H549    1.111   .     S
C547   H550    1.108   .     S
O551   C552    1.412   .     S
C552   C555    1.521   .     S
C552   H554    1.115   .     S
C552   H553    1.115   .     S
C555   H557    1.111   .     S
C555   H558    1.111   .     S
C555   H556    1.111   .     S
O559   C560    1.413   .     S
C560   H561    1.114   .     S
C560   C563    1.521   .     S
C560   H562    1.115   .     S
C563   H566    1.108   .     S
C563   H565    1.111   .     S
C563   H564    1.111   .     S
O567   C568    1.411   .     S
C568   C571    1.521   .     S
C568   H570    1.115   .     S
C568   H569    1.115   .     S
C571   H573    1.111   .     S
C571   H574    1.111   .     S
C571   H572    1.111   .     S
C575   O620    1.290   .     A
C575   O617    1.290   .     A
C575   C600    1.449   .     S
C576   O618    1.290   .     A
C576   O619    1.290   .     A
C576   C599    1.449   .     S
C577   O624    1.292   .     A
C577   C595    1.461   .     S
C577   O621    1.293   .     A
C578   C596    1.461   .     S
C578   O622    1.292   .     A
C578   O623    1.293   .     A
C579   N616    1.367   .     A
C579   H603    1.082   .     S
C580   N615    1.367   .     A
C580   H604    1.079   .     S
C580   C89     1.416   1_565 S
C581   N616    1.367   .     A
C581   H605    1.082   .     S
C582   H606    1.079   .     S
C582   N615    1.367   .     A
C582   C87     1.416   1_565 S
C583   C600    1.401   .     A
C583   H611    1.083   .     S
C584   C599    1.401   .     A
C584   H612    1.083   .     S
C584   C668    1.382   .     S
C585   C599    1.401   .     A
C585   H613    1.083   .     S
C585   C665    1.382   .     S
C586   C600    1.400   .     A
C586   H614    1.083   .     S
C587   C597    1.396   .     A
C587   H607    1.084   .     S
C587   C591    1.395   .     A
C588   C592    1.394   .     A
C588   C598    1.396   .     A
C588   H608    1.084   .     S
C589   C593    1.395   .     A
C589   H609    1.084   .     S
C589   C598    1.396   .     A
C590   C594    1.394   .     A
C590   C597    1.396   .     A
C590   H610    1.084   .     S
C591   O625    1.383   .     S
C591   C595    1.412   .     A
C592   C596    1.412   .     A
C592   O633    1.382   .     S
C593   O641    1.383   .     S
C593   C596    1.412   .     A
C594   O649    1.382   .     S
C594   C595    1.412   .     A
C597   C1336   1.453   1_554 S
C598   C1335   1.453   .     S
Cu601  O619    1.963   .     S
Cu601  N615    2.011   .     S
Cu601  O621    1.951   .     S
Cu601  O617    1.963   .     S
Cu601  Cu602   2.677   .     S
Cu601  O623    1.951   .     S
Cu602  O620    1.963   .     S
Cu602  N616    2.011   .     S
Cu602  O624    1.951   .     S
Cu602  O618    1.963   .     S
Cu602  O622    1.951   .     S
O625   C626    1.413   .     S
C626   C629    1.521   .     S
C626   H628    1.115   .     S
C626   H627    1.114   .     S
C629   H630    1.111   .     S
C629   H631    1.111   .     S
C629   H632    1.108   .     S
O633   C634    1.412   .     S
C634   C637    1.521   .     S
C634   H636    1.115   .     S
C634   H635    1.115   .     S
C637   H639    1.111   .     S
C637   H640    1.111   .     S
C637   H638    1.111   .     S
O641   C642    1.413   .     S
C642   H643    1.114   .     S
C642   C645    1.521   .     S
C642   H644    1.115   .     S
C645   H648    1.108   .     S
C645   H647    1.111   .     S
C645   H646    1.111   .     S
O649   C650    1.411   .     S
C650   C653    1.521   .     S
C650   H652    1.115   .     S
C650   H651    1.115   .     S
C653   H655    1.111   .     S
C653   H656    1.111   .     S
C653   H654    1.111   .     S
C657   O702    1.290   .     A
C657   O699    1.290   .     A
C657   C682    1.449   .     S
C658   O700    1.290   .     A
C658   O701    1.290   .     A
C658   C681    1.449   .     S
C659   O706    1.292   .     A
C659   C677    1.461   .     S
C659   O703    1.293   .     A
C660   C678    1.461   .     S
C660   O704    1.292   .     A
C660   O705    1.293   .     A
C661   N698    1.367   .     A
C661   H685    1.082   .     S
C662   N697    1.367   .     A
C662   H686    1.079   .     S
C662   C171    1.416   1_565 S
C663   N698    1.367   .     A
C663   H687    1.082   .     S
C664   H688    1.079   .     S
C664   N697    1.367   .     A
C664   C169    1.416   1_565 S
C665   C682    1.401   .     A
C665   H693    1.083   .     S
C666   C681    1.401   .     A
C666   H694    1.083   .     S
C666   C504    1.382   1_655 S
C667   C681    1.401   .     A
C667   H695    1.083   .     S
C667   C501    1.382   1_655 S
C668   C682    1.400   .     A
C668   H696    1.083   .     S
C669   C679    1.396   .     A
C669   H689    1.084   .     S
C669   C673    1.395   .     A
C670   C674    1.394   .     A
C670   C680    1.396   .     A
C670   H690    1.084   .     S
C671   C675    1.395   .     A
C671   H691    1.084   .     S
C671   C680    1.396   .     A
C672   C676    1.394   .     A
C672   C679    1.396   .     A
C672   H692    1.084   .     S
C673   O707    1.383   .     S
C673   C677    1.412   .     A
C674   C678    1.412   .     A
C674   O715    1.382   .     S
C675   O723    1.383   .     S
C675   C678    1.412   .     A
C676   O731    1.382   .     S
C676   C677    1.412   .     A
C679   C1418   1.453   1_554 S
C680   C1417   1.453   .     S
Cu683  O701    1.963   .     S
Cu683  N697    2.011   .     S
Cu683  O703    1.951   .     S
Cu683  O699    1.963   .     S
Cu683  Cu684   2.677   .     S
Cu683  O705    1.951   .     S
Cu684  O702    1.963   .     S
Cu684  N698    2.011   .     S
Cu684  O706    1.951   .     S
Cu684  O700    1.963   .     S
Cu684  O704    1.951   .     S
O707   C708    1.413   .     S
C708   C711    1.521   .     S
C708   H710    1.115   .     S
C708   H709    1.114   .     S
C711   H712    1.111   .     S
C711   H713    1.111   .     S
C711   H714    1.108   .     S
O715   C716    1.412   .     S
C716   C719    1.521   .     S
C716   H718    1.115   .     S
C716   H717    1.115   .     S
C719   H721    1.111   .     S
C719   H722    1.111   .     S
C719   H720    1.111   .     S
O723   C724    1.413   .     S
C724   H725    1.114   .     S
C724   C727    1.521   .     S
C724   H726    1.115   .     S
C727   H730    1.108   .     S
C727   H729    1.111   .     S
C727   H728    1.111   .     S
O731   C732    1.411   .     S
C732   C735    1.521   .     S
C732   H734    1.115   .     S
C732   H733    1.115   .     S
C735   H737    1.111   .     S
C735   H738    1.111   .     S
C735   H736    1.111   .     S
C739   O784    1.290   .     A
C739   O781    1.290   .     A
C739   C764    1.449   .     S
C740   O782    1.290   .     A
C740   O783    1.290   .     A
C740   C763    1.449   .     S
C741   O788    1.292   .     A
C741   C759    1.461   .     S
C741   O785    1.293   .     A
C742   C760    1.461   .     S
C742   O786    1.292   .     A
C742   O787    1.293   .     A
C743   N780    1.367   .     A
C743   H767    1.082   .     S
C743   C1238   1.416   1_545 S
C744   N779    1.367   .     A
C744   H768    1.079   .     S
C744   C991    1.416   .     S
C745   N780    1.367   .     A
C745   H769    1.082   .     S
C745   C1236   1.416   1_545 S
C746   H770    1.079   .     S
C746   N779    1.367   .     A
C746   C989    1.416   .     S
C747   C764    1.401   .     A
C747   H775    1.083   .     S
C747   C913    1.382   1_455 S
C748   C763    1.401   .     A
C748   H776    1.083   .     S
C748   C832    1.382   .     S
C749   C763    1.401   .     A
C749   H777    1.083   .     S
C749   C829    1.382   .     S
C750   C764    1.400   .     A
C750   H778    1.083   .     S
C750   C912    1.382   1_455 S
C751   C761    1.396   .     A
C751   H771    1.084   .     S
C751   C755    1.395   .     A
C752   C756    1.394   .     A
C752   C762    1.396   .     A
C752   H772    1.084   .     S
C753   C757    1.395   .     A
C753   H773    1.084   .     S
C753   C762    1.396   .     A
C754   C758    1.394   .     A
C754   C761    1.396   .     A
C754   H774    1.084   .     S
C755   O789    1.383   .     S
C755   C759    1.412   .     A
C756   C760    1.412   .     A
C756   O797    1.382   .     S
C757   O805    1.383   .     S
C757   C760    1.412   .     A
C758   O813    1.382   .     S
C758   C759    1.412   .     A
C762   C23     1.453   1_556 S
Cu765  O783    1.963   .     S
Cu765  N779    2.011   .     S
Cu765  O785    1.951   .     S
Cu765  O781    1.963   .     S
Cu765  Cu766   2.677   .     S
Cu765  O787    1.951   .     S
Cu766  O784    1.963   .     S
Cu766  N780    2.011   .     S
Cu766  O788    1.951   .     S
Cu766  O782    1.963   .     S
Cu766  O786    1.951   .     S
O789   C790    1.413   .     S
C790   C793    1.521   .     S
C790   H792    1.115   .     S
C790   H791    1.114   .     S
C793   H794    1.111   .     S
C793   H795    1.111   .     S
C793   H796    1.108   .     S
O797   C798    1.412   .     S
C798   C801    1.521   .     S
C798   H800    1.115   .     S
C798   H799    1.115   .     S
C801   H803    1.111   .     S
C801   H804    1.111   .     S
C801   H802    1.111   .     S
O805   C806    1.413   .     S
C806   H807    1.114   .     S
C806   C809    1.521   .     S
C806   H808    1.115   .     S
C809   H812    1.108   .     S
C809   H811    1.111   .     S
C809   H810    1.111   .     S
O813   C814    1.411   .     S
C814   C817    1.521   .     S
C814   H816    1.115   .     S
C814   H815    1.115   .     S
C817   H819    1.111   .     S
C817   H820    1.111   .     S
C817   H818    1.111   .     S
C821   O866    1.290   .     A
C821   O863    1.290   .     A
C821   C846    1.449   .     S
C822   O864    1.290   .     A
C822   O865    1.290   .     A
C822   C845    1.449   .     S
C823   O870    1.292   .     A
C823   C841    1.461   .     S
C823   O867    1.293   .     A
C824   C842    1.461   .     S
C824   O868    1.292   .     A
C824   O869    1.293   .     A
C825   N862    1.367   .     A
C825   H849    1.082   .     S
C825   C1320   1.416   1_545 S
C826   N861    1.367   .     A
C826   H850    1.079   .     S
C826   C1073   1.416   .     S
C827   N862    1.367   .     A
C827   H851    1.082   .     S
C827   C1318   1.416   1_545 S
C828   H852    1.079   .     S
C828   N861    1.367   .     A
C828   C1071   1.416   .     S
C829   C846    1.401   .     A
C829   H857    1.083   .     S
C830   C845    1.401   .     A
C830   H858    1.083   .     S
C830   C914    1.382   .     S
C831   C845    1.401   .     A
C831   H859    1.083   .     S
C831   C911    1.382   .     S
C832   C846    1.400   .     A
C832   H860    1.083   .     S
C833   C843    1.396   .     A
C833   H853    1.084   .     S
C833   C837    1.395   .     A
C834   C838    1.394   .     A
C834   C844    1.396   .     A
C834   H854    1.084   .     S
C835   C839    1.395   .     A
C835   H855    1.084   .     S
C835   C844    1.396   .     A
C836   C840    1.394   .     A
C836   C843    1.396   .     A
C836   H856    1.084   .     S
C837   O871    1.383   .     S
C837   C841    1.412   .     A
C838   C842    1.412   .     A
C838   O879    1.382   .     S
C839   O887    1.383   .     S
C839   C842    1.412   .     A
C840   O895    1.382   .     S
C840   C841    1.412   .     A
C844   C105    1.453   1_556 S
Cu847  O865    1.963   .     S
Cu847  N861    2.011   .     S
Cu847  O867    1.951   .     S
Cu847  O863    1.963   .     S
Cu847  Cu848   2.677   .     S
Cu847  O869    1.951   .     S
Cu848  O866    1.963   .     S
Cu848  N862    2.011   .     S
Cu848  O870    1.951   .     S
Cu848  O864    1.963   .     S
Cu848  O868    1.951   .     S
O871   C872    1.413   .     S
C872   C875    1.521   .     S
C872   H874    1.115   .     S
C872   H873    1.114   .     S
C875   H876    1.111   .     S
C875   H877    1.111   .     S
C875   H878    1.108   .     S
O879   C880    1.412   .     S
C880   C883    1.521   .     S
C880   H882    1.115   .     S
C880   H881    1.115   .     S
C883   H885    1.111   .     S
C883   H886    1.111   .     S
C883   H884    1.111   .     S
O887   C888    1.413   .     S
C888   H889    1.114   .     S
C888   C891    1.521   .     S
C888   H890    1.115   .     S
C891   H894    1.108   .     S
C891   H893    1.111   .     S
C891   H892    1.111   .     S
O895   C896    1.411   .     S
C896   C899    1.521   .     S
C896   H898    1.115   .     S
C896   H897    1.115   .     S
C899   H901    1.111   .     S
C899   H902    1.111   .     S
C899   H900    1.111   .     S
C903   O948    1.290   .     A
C903   O945    1.290   .     A
C903   C928    1.449   .     S
C904   O946    1.290   .     A
C904   O947    1.290   .     A
C904   C927    1.449   .     S
C905   O952    1.292   .     A
C905   C923    1.461   .     S
C905   O949    1.293   .     A
C906   C924    1.461   .     S
C906   O950    1.292   .     A
C906   O951    1.293   .     A
C907   N944    1.367   .     A
C907   H931    1.082   .     S
C907   C1402   1.416   1_545 S
C908   N943    1.367   .     A
C908   H932    1.079   .     S
C908   C1155   1.416   .     S
C909   N944    1.367   .     A
C909   H933    1.082   .     S
C909   C1400   1.416   1_545 S
C910   H934    1.079   .     S
C910   N943    1.367   .     A
C910   C1153   1.416   .     S
C911   C928    1.401   .     A
C911   H939    1.083   .     S
C912   C927    1.401   .     A
C912   H940    1.083   .     S
C912   C750    1.382   1_655 S
C913   C927    1.401   .     A
C913   H941    1.083   .     S
C913   C747    1.382   1_655 S
C914   C928    1.400   .     A
C914   H942    1.083   .     S
C915   C925    1.396   .     A
C915   H935    1.084   .     S
C915   C919    1.395   .     A
C916   C920    1.394   .     A
C916   C926    1.396   .     A
C916   H936    1.084   .     S
C917   C921    1.395   .     A
C917   H937    1.084   .     S
C917   C926    1.396   .     A
C918   C922    1.394   .     A
C918   C925    1.396   .     A
C918   H938    1.084   .     S
C919   O953    1.383   .     S
C919   C923    1.412   .     A
C920   C924    1.412   .     A
C920   O961    1.382   .     S
C921   O969    1.383   .     S
C921   C924    1.412   .     A
C922   O977    1.382   .     S
C922   C923    1.412   .     A
C926   C187    1.453   1_556 S
Cu929  O947    1.963   .     S
Cu929  N943    2.011   .     S
Cu929  O949    1.951   .     S
Cu929  O945    1.963   .     S
Cu929  Cu930   2.677   .     S
Cu929  O951    1.951   .     S
Cu930  O948    1.963   .     S
Cu930  N944    2.011   .     S
Cu930  O952    1.951   .     S
Cu930  O946    1.963   .     S
Cu930  O950    1.951   .     S
O953   C954    1.413   .     S
C954   C957    1.521   .     S
C954   H956    1.115   .     S
C954   H955    1.114   .     S
C957   H958    1.111   .     S
C957   H959    1.111   .     S
C957   H960    1.108   .     S
O961   C962    1.412   .     S
C962   C965    1.521   .     S
C962   H964    1.115   .     S
C962   H963    1.115   .     S
C965   H967    1.111   .     S
C965   H968    1.111   .     S
C965   H966    1.111   .     S
O969   C970    1.413   .     S
C970   H971    1.114   .     S
C970   C973    1.521   .     S
C970   H972    1.115   .     S
C973   H976    1.108   .     S
C973   H975    1.111   .     S
C973   H974    1.111   .     S
O977   C978    1.411   .     S
C978   C981    1.521   .     S
C978   H980    1.115   .     S
C978   H979    1.115   .     S
C981   H983    1.111   .     S
C981   H984    1.111   .     S
C981   H982    1.111   .     S
C985   O1030   1.290   .     A
C985   O1027   1.290   .     A
C985   C1010   1.449   .     S
C986   O1028   1.290   .     A
C986   O1029   1.290   .     A
C986   C1009   1.449   .     S
C987   O1034   1.292   .     A
C987   C1005   1.461   .     S
C987   O1031   1.293   .     A
C988   C1006   1.461   .     S
C988   O1032   1.292   .     A
C988   O1033   1.293   .     A
C989   N1026   1.367   .     A
C989   H1013   1.082   .     S
C990   N1025   1.367   .     A
C990   H1014   1.079   .     S
C990   C1237   1.416   .     S
C991   N1026   1.367   .     A
C991   H1015   1.082   .     S
C992   H1016   1.079   .     S
C992   N1025   1.367   .     A
C992   C1235   1.416   .     S
C993   C1010   1.401   .     A
C993   H1021   1.083   .     S
C993   C1159   1.382   1_455 S
C994   C1009   1.401   .     A
C994   H1022   1.083   .     S
C994   C1078   1.382   .     S
C995   C1009   1.401   .     A
C995   H1023   1.083   .     S
C995   C1075   1.382   .     S
C996   C1010   1.400   .     A
C996   H1024   1.083   .     S
C996   C1158   1.382   1_455 S
C997   C1007   1.396   .     A
C997   H1017   1.084   .     S
C997   C1001   1.395   .     A
C998   C1002   1.394   .     A
C998   C1008   1.396   .     A
C998   H1018   1.084   .     S
C999   C1003   1.395   .     A
C999   H1019   1.084   .     S
C999   C1008   1.396   .     A
C1000  C1004   1.394   .     A
C1000  C1007   1.396   .     A
C1000  H1020   1.084   .     S
C1001  O1035   1.383   .     S
C1001  C1005   1.412   .     A
C1002  C1006   1.412   .     A
C1002  O1043   1.382   .     S
C1003  O1051   1.383   .     S
C1003  C1006   1.412   .     A
C1004  O1059   1.382   .     S
C1004  C1005   1.412   .     A
C1008  C269    1.453   1_556 S
Cu1011 O1029   1.963   .     S
Cu1011 N1025   2.011   .     S
Cu1011 O1031   1.951   .     S
Cu1011 O1027   1.963   .     S
Cu1011 Cu1012  2.677   .     S
Cu1011 O1033   1.951   .     S
Cu1012 O1030   1.963   .     S
Cu1012 N1026   2.011   .     S
Cu1012 O1034   1.951   .     S
Cu1012 O1028   1.963   .     S
Cu1012 O1032   1.951   .     S
O1035  C1036   1.413   .     S
C1036  C1039   1.521   .     S
C1036  H1038   1.115   .     S
C1036  H1037   1.114   .     S
C1039  H1040   1.111   .     S
C1039  H1041   1.111   .     S
C1039  H1042   1.108   .     S
O1043  C1044   1.412   .     S
C1044  C1047   1.521   .     S
C1044  H1046   1.115   .     S
C1044  H1045   1.115   .     S
C1047  H1049   1.111   .     S
C1047  H1050   1.111   .     S
C1047  H1048   1.111   .     S
O1051  C1052   1.413   .     S
C1052  H1053   1.114   .     S
C1052  C1055   1.521   .     S
C1052  H1054   1.115   .     S
C1055  H1058   1.108   .     S
C1055  H1057   1.111   .     S
C1055  H1056   1.111   .     S
O1059  C1060   1.411   .     S
C1060  C1063   1.521   .     S
C1060  H1062   1.115   .     S
C1060  H1061   1.115   .     S
C1063  H1065   1.111   .     S
C1063  H1066   1.111   .     S
C1063  H1064   1.111   .     S
C1067  O1112   1.290   .     A
C1067  O1109   1.290   .     A
C1067  C1092   1.449   .     S
C1068  O1110   1.290   .     A
C1068  O1111   1.290   .     A
C1068  C1091   1.449   .     S
C1069  O1116   1.292   .     A
C1069  C1087   1.461   .     S
C1069  O1113   1.293   .     A
C1070  C1088   1.461   .     S
C1070  O1114   1.292   .     A
C1070  O1115   1.293   .     A
C1071  N1108   1.367   .     A
C1071  H1095   1.082   .     S
C1072  N1107   1.367   .     A
C1072  H1096   1.079   .     S
C1072  C1319   1.416   .     S
C1073  N1108   1.367   .     A
C1073  H1097   1.082   .     S
C1074  H1098   1.079   .     S
C1074  N1107   1.367   .     A
C1074  C1317   1.416   .     S
C1075  C1092   1.401   .     A
C1075  H1103   1.083   .     S
C1076  C1091   1.401   .     A
C1076  H1104   1.083   .     S
C1076  C1160   1.382   .     S
C1077  C1091   1.401   .     A
C1077  H1105   1.083   .     S
C1077  C1157   1.382   .     S
C1078  C1092   1.400   .     A
C1078  H1106   1.083   .     S
C1079  C1089   1.396   .     A
C1079  H1099   1.084   .     S
C1079  C1083   1.395   .     A
C1080  C1084   1.394   .     A
C1080  C1090   1.396   .     A
C1080  H1100   1.084   .     S
C1081  C1085   1.395   .     A
C1081  H1101   1.084   .     S
C1081  C1090   1.396   .     A
C1082  C1086   1.394   .     A
C1082  C1089   1.396   .     A
C1082  H1102   1.084   .     S
C1083  O1117   1.383   .     S
C1083  C1087   1.412   .     A
C1084  C1088   1.412   .     A
C1084  O1125   1.382   .     S
C1085  O1133   1.383   .     S
C1085  C1088   1.412   .     A
C1086  O1141   1.382   .     S
C1086  C1087   1.412   .     A
C1090  C351    1.453   1_556 S
Cu1093 O1111   1.963   .     S
Cu1093 N1107   2.011   .     S
Cu1093 O1113   1.951   .     S
Cu1093 O1109   1.963   .     S
Cu1093 Cu1094  2.677   .     S
Cu1093 O1115   1.951   .     S
Cu1094 O1112   1.963   .     S
Cu1094 N1108   2.011   .     S
Cu1094 O1116   1.951   .     S
Cu1094 O1110   1.963   .     S
Cu1094 O1114   1.951   .     S
O1117  C1118   1.413   .     S
C1118  C1121   1.521   .     S
C1118  H1120   1.115   .     S
C1118  H1119   1.114   .     S
C1121  H1122   1.111   .     S
C1121  H1123   1.111   .     S
C1121  H1124   1.108   .     S
O1125  C1126   1.412   .     S
C1126  C1129   1.521   .     S
C1126  H1128   1.115   .     S
C1126  H1127   1.115   .     S
C1129  H1131   1.111   .     S
C1129  H1132   1.111   .     S
C1129  H1130   1.111   .     S
O1133  C1134   1.413   .     S
C1134  H1135   1.114   .     S
C1134  C1137   1.521   .     S
C1134  H1136   1.115   .     S
C1137  H1140   1.108   .     S
C1137  H1139   1.111   .     S
C1137  H1138   1.111   .     S
O1141  C1142   1.411   .     S
C1142  C1145   1.521   .     S
C1142  H1144   1.115   .     S
C1142  H1143   1.115   .     S
C1145  H1147   1.111   .     S
C1145  H1148   1.111   .     S
C1145  H1146   1.111   .     S
C1149  O1194   1.290   .     A
C1149  O1191   1.290   .     A
C1149  C1174   1.449   .     S
C1150  O1192   1.290   .     A
C1150  O1193   1.290   .     A
C1150  C1173   1.449   .     S
C1151  O1198   1.292   .     A
C1151  C1169   1.461   .     S
C1151  O1195   1.293   .     A
C1152  C1170   1.461   .     S
C1152  O1196   1.292   .     A
C1152  O1197   1.293   .     A
C1153  N1190   1.367   .     A
C1153  H1177   1.082   .     S
C1154  N1189   1.367   .     A
C1154  H1178   1.079   .     S
C1154  C1401   1.416   .     S
C1155  N1190   1.367   .     A
C1155  H1179   1.082   .     S
C1156  H1180   1.079   .     S
C1156  N1189   1.367   .     A
C1156  C1399   1.416   .     S
C1157  C1174   1.401   .     A
C1157  H1185   1.083   .     S
C1158  C1173   1.401   .     A
C1158  H1186   1.083   .     S
C1158  C996    1.382   1_655 S
C1159  C1173   1.401   .     A
C1159  H1187   1.083   .     S
C1159  C993    1.382   1_655 S
C1160  C1174   1.400   .     A
C1160  H1188   1.083   .     S
C1161  C1171   1.396   .     A
C1161  H1181   1.084   .     S
C1161  C1165   1.395   .     A
C1162  C1166   1.394   .     A
C1162  C1172   1.396   .     A
C1162  H1182   1.084   .     S
C1163  C1167   1.395   .     A
C1163  H1183   1.084   .     S
C1163  C1172   1.396   .     A
C1164  C1168   1.394   .     A
C1164  C1171   1.396   .     A
C1164  H1184   1.084   .     S
C1165  O1199   1.383   .     S
C1165  C1169   1.412   .     A
C1166  C1170   1.412   .     A
C1166  O1207   1.382   .     S
C1167  O1215   1.383   .     S
C1167  C1170   1.412   .     A
C1168  O1223   1.382   .     S
C1168  C1169   1.412   .     A
C1172  C433    1.453   1_556 S
Cu1175 O1193   1.963   .     S
Cu1175 N1189   2.011   .     S
Cu1175 O1195   1.951   .     S
Cu1175 O1191   1.963   .     S
Cu1175 Cu1176  2.677   .     S
Cu1175 O1197   1.951   .     S
Cu1176 O1194   1.963   .     S
Cu1176 N1190   2.011   .     S
Cu1176 O1198   1.951   .     S
Cu1176 O1192   1.963   .     S
Cu1176 O1196   1.951   .     S
O1199  C1200   1.413   .     S
C1200  C1203   1.521   .     S
C1200  H1202   1.115   .     S
C1200  H1201   1.114   .     S
C1203  H1204   1.111   .     S
C1203  H1205   1.111   .     S
C1203  H1206   1.108   .     S
O1207  C1208   1.412   .     S
C1208  C1211   1.521   .     S
C1208  H1210   1.115   .     S
C1208  H1209   1.115   .     S
C1211  H1213   1.111   .     S
C1211  H1214   1.111   .     S
C1211  H1212   1.111   .     S
O1215  C1216   1.413   .     S
C1216  H1217   1.114   .     S
C1216  C1219   1.521   .     S
C1216  H1218   1.115   .     S
C1219  H1222   1.108   .     S
C1219  H1221   1.111   .     S
C1219  H1220   1.111   .     S
O1223  C1224   1.411   .     S
C1224  C1227   1.521   .     S
C1224  H1226   1.115   .     S
C1224  H1225   1.115   .     S
C1227  H1229   1.111   .     S
C1227  H1230   1.111   .     S
C1227  H1228   1.111   .     S
C1231  O1276   1.290   .     A
C1231  O1273   1.290   .     A
C1231  C1256   1.449   .     S
C1232  O1274   1.290   .     A
C1232  O1275   1.290   .     A
C1232  C1255   1.449   .     S
C1233  O1280   1.292   .     A
C1233  C1251   1.461   .     S
C1233  O1277   1.293   .     A
C1234  C1252   1.461   .     S
C1234  O1278   1.292   .     A
C1234  O1279   1.293   .     A
C1235  N1272   1.367   .     A
C1235  H1259   1.082   .     S
C1236  N1271   1.367   .     A
C1236  H1260   1.079   .     S
C1236  C745    1.416   1_565 S
C1237  N1272   1.367   .     A
C1237  H1261   1.082   .     S
C1238  H1262   1.079   .     S
C1238  N1271   1.367   .     A
C1238  C743    1.416   1_565 S
C1239  C1256   1.401   .     A
C1239  H1267   1.083   .     S
C1239  C1405   1.382   1_455 S
C1240  C1255   1.401   .     A
C1240  H1268   1.083   .     S
C1240  C1324   1.382   .     S
C1241  C1255   1.401   .     A
C1241  H1269   1.083   .     S
C1241  C1321   1.382   .     S
C1242  C1256   1.400   .     A
C1242  H1270   1.083   .     S
C1242  C1404   1.382   1_455 S
C1243  C1253   1.396   .     A
C1243  H1263   1.084   .     S
C1243  C1247   1.395   .     A
C1244  C1248   1.394   .     A
C1244  C1254   1.396   .     A
C1244  H1264   1.084   .     S
C1245  C1249   1.395   .     A
C1245  H1265   1.084   .     S
C1245  C1254   1.396   .     A
C1246  C1250   1.394   .     A
C1246  C1253   1.396   .     A
C1246  H1266   1.084   .     S
C1247  O1281   1.383   .     S
C1247  C1251   1.412   .     A
C1248  C1252   1.412   .     A
C1248  O1289   1.382   .     S
C1249  O1297   1.383   .     S
C1249  C1252   1.412   .     A
C1250  O1305   1.382   .     S
C1250  C1251   1.412   .     A
C1254  C515    1.453   1_556 S
Cu1257 O1275   1.963   .     S
Cu1257 N1271   2.011   .     S
Cu1257 O1277   1.951   .     S
Cu1257 O1273   1.963   .     S
Cu1257 Cu1258  2.677   .     S
Cu1257 O1279   1.951   .     S
Cu1258 O1276   1.963   .     S
Cu1258 N1272   2.011   .     S
Cu1258 O1280   1.951   .     S
Cu1258 O1274   1.963   .     S
Cu1258 O1278   1.951   .     S
O1281  C1282   1.413   .     S
C1282  C1285   1.521   .     S
C1282  H1284   1.115   .     S
C1282  H1283   1.114   .     S
C1285  H1286   1.111   .     S
C1285  H1287   1.111   .     S
C1285  H1288   1.108   .     S
O1289  C1290   1.412   .     S
C1290  C1293   1.521   .     S
C1290  H1292   1.115   .     S
C1290  H1291   1.115   .     S
C1293  H1295   1.111   .     S
C1293  H1296   1.111   .     S
C1293  H1294   1.111   .     S
O1297  C1298   1.413   .     S
C1298  H1299   1.114   .     S
C1298  C1301   1.521   .     S
C1298  H1300   1.115   .     S
C1301  H1304   1.108   .     S
C1301  H1303   1.111   .     S
C1301  H1302   1.111   .     S
O1305  C1306   1.411   .     S
C1306  C1309   1.521   .     S
C1306  H1308   1.115   .     S
C1306  H1307   1.115   .     S
C1309  H1311   1.111   .     S
C1309  H1312   1.111   .     S
C1309  H1310   1.111   .     S
C1313  O1358   1.290   .     A
C1313  O1355   1.290   .     A
C1313  C1338   1.449   .     S
C1314  O1356   1.290   .     A
C1314  O1357   1.290   .     A
C1314  C1337   1.449   .     S
C1315  O1362   1.292   .     A
C1315  C1333   1.461   .     S
C1315  O1359   1.293   .     A
C1316  C1334   1.461   .     S
C1316  O1360   1.292   .     A
C1316  O1361   1.293   .     A
C1317  N1354   1.367   .     A
C1317  H1341   1.082   .     S
C1318  N1353   1.367   .     A
C1318  H1342   1.079   .     S
C1318  C827    1.416   1_565 S
C1319  N1354   1.367   .     A
C1319  H1343   1.082   .     S
C1320  H1344   1.079   .     S
C1320  N1353   1.367   .     A
C1320  C825    1.416   1_565 S
C1321  C1338   1.401   .     A
C1321  H1349   1.083   .     S
C1322  C1337   1.401   .     A
C1322  H1350   1.083   .     S
C1322  C1406   1.382   .     S
C1323  C1337   1.401   .     A
C1323  H1351   1.083   .     S
C1323  C1403   1.382   .     S
C1324  C1338   1.400   .     A
C1324  H1352   1.083   .     S
C1325  C1335   1.396   .     A
C1325  H1345   1.084   .     S
C1325  C1329   1.395   .     A
C1326  C1330   1.394   .     A
C1326  C1336   1.396   .     A
C1326  H1346   1.084   .     S
C1327  C1331   1.395   .     A
C1327  H1347   1.084   .     S
C1327  C1336   1.396   .     A
C1328  C1332   1.394   .     A
C1328  C1335   1.396   .     A
C1328  H1348   1.084   .     S
C1329  O1363   1.383   .     S
C1329  C1333   1.412   .     A
C1330  C1334   1.412   .     A
C1330  O1371   1.382   .     S
C1331  O1379   1.383   .     S
C1331  C1334   1.412   .     A
C1332  O1387   1.382   .     S
C1332  C1333   1.412   .     A
C1336  C597    1.453   1_556 S
Cu1339 O1357   1.963   .     S
Cu1339 N1353   2.011   .     S
Cu1339 O1359   1.951   .     S
Cu1339 O1355   1.963   .     S
Cu1339 Cu1340  2.677   .     S
Cu1339 O1361   1.951   .     S
Cu1340 O1358   1.963   .     S
Cu1340 N1354   2.011   .     S
Cu1340 O1362   1.951   .     S
Cu1340 O1356   1.963   .     S
Cu1340 O1360   1.951   .     S
O1363  C1364   1.413   .     S
C1364  C1367   1.521   .     S
C1364  H1366   1.115   .     S
C1364  H1365   1.114   .     S
C1367  H1368   1.111   .     S
C1367  H1369   1.111   .     S
C1367  H1370   1.108   .     S
O1371  C1372   1.412   .     S
C1372  C1375   1.521   .     S
C1372  H1374   1.115   .     S
C1372  H1373   1.115   .     S
C1375  H1377   1.111   .     S
C1375  H1378   1.111   .     S
C1375  H1376   1.111   .     S
O1379  C1380   1.413   .     S
C1380  H1381   1.114   .     S
C1380  C1383   1.521   .     S
C1380  H1382   1.115   .     S
C1383  H1386   1.108   .     S
C1383  H1385   1.111   .     S
C1383  H1384   1.111   .     S
O1387  C1388   1.411   .     S
C1388  C1391   1.521   .     S
C1388  H1390   1.115   .     S
C1388  H1389   1.115   .     S
C1391  H1393   1.111   .     S
C1391  H1394   1.111   .     S
C1391  H1392   1.111   .     S
C1395  O1440   1.290   .     A
C1395  O1437   1.290   .     A
C1395  C1420   1.449   .     S
C1396  O1438   1.290   .     A
C1396  O1439   1.290   .     A
C1396  C1419   1.449   .     S
C1397  O1444   1.292   .     A
C1397  C1415   1.461   .     S
C1397  O1441   1.293   .     A
C1398  C1416   1.461   .     S
C1398  O1442   1.292   .     A
C1398  O1443   1.293   .     A
C1399  N1436   1.367   .     A
C1399  H1423   1.082   .     S
C1400  N1435   1.367   .     A
C1400  H1424   1.079   .     S
C1400  C909    1.416   1_565 S
C1401  N1436   1.367   .     A
C1401  H1425   1.082   .     S
C1402  H1426   1.079   .     S
C1402  N1435   1.367   .     A
C1402  C907    1.416   1_565 S
C1403  C1420   1.401   .     A
C1403  H1431   1.083   .     S
C1404  C1419   1.401   .     A
C1404  H1432   1.083   .     S
C1404  C1242   1.382   1_655 S
C1405  C1419   1.401   .     A
C1405  H1433   1.083   .     S
C1405  C1239   1.382   1_655 S
C1406  C1420   1.400   .     A
C1406  H1434   1.083   .     S
C1407  C1417   1.396   .     A
C1407  H1427   1.084   .     S
C1407  C1411   1.395   .     A
C1408  C1412   1.394   .     A
C1408  C1418   1.396   .     A
C1408  H1428   1.084   .     S
C1409  C1413   1.395   .     A
C1409  H1429   1.084   .     S
C1409  C1418   1.396   .     A
C1410  C1414   1.394   .     A
C1410  C1417   1.396   .     A
C1410  H1430   1.084   .     S
C1411  O1445   1.383   .     S
C1411  C1415   1.412   .     A
C1412  C1416   1.412   .     A
C1412  O1453   1.382   .     S
C1413  O1461   1.383   .     S
C1413  C1416   1.412   .     A
C1414  O1469   1.382   .     S
C1414  C1415   1.412   .     A
C1418  C679    1.453   1_556 S
Cu1421 O1439   1.963   .     S
Cu1421 N1435   2.011   .     S
Cu1421 O1441   1.951   .     S
Cu1421 O1437   1.963   .     S
Cu1421 Cu1422  2.677   .     S
Cu1421 O1443   1.951   .     S
Cu1422 O1440   1.963   .     S
Cu1422 N1436   2.011   .     S
Cu1422 O1444   1.951   .     S
Cu1422 O1438   1.963   .     S
Cu1422 O1442   1.951   .     S
O1445  C1446   1.413   .     S
C1446  C1449   1.521   .     S
C1446  H1448   1.115   .     S
C1446  H1447   1.114   .     S
C1449  H1450   1.111   .     S
C1449  H1451   1.111   .     S
C1449  H1452   1.108   .     S
O1453  C1454   1.412   .     S
C1454  C1457   1.521   .     S
C1454  H1456   1.115   .     S
C1454  H1455   1.115   .     S
C1457  H1459   1.111   .     S
C1457  H1460   1.111   .     S
C1457  H1458   1.111   .     S
O1461  C1462   1.413   .     S
C1462  H1463   1.114   .     S
C1462  C1465   1.521   .     S
C1462  H1464   1.115   .     S
C1465  H1468   1.108   .     S
C1465  H1467   1.111   .     S
C1465  H1466   1.111   .     S
O1469  C1470   1.411   .     S
C1470  C1473   1.521   .     S
C1470  H1472   1.115   .     S
C1470  H1471   1.115   .     S
C1473  H1475   1.111   .     S
C1473  H1476   1.111   .     S
C1473  H1474   1.111   .     S
