data_str_m2_o2_o5_pcu_sym.116
_audit_creation_date              2020-01-03
_audit_creation_method            'Materials Studio'
_symmetry_space_group_name_H-M    'P1'
_symmetry_Int_Tables_number       1
_symmetry_cell_setting            triclinic
loop_
_symmetry_equiv_pos_as_xyz
  x,y,z
_cell_length_a                    30.1920
_cell_length_b                    28.1198
_cell_length_c                    27.2244
_cell_angle_alpha                 90.0001
_cell_angle_beta                  94.1501
_cell_angle_gamma                 90.0001
loop_
_atom_site_label
_atom_site_type_symbol
_atom_site_fract_x
_atom_site_fract_y
_atom_site_fract_z
_atom_site_U_iso_or_equiv
_atom_site_adp_type
_atom_site_occupancy
C1     C     0.16528   0.25007   0.16624   0.00000  Uiso   1.00
C2     C     0.28960   0.44607   0.17387   0.00000  Uiso   1.00
C3     C     0.24980   0.25000   0.07364   0.00000  Uiso   1.00
C4     C     0.25020   0.25000   0.25970   0.00000  Uiso   1.00
C5     C     0.25000   0.02697   0.16667   0.00000  Uiso   1.00
C6     C     0.25000   0.47264   0.16667   0.00000  Uiso   1.00
C7     C     0.24992   0.24999   0.02187   0.00000  Uiso   1.00
C8     C     0.25008   0.24999   0.31147   0.00000  Uiso   1.00
C9     C     0.05058   0.26446   0.20840   0.00000  Uiso   1.00
C10    C     0.45519   0.23567   0.20904   0.00000  Uiso   1.00
C11    C     0.44942   0.26446   0.12493   0.00000  Uiso   1.00
C12    C     0.33472   0.25007   0.16709   0.00000  Uiso   1.00
C13    C     0.04481   0.23567   0.12429   0.00000  Uiso   1.00
C14    C     0.09684   0.26451   0.20872   0.00000  Uiso   1.00
C15    C     0.40912   0.23710   0.21036   0.00000  Uiso   1.00
C16    C     0.40316   0.26451   0.12462   0.00000  Uiso   1.00
C17    C     0.09088   0.23710   0.12297   0.00000  Uiso   1.00
C18    C     0.11709   0.25048   0.16586   0.00000  Uiso   1.00
C19    C     0.38291   0.25048   0.16747   0.00000  Uiso   1.00
C20    C     0.02439   0.24966   0.16658   0.00000  Uiso   1.00
C21    C     0.47561   0.24966   0.16676   0.00000  Uiso   1.00
C22    C     0.30882   0.12692   0.23878   0.00000  Uiso   1.00
C23    C     0.27683   0.10379   0.20083   0.00000  Uiso   1.00
C24    C     0.17383   0.37469   0.12106   0.00000  Uiso   1.00
C25    C     0.19118   0.12692   0.09455   0.00000  Uiso   1.00
C26    C     0.32617   0.37469   0.21227   0.00000  Uiso   1.00
C27    C     0.12404   0.27919   0.25495   0.00000  Uiso   1.00
C28    C     0.38980   0.22562   0.25858   0.00000  Uiso   1.00
C29    C     0.37597   0.27919   0.07839   0.00000  Uiso   1.00
C30    C     0.11020   0.22562   0.07475   0.00000  Uiso   1.00
C31    C     0.28081   0.01389   0.27621   0.00000  Uiso   1.00
C32    C     0.31401   0.49545   0.31646   0.00000  Uiso   1.00
C33    C     0.15696   0.47514   0.20550   0.00000  Uiso   1.00
C34    C     0.21256   0.39643   0.15084   0.00000  Uiso   1.00
C35    C     0.11178   0.49919   0.20350   0.00000  Uiso   1.00
C36    C     0.21919   0.01389   0.05712   0.00000  Uiso   1.00
C37    C     0.18599   0.49545   0.01687   0.00000  Uiso   1.00
C38    C     0.34304   0.47514   0.12784   0.00000  Uiso   1.00
C39    C     0.38822   0.49919   0.12984   0.00000  Uiso   1.00
C40    C     0.22318   0.10379   0.13251   0.00000  Uiso   1.00
C41    C     0.28744   0.39643   0.18250   0.00000  Uiso   1.00
C42    C     0.27585   0.05327   0.20244   0.00000  Uiso   1.00
C43    C     0.21040   0.44607   0.15946   0.00000  Uiso   1.00
C44    C     0.22415   0.05327   0.13089   0.00000  Uiso   1.00
Cu45   Cu    0.25000   0.29821   0.16667   0.00000  Uiso   1.00
Cu46   Cu    0.25000   0.20178   0.16667   0.00000  Uiso   1.00
H47    H     0.03493   0.27641   0.24078   0.00000  Uiso   1.00
H48    H     0.15955   0.40061   0.09347   0.00000  Uiso   1.00
H49    H     0.18744   0.16507   0.09791   0.00000  Uiso   1.00
H50    H     0.20182   0.11975   0.05707   0.00000  Uiso   1.00
H51    H     0.15740   0.11194   0.09732   0.00000  Uiso   1.00
H52    H     0.31570   0.34417   0.23425   0.00000  Uiso   1.00
H53    H     0.35281   0.36505   0.18803   0.00000  Uiso   1.00
H54    H     0.34045   0.40061   0.23986   0.00000  Uiso   1.00
H55    H     0.14660   0.24976   0.26755   0.00000  Uiso   1.00
H56    H     0.14402   0.31120   0.24758   0.00000  Uiso   1.00
H57    H     0.10278   0.28784   0.28537   0.00000  Uiso   1.00
H58    H     0.47517   0.22393   0.24145   0.00000  Uiso   1.00
H59    H     0.39487   0.18733   0.26719   0.00000  Uiso   1.00
H60    H     0.40691   0.24701   0.28856   0.00000  Uiso   1.00
H61    H     0.35396   0.23403   0.25849   0.00000  Uiso   1.00
H62    H     0.35340   0.24976   0.06578   0.00000  Uiso   1.00
H63    H     0.35599   0.31121   0.08576   0.00000  Uiso   1.00
H64    H     0.39723   0.28784   0.04797   0.00000  Uiso   1.00
H65    H     0.10513   0.18734   0.06614   0.00000  Uiso   1.00
H66    H     0.09309   0.24702   0.04478   0.00000  Uiso   1.00
H67    H     0.14604   0.23403   0.07484   0.00000  Uiso   1.00
H68    H     0.25858   0.48402   0.26415   0.00000  Uiso   1.00
H69    H     0.46507   0.27642   0.09255   0.00000  Uiso   1.00
H70    H     0.26087   0.04286   0.29169   0.00000  Uiso   1.00
H71    H     0.33393   0.02540   0.33296   0.00000  Uiso   1.00
H72    H     0.29642   0.47757   0.01230   0.00000  Uiso   1.00
H73    H     0.33667   0.46925   0.30087   0.00000  Uiso   1.00
H74    H     0.18107   0.49856   0.22683   0.00000  Uiso   1.00
H75    H     0.15449   0.44047   0.22498   0.00000  Uiso   1.00
H76    H     0.08662   0.47649   0.18304   0.00000  Uiso   1.00
H77    H     0.10166   0.00491   0.24146   0.00000  Uiso   1.00
H78    H     0.11341   0.03415   0.18470   0.00000  Uiso   1.00
H79    H     0.24142   0.48402   0.06918   0.00000  Uiso   1.00
H80    H     0.02483   0.22393   0.09188   0.00000  Uiso   1.00
H81    H     0.23913   0.04285   0.04165   0.00000  Uiso   1.00
H82    H     0.16607   0.02540   0.00037   0.00000  Uiso   1.00
H83    H     0.20358   0.47757   0.32104   0.00000  Uiso   1.00
H84    H     0.16333   0.46925   0.03246   0.00000  Uiso   1.00
H85    H     0.31893   0.49856   0.10650   0.00000  Uiso   1.00
H86    H     0.34551   0.44047   0.10836   0.00000  Uiso   1.00
H87    H     0.41338   0.47649   0.15029   0.00000  Uiso   1.00
H88    H     0.39834   0.00491   0.09187   0.00000  Uiso   1.00
H89    H     0.38659   0.03415   0.14863   0.00000  Uiso   1.00
H90    H     0.31256   0.16507   0.23542   0.00000  Uiso   1.00
H91    H     0.29818   0.11975   0.27626   0.00000  Uiso   1.00
H92    H     0.34260   0.11194   0.23601   0.00000  Uiso   1.00
H93    H     0.18430   0.34417   0.09908   0.00000  Uiso   1.00
H94    H     0.14719   0.36505   0.14530   0.00000  Uiso   1.00
N95    N     0.25000   0.12934   0.16667   0.00000  Uiso   1.00
N96    N     0.25000   0.37065   0.16667   0.00000  Uiso   1.00
O97    O     0.18573   0.29072   0.16667   0.00000  Uiso   1.00
O98    O     0.16941   0.46823   0.15704   0.00000  Uiso   1.00
O99    O     0.19558   0.03033   0.09651   0.00000  Uiso   1.00
O100   O     0.33059   0.46823   0.17629   0.00000  Uiso   1.00
O101   O     0.31427   0.20928   0.16666   0.00000  Uiso   1.00
O102   O     0.31427   0.29071   0.16666   0.00000  Uiso   1.00
O103   O     0.18573   0.20928   0.16667   0.00000  Uiso   1.00
O104   O     0.25000   0.29071   0.09613   0.00000  Uiso   1.00
O105   O     0.25000   0.20929   0.23720   0.00000  Uiso   1.00
O106   O     0.25000   0.29071   0.23720   0.00000  Uiso   1.00
O107   O     0.25000   0.20929   0.09613   0.00000  Uiso   1.00
O108   O     0.30442   0.03033   0.23682   0.00000  Uiso   1.00
C109   C     0.66528   0.25007   0.16624   0.00000  Uiso   1.00
C110   C     0.78960   0.44607   0.17387   0.00000  Uiso   1.00
C111   C     0.74980   0.25000   0.07364   0.00000  Uiso   1.00
C112   C     0.75020   0.25000   0.25970   0.00000  Uiso   1.00
C113   C     0.75000   0.02697   0.16667   0.00000  Uiso   1.00
C114   C     0.75000   0.47264   0.16667   0.00000  Uiso   1.00
C115   C     0.74992   0.24999   0.02187   0.00000  Uiso   1.00
C116   C     0.75008   0.24999   0.31147   0.00000  Uiso   1.00
C117   C     0.55058   0.26446   0.20840   0.00000  Uiso   1.00
C118   C     0.95519   0.23567   0.20904   0.00000  Uiso   1.00
C119   C     0.94942   0.26446   0.12493   0.00000  Uiso   1.00
C120   C     0.83472   0.25007   0.16709   0.00000  Uiso   1.00
C121   C     0.54481   0.23567   0.12429   0.00000  Uiso   1.00
C122   C     0.59684   0.26451   0.20872   0.00000  Uiso   1.00
C123   C     0.90912   0.23710   0.21036   0.00000  Uiso   1.00
C124   C     0.90316   0.26451   0.12462   0.00000  Uiso   1.00
C125   C     0.59088   0.23710   0.12297   0.00000  Uiso   1.00
C126   C     0.61709   0.25048   0.16586   0.00000  Uiso   1.00
C127   C     0.88291   0.25048   0.16747   0.00000  Uiso   1.00
C128   C     0.52439   0.24966   0.16658   0.00000  Uiso   1.00
C129   C     0.97561   0.24966   0.16676   0.00000  Uiso   1.00
C130   C     0.80882   0.12692   0.23878   0.00000  Uiso   1.00
C131   C     0.77683   0.10379   0.20083   0.00000  Uiso   1.00
C132   C     0.67383   0.37469   0.12106   0.00000  Uiso   1.00
C133   C     0.69118   0.12692   0.09455   0.00000  Uiso   1.00
C134   C     0.82617   0.37469   0.21227   0.00000  Uiso   1.00
C135   C     0.62404   0.27919   0.25495   0.00000  Uiso   1.00
C136   C     0.88980   0.22562   0.25858   0.00000  Uiso   1.00
C137   C     0.87597   0.27919   0.07839   0.00000  Uiso   1.00
C138   C     0.61020   0.22562   0.07475   0.00000  Uiso   1.00
C139   C     0.78081   0.01389   0.27621   0.00000  Uiso   1.00
C140   C     0.81401   0.49545   0.31646   0.00000  Uiso   1.00
C141   C     0.65696   0.47514   0.20550   0.00000  Uiso   1.00
C142   C     0.71256   0.39643   0.15084   0.00000  Uiso   1.00
C143   C     0.61178   0.49919   0.20350   0.00000  Uiso   1.00
C144   C     0.71919   0.01389   0.05712   0.00000  Uiso   1.00
C145   C     0.68599   0.49545   0.01687   0.00000  Uiso   1.00
C146   C     0.84304   0.47514   0.12784   0.00000  Uiso   1.00
C147   C     0.88822   0.49919   0.12984   0.00000  Uiso   1.00
C148   C     0.72318   0.10379   0.13251   0.00000  Uiso   1.00
C149   C     0.78744   0.39643   0.18250   0.00000  Uiso   1.00
C150   C     0.77585   0.05327   0.20244   0.00000  Uiso   1.00
C151   C     0.71040   0.44607   0.15946   0.00000  Uiso   1.00
C152   C     0.72415   0.05327   0.13089   0.00000  Uiso   1.00
Cu153  Cu    0.75000   0.29821   0.16667   0.00000  Uiso   1.00
Cu154  Cu    0.75000   0.20178   0.16667   0.00000  Uiso   1.00
H155   H     0.53493   0.27641   0.24078   0.00000  Uiso   1.00
H156   H     0.65955   0.40061   0.09347   0.00000  Uiso   1.00
H157   H     0.68744   0.16507   0.09791   0.00000  Uiso   1.00
H158   H     0.70182   0.11975   0.05707   0.00000  Uiso   1.00
H159   H     0.65740   0.11194   0.09732   0.00000  Uiso   1.00
H160   H     0.81570   0.34417   0.23425   0.00000  Uiso   1.00
H161   H     0.85281   0.36505   0.18803   0.00000  Uiso   1.00
H162   H     0.84045   0.40061   0.23986   0.00000  Uiso   1.00
H163   H     0.64660   0.24976   0.26755   0.00000  Uiso   1.00
H164   H     0.64402   0.31120   0.24758   0.00000  Uiso   1.00
H165   H     0.60278   0.28784   0.28537   0.00000  Uiso   1.00
H166   H     0.97517   0.22393   0.24145   0.00000  Uiso   1.00
H167   H     0.89487   0.18733   0.26719   0.00000  Uiso   1.00
H168   H     0.90691   0.24701   0.28856   0.00000  Uiso   1.00
H169   H     0.85396   0.23403   0.25849   0.00000  Uiso   1.00
H170   H     0.85340   0.24976   0.06578   0.00000  Uiso   1.00
H171   H     0.85599   0.31121   0.08576   0.00000  Uiso   1.00
H172   H     0.89723   0.28784   0.04797   0.00000  Uiso   1.00
H173   H     0.60513   0.18734   0.06614   0.00000  Uiso   1.00
H174   H     0.59309   0.24702   0.04478   0.00000  Uiso   1.00
H175   H     0.64604   0.23403   0.07484   0.00000  Uiso   1.00
H176   H     0.75858   0.48402   0.26415   0.00000  Uiso   1.00
H177   H     0.96507   0.27642   0.09255   0.00000  Uiso   1.00
H178   H     0.76087   0.04286   0.29169   0.00000  Uiso   1.00
H179   H     0.83393   0.02540   0.33296   0.00000  Uiso   1.00
H180   H     0.79642   0.47757   0.01230   0.00000  Uiso   1.00
H181   H     0.83667   0.46925   0.30087   0.00000  Uiso   1.00
H182   H     0.68107   0.49856   0.22683   0.00000  Uiso   1.00
H183   H     0.65449   0.44047   0.22498   0.00000  Uiso   1.00
H184   H     0.58662   0.47649   0.18304   0.00000  Uiso   1.00
H185   H     0.60166   0.00491   0.24146   0.00000  Uiso   1.00
H186   H     0.61341   0.03415   0.18470   0.00000  Uiso   1.00
H187   H     0.74142   0.48402   0.06918   0.00000  Uiso   1.00
H188   H     0.52483   0.22393   0.09188   0.00000  Uiso   1.00
H189   H     0.73913   0.04285   0.04165   0.00000  Uiso   1.00
H190   H     0.66607   0.02540   0.00037   0.00000  Uiso   1.00
H191   H     0.70358   0.47757   0.32104   0.00000  Uiso   1.00
H192   H     0.66333   0.46925   0.03246   0.00000  Uiso   1.00
H193   H     0.81893   0.49856   0.10650   0.00000  Uiso   1.00
H194   H     0.84551   0.44047   0.10836   0.00000  Uiso   1.00
H195   H     0.91338   0.47649   0.15029   0.00000  Uiso   1.00
H196   H     0.89834   0.00491   0.09187   0.00000  Uiso   1.00
H197   H     0.88659   0.03415   0.14863   0.00000  Uiso   1.00
H198   H     0.81256   0.16507   0.23542   0.00000  Uiso   1.00
H199   H     0.79818   0.11975   0.27626   0.00000  Uiso   1.00
H200   H     0.84260   0.11194   0.23601   0.00000  Uiso   1.00
H201   H     0.68430   0.34417   0.09908   0.00000  Uiso   1.00
H202   H     0.64719   0.36505   0.14530   0.00000  Uiso   1.00
N203   N     0.75000   0.12934   0.16667   0.00000  Uiso   1.00
N204   N     0.75000   0.37065   0.16667   0.00000  Uiso   1.00
O205   O     0.68573   0.29072   0.16667   0.00000  Uiso   1.00
O206   O     0.66941   0.46823   0.15704   0.00000  Uiso   1.00
O207   O     0.69558   0.03033   0.09651   0.00000  Uiso   1.00
O208   O     0.83059   0.46823   0.17629   0.00000  Uiso   1.00
O209   O     0.81427   0.20928   0.16666   0.00000  Uiso   1.00
O210   O     0.81427   0.29071   0.16666   0.00000  Uiso   1.00
O211   O     0.68573   0.20928   0.16667   0.00000  Uiso   1.00
O212   O     0.75000   0.29071   0.09613   0.00000  Uiso   1.00
O213   O     0.75000   0.20929   0.23720   0.00000  Uiso   1.00
O214   O     0.75000   0.29071   0.23720   0.00000  Uiso   1.00
O215   O     0.75000   0.20929   0.09613   0.00000  Uiso   1.00
O216   O     0.80442   0.03033   0.23682   0.00000  Uiso   1.00
C217   C     0.16528   0.75007   0.16624   0.00000  Uiso   1.00
C218   C     0.28960   0.94607   0.17387   0.00000  Uiso   1.00
C219   C     0.24980   0.75000   0.07364   0.00000  Uiso   1.00
C220   C     0.25020   0.75000   0.25970   0.00000  Uiso   1.00
C221   C     0.25000   0.52697   0.16667   0.00000  Uiso   1.00
C222   C     0.25000   0.97264   0.16667   0.00000  Uiso   1.00
C223   C     0.24992   0.74999   0.02187   0.00000  Uiso   1.00
C224   C     0.25008   0.74999   0.31147   0.00000  Uiso   1.00
C225   C     0.05058   0.76446   0.20840   0.00000  Uiso   1.00
C226   C     0.45519   0.73567   0.20904   0.00000  Uiso   1.00
C227   C     0.44942   0.76446   0.12493   0.00000  Uiso   1.00
C228   C     0.33472   0.75007   0.16709   0.00000  Uiso   1.00
C229   C     0.04481   0.73567   0.12429   0.00000  Uiso   1.00
C230   C     0.09684   0.76451   0.20872   0.00000  Uiso   1.00
C231   C     0.40912   0.73710   0.21036   0.00000  Uiso   1.00
C232   C     0.40316   0.76451   0.12462   0.00000  Uiso   1.00
C233   C     0.09088   0.73710   0.12297   0.00000  Uiso   1.00
C234   C     0.11709   0.75048   0.16586   0.00000  Uiso   1.00
C235   C     0.38291   0.75048   0.16747   0.00000  Uiso   1.00
C236   C     0.02439   0.74966   0.16658   0.00000  Uiso   1.00
C237   C     0.47561   0.74966   0.16676   0.00000  Uiso   1.00
C238   C     0.30882   0.62692   0.23878   0.00000  Uiso   1.00
C239   C     0.27683   0.60379   0.20083   0.00000  Uiso   1.00
C240   C     0.17383   0.87469   0.12106   0.00000  Uiso   1.00
C241   C     0.19118   0.62692   0.09455   0.00000  Uiso   1.00
C242   C     0.32617   0.87469   0.21227   0.00000  Uiso   1.00
C243   C     0.12404   0.77919   0.25495   0.00000  Uiso   1.00
C244   C     0.38980   0.72562   0.25858   0.00000  Uiso   1.00
C245   C     0.37597   0.77919   0.07839   0.00000  Uiso   1.00
C246   C     0.11020   0.72562   0.07475   0.00000  Uiso   1.00
C247   C     0.28081   0.51389   0.27621   0.00000  Uiso   1.00
C248   C     0.31401   0.99545   0.31646   0.00000  Uiso   1.00
C249   C     0.15696   0.97514   0.20550   0.00000  Uiso   1.00
C250   C     0.21256   0.89643   0.15084   0.00000  Uiso   1.00
C251   C     0.11178   0.99919   0.20350   0.00000  Uiso   1.00
C252   C     0.21919   0.51389   0.05712   0.00000  Uiso   1.00
C253   C     0.18599   0.99545   0.01687   0.00000  Uiso   1.00
C254   C     0.34304   0.97514   0.12784   0.00000  Uiso   1.00
C255   C     0.38822   0.99919   0.12984   0.00000  Uiso   1.00
C256   C     0.22318   0.60379   0.13251   0.00000  Uiso   1.00
C257   C     0.28744   0.89643   0.18250   0.00000  Uiso   1.00
C258   C     0.27585   0.55327   0.20244   0.00000  Uiso   1.00
C259   C     0.21040   0.94607   0.15946   0.00000  Uiso   1.00
C260   C     0.22415   0.55327   0.13089   0.00000  Uiso   1.00
Cu261  Cu    0.25000   0.79821   0.16667   0.00000  Uiso   1.00
Cu262  Cu    0.25000   0.70178   0.16667   0.00000  Uiso   1.00
H263   H     0.03493   0.77641   0.24078   0.00000  Uiso   1.00
H264   H     0.15955   0.90061   0.09347   0.00000  Uiso   1.00
H265   H     0.18744   0.66507   0.09791   0.00000  Uiso   1.00
H266   H     0.20182   0.61975   0.05707   0.00000  Uiso   1.00
H267   H     0.15740   0.61194   0.09732   0.00000  Uiso   1.00
H268   H     0.31570   0.84417   0.23425   0.00000  Uiso   1.00
H269   H     0.35281   0.86505   0.18803   0.00000  Uiso   1.00
H270   H     0.34045   0.90061   0.23986   0.00000  Uiso   1.00
H271   H     0.14660   0.74976   0.26755   0.00000  Uiso   1.00
H272   H     0.14402   0.81120   0.24758   0.00000  Uiso   1.00
H273   H     0.10278   0.78784   0.28537   0.00000  Uiso   1.00
H274   H     0.47517   0.72393   0.24145   0.00000  Uiso   1.00
H275   H     0.39487   0.68733   0.26719   0.00000  Uiso   1.00
H276   H     0.40691   0.74701   0.28856   0.00000  Uiso   1.00
H277   H     0.35396   0.73403   0.25849   0.00000  Uiso   1.00
H278   H     0.35340   0.74976   0.06578   0.00000  Uiso   1.00
H279   H     0.35599   0.81121   0.08576   0.00000  Uiso   1.00
H280   H     0.39723   0.78784   0.04797   0.00000  Uiso   1.00
H281   H     0.10513   0.68734   0.06614   0.00000  Uiso   1.00
H282   H     0.09309   0.74702   0.04478   0.00000  Uiso   1.00
H283   H     0.14604   0.73403   0.07484   0.00000  Uiso   1.00
H284   H     0.25858   0.98402   0.26415   0.00000  Uiso   1.00
H285   H     0.46507   0.77642   0.09255   0.00000  Uiso   1.00
H286   H     0.26087   0.54286   0.29169   0.00000  Uiso   1.00
H287   H     0.33393   0.52540   0.33296   0.00000  Uiso   1.00
H288   H     0.29642   0.97757   0.01230   0.00000  Uiso   1.00
H289   H     0.33667   0.96925   0.30087   0.00000  Uiso   1.00
H290   H     0.18107   0.99856   0.22683   0.00000  Uiso   1.00
H291   H     0.15449   0.94047   0.22498   0.00000  Uiso   1.00
H292   H     0.08662   0.97649   0.18304   0.00000  Uiso   1.00
H293   H     0.10166   0.50491   0.24146   0.00000  Uiso   1.00
H294   H     0.11341   0.53415   0.18470   0.00000  Uiso   1.00
H295   H     0.24142   0.98402   0.06918   0.00000  Uiso   1.00
H296   H     0.02483   0.72393   0.09188   0.00000  Uiso   1.00
H297   H     0.23913   0.54285   0.04165   0.00000  Uiso   1.00
H298   H     0.16607   0.52540   0.00037   0.00000  Uiso   1.00
H299   H     0.20358   0.97757   0.32104   0.00000  Uiso   1.00
H300   H     0.16333   0.96925   0.03246   0.00000  Uiso   1.00
H301   H     0.31893   0.99856   0.10650   0.00000  Uiso   1.00
H302   H     0.34551   0.94047   0.10836   0.00000  Uiso   1.00
H303   H     0.41338   0.97649   0.15029   0.00000  Uiso   1.00
H304   H     0.39834   0.50491   0.09187   0.00000  Uiso   1.00
H305   H     0.38659   0.53415   0.14863   0.00000  Uiso   1.00
H306   H     0.31256   0.66507   0.23542   0.00000  Uiso   1.00
H307   H     0.29818   0.61975   0.27626   0.00000  Uiso   1.00
H308   H     0.34260   0.61194   0.23601   0.00000  Uiso   1.00
H309   H     0.18430   0.84417   0.09908   0.00000  Uiso   1.00
H310   H     0.14719   0.86505   0.14530   0.00000  Uiso   1.00
N311   N     0.25000   0.62934   0.16667   0.00000  Uiso   1.00
N312   N     0.25000   0.87065   0.16667   0.00000  Uiso   1.00
O313   O     0.18573   0.79072   0.16667   0.00000  Uiso   1.00
O314   O     0.16941   0.96823   0.15704   0.00000  Uiso   1.00
O315   O     0.19558   0.53033   0.09651   0.00000  Uiso   1.00
O316   O     0.33059   0.96823   0.17629   0.00000  Uiso   1.00
O317   O     0.31427   0.70928   0.16666   0.00000  Uiso   1.00
O318   O     0.31427   0.79071   0.16666   0.00000  Uiso   1.00
O319   O     0.18573   0.70928   0.16667   0.00000  Uiso   1.00
O320   O     0.25000   0.79071   0.09613   0.00000  Uiso   1.00
O321   O     0.25000   0.70929   0.23720   0.00000  Uiso   1.00
O322   O     0.25000   0.79071   0.23720   0.00000  Uiso   1.00
O323   O     0.25000   0.70929   0.09613   0.00000  Uiso   1.00
O324   O     0.30442   0.53033   0.23682   0.00000  Uiso   1.00
C325   C     0.66528   0.75007   0.16624   0.00000  Uiso   1.00
C326   C     0.78960   0.94607   0.17387   0.00000  Uiso   1.00
C327   C     0.74980   0.75000   0.07364   0.00000  Uiso   1.00
C328   C     0.75020   0.75000   0.25970   0.00000  Uiso   1.00
C329   C     0.75000   0.52697   0.16667   0.00000  Uiso   1.00
C330   C     0.75000   0.97264   0.16667   0.00000  Uiso   1.00
C331   C     0.74992   0.74999   0.02187   0.00000  Uiso   1.00
C332   C     0.75008   0.74999   0.31147   0.00000  Uiso   1.00
C333   C     0.55058   0.76446   0.20840   0.00000  Uiso   1.00
C334   C     0.95519   0.73567   0.20904   0.00000  Uiso   1.00
C335   C     0.94942   0.76446   0.12493   0.00000  Uiso   1.00
C336   C     0.83472   0.75007   0.16709   0.00000  Uiso   1.00
C337   C     0.54481   0.73567   0.12429   0.00000  Uiso   1.00
C338   C     0.59684   0.76451   0.20872   0.00000  Uiso   1.00
C339   C     0.90912   0.73710   0.21036   0.00000  Uiso   1.00
C340   C     0.90316   0.76451   0.12462   0.00000  Uiso   1.00
C341   C     0.59088   0.73710   0.12297   0.00000  Uiso   1.00
C342   C     0.61709   0.75048   0.16586   0.00000  Uiso   1.00
C343   C     0.88291   0.75048   0.16747   0.00000  Uiso   1.00
C344   C     0.52439   0.74966   0.16658   0.00000  Uiso   1.00
C345   C     0.97561   0.74966   0.16676   0.00000  Uiso   1.00
C346   C     0.80882   0.62692   0.23878   0.00000  Uiso   1.00
C347   C     0.77683   0.60379   0.20083   0.00000  Uiso   1.00
C348   C     0.67383   0.87469   0.12106   0.00000  Uiso   1.00
C349   C     0.69118   0.62692   0.09455   0.00000  Uiso   1.00
C350   C     0.82617   0.87469   0.21227   0.00000  Uiso   1.00
C351   C     0.62404   0.77919   0.25495   0.00000  Uiso   1.00
C352   C     0.88980   0.72562   0.25858   0.00000  Uiso   1.00
C353   C     0.87597   0.77919   0.07839   0.00000  Uiso   1.00
C354   C     0.61020   0.72562   0.07475   0.00000  Uiso   1.00
C355   C     0.78081   0.51389   0.27621   0.00000  Uiso   1.00
C356   C     0.81401   0.99545   0.31646   0.00000  Uiso   1.00
C357   C     0.65696   0.97514   0.20550   0.00000  Uiso   1.00
C358   C     0.71256   0.89643   0.15084   0.00000  Uiso   1.00
C359   C     0.61178   0.99919   0.20350   0.00000  Uiso   1.00
C360   C     0.71919   0.51389   0.05712   0.00000  Uiso   1.00
C361   C     0.68599   0.99545   0.01687   0.00000  Uiso   1.00
C362   C     0.84304   0.97514   0.12784   0.00000  Uiso   1.00
C363   C     0.88822   0.99919   0.12984   0.00000  Uiso   1.00
C364   C     0.72318   0.60379   0.13251   0.00000  Uiso   1.00
C365   C     0.78744   0.89643   0.18250   0.00000  Uiso   1.00
C366   C     0.77585   0.55327   0.20244   0.00000  Uiso   1.00
C367   C     0.71040   0.94607   0.15946   0.00000  Uiso   1.00
C368   C     0.72415   0.55327   0.13089   0.00000  Uiso   1.00
Cu369  Cu    0.75000   0.79821   0.16667   0.00000  Uiso   1.00
Cu370  Cu    0.75000   0.70178   0.16667   0.00000  Uiso   1.00
H371   H     0.53493   0.77641   0.24078   0.00000  Uiso   1.00
H372   H     0.65955   0.90061   0.09347   0.00000  Uiso   1.00
H373   H     0.68744   0.66507   0.09791   0.00000  Uiso   1.00
H374   H     0.70182   0.61975   0.05707   0.00000  Uiso   1.00
H375   H     0.65740   0.61194   0.09732   0.00000  Uiso   1.00
H376   H     0.81570   0.84417   0.23425   0.00000  Uiso   1.00
H377   H     0.85281   0.86505   0.18803   0.00000  Uiso   1.00
H378   H     0.84045   0.90061   0.23986   0.00000  Uiso   1.00
H379   H     0.64660   0.74976   0.26755   0.00000  Uiso   1.00
H380   H     0.64402   0.81120   0.24758   0.00000  Uiso   1.00
H381   H     0.60278   0.78784   0.28537   0.00000  Uiso   1.00
H382   H     0.97517   0.72393   0.24145   0.00000  Uiso   1.00
H383   H     0.89487   0.68733   0.26719   0.00000  Uiso   1.00
H384   H     0.90691   0.74701   0.28856   0.00000  Uiso   1.00
H385   H     0.85396   0.73403   0.25849   0.00000  Uiso   1.00
H386   H     0.85340   0.74976   0.06578   0.00000  Uiso   1.00
H387   H     0.85599   0.81121   0.08576   0.00000  Uiso   1.00
H388   H     0.89723   0.78784   0.04797   0.00000  Uiso   1.00
H389   H     0.60513   0.68734   0.06614   0.00000  Uiso   1.00
H390   H     0.59309   0.74702   0.04478   0.00000  Uiso   1.00
H391   H     0.64604   0.73403   0.07484   0.00000  Uiso   1.00
H392   H     0.75858   0.98402   0.26415   0.00000  Uiso   1.00
H393   H     0.96507   0.77642   0.09255   0.00000  Uiso   1.00
H394   H     0.76087   0.54286   0.29169   0.00000  Uiso   1.00
H395   H     0.83393   0.52540   0.33296   0.00000  Uiso   1.00
H396   H     0.79642   0.97757   0.01230   0.00000  Uiso   1.00
H397   H     0.83667   0.96925   0.30087   0.00000  Uiso   1.00
H398   H     0.68107   0.99856   0.22683   0.00000  Uiso   1.00
H399   H     0.65449   0.94047   0.22498   0.00000  Uiso   1.00
H400   H     0.58662   0.97649   0.18304   0.00000  Uiso   1.00
H401   H     0.60166   0.50491   0.24146   0.00000  Uiso   1.00
H402   H     0.61341   0.53415   0.18470   0.00000  Uiso   1.00
H403   H     0.74142   0.98402   0.06918   0.00000  Uiso   1.00
H404   H     0.52483   0.72393   0.09188   0.00000  Uiso   1.00
H405   H     0.73913   0.54285   0.04165   0.00000  Uiso   1.00
H406   H     0.66607   0.52540   0.00037   0.00000  Uiso   1.00
H407   H     0.70358   0.97757   0.32104   0.00000  Uiso   1.00
H408   H     0.66333   0.96925   0.03246   0.00000  Uiso   1.00
H409   H     0.81893   0.99856   0.10650   0.00000  Uiso   1.00
H410   H     0.84551   0.94047   0.10836   0.00000  Uiso   1.00
H411   H     0.91338   0.97649   0.15029   0.00000  Uiso   1.00
H412   H     0.89834   0.50491   0.09187   0.00000  Uiso   1.00
H413   H     0.88659   0.53415   0.14863   0.00000  Uiso   1.00
H414   H     0.81256   0.66507   0.23542   0.00000  Uiso   1.00
H415   H     0.79818   0.61975   0.27626   0.00000  Uiso   1.00
H416   H     0.84260   0.61194   0.23601   0.00000  Uiso   1.00
H417   H     0.68430   0.84417   0.09908   0.00000  Uiso   1.00
H418   H     0.64719   0.86505   0.14530   0.00000  Uiso   1.00
N419   N     0.75000   0.62934   0.16667   0.00000  Uiso   1.00
N420   N     0.75000   0.87065   0.16667   0.00000  Uiso   1.00
O421   O     0.68573   0.79072   0.16667   0.00000  Uiso   1.00
O422   O     0.66941   0.96823   0.15704   0.00000  Uiso   1.00
O423   O     0.69558   0.53033   0.09651   0.00000  Uiso   1.00
O424   O     0.83059   0.96823   0.17629   0.00000  Uiso   1.00
O425   O     0.81427   0.70928   0.16666   0.00000  Uiso   1.00
O426   O     0.81427   0.79071   0.16666   0.00000  Uiso   1.00
O427   O     0.68573   0.70928   0.16667   0.00000  Uiso   1.00
O428   O     0.75000   0.79071   0.09613   0.00000  Uiso   1.00
O429   O     0.75000   0.70929   0.23720   0.00000  Uiso   1.00
O430   O     0.75000   0.79071   0.23720   0.00000  Uiso   1.00
O431   O     0.75000   0.70929   0.09613   0.00000  Uiso   1.00
O432   O     0.80442   0.53033   0.23682   0.00000  Uiso   1.00
C433   C     0.16528   0.25007   0.49957   0.00000  Uiso   1.00
C434   C     0.28960   0.44607   0.50721   0.00000  Uiso   1.00
C435   C     0.24980   0.25000   0.40697   0.00000  Uiso   1.00
C436   C     0.25020   0.25000   0.59303   0.00000  Uiso   1.00
C437   C     0.25000   0.02697   0.50000   0.00000  Uiso   1.00
C438   C     0.25000   0.47264   0.50000   0.00000  Uiso   1.00
C439   C     0.24992   0.24999   0.35520   0.00000  Uiso   1.00
C440   C     0.25008   0.24999   0.64480   0.00000  Uiso   1.00
C441   C     0.05058   0.26446   0.54174   0.00000  Uiso   1.00
C442   C     0.45519   0.23567   0.54237   0.00000  Uiso   1.00
C443   C     0.44942   0.26446   0.45826   0.00000  Uiso   1.00
C444   C     0.33472   0.25007   0.50043   0.00000  Uiso   1.00
C445   C     0.04481   0.23567   0.45763   0.00000  Uiso   1.00
C446   C     0.09684   0.26451   0.54205   0.00000  Uiso   1.00
C447   C     0.40912   0.23710   0.54370   0.00000  Uiso   1.00
C448   C     0.40316   0.26451   0.45795   0.00000  Uiso   1.00
C449   C     0.09088   0.23710   0.45630   0.00000  Uiso   1.00
C450   C     0.11709   0.25048   0.49920   0.00000  Uiso   1.00
C451   C     0.38291   0.25048   0.50080   0.00000  Uiso   1.00
C452   C     0.02439   0.24966   0.49991   0.00000  Uiso   1.00
C453   C     0.47561   0.24966   0.50009   0.00000  Uiso   1.00
C454   C     0.30882   0.12692   0.57212   0.00000  Uiso   1.00
C455   C     0.27683   0.10379   0.53416   0.00000  Uiso   1.00
C456   C     0.17383   0.37469   0.45440   0.00000  Uiso   1.00
C457   C     0.19118   0.12692   0.42788   0.00000  Uiso   1.00
C458   C     0.32617   0.37469   0.54560   0.00000  Uiso   1.00
C459   C     0.12404   0.27919   0.58828   0.00000  Uiso   1.00
C460   C     0.38980   0.22562   0.59191   0.00000  Uiso   1.00
C461   C     0.37597   0.27919   0.41172   0.00000  Uiso   1.00
C462   C     0.11020   0.22562   0.40809   0.00000  Uiso   1.00
C463   C     0.28081   0.01389   0.60955   0.00000  Uiso   1.00
C464   C     0.31401   0.49545   0.64980   0.00000  Uiso   1.00
C465   C     0.15696   0.47514   0.53883   0.00000  Uiso   1.00
C466   C     0.21256   0.39643   0.48417   0.00000  Uiso   1.00
C467   C     0.11178   0.49919   0.53683   0.00000  Uiso   1.00
C468   C     0.21919   0.01389   0.39045   0.00000  Uiso   1.00
C469   C     0.18599   0.49545   0.35020   0.00000  Uiso   1.00
C470   C     0.34304   0.47514   0.46117   0.00000  Uiso   1.00
C471   C     0.38822   0.49919   0.46317   0.00000  Uiso   1.00
C472   C     0.22318   0.10379   0.46584   0.00000  Uiso   1.00
C473   C     0.28744   0.39643   0.51583   0.00000  Uiso   1.00
C474   C     0.27585   0.05327   0.53577   0.00000  Uiso   1.00
C475   C     0.21040   0.44607   0.49279   0.00000  Uiso   1.00
C476   C     0.22415   0.05327   0.46422   0.00000  Uiso   1.00
Cu477  Cu    0.25000   0.29821   0.50000   0.00000  Uiso   1.00
Cu478  Cu    0.25000   0.20178   0.50000   0.00000  Uiso   1.00
H479   H     0.03493   0.27641   0.57411   0.00000  Uiso   1.00
H480   H     0.15955   0.40061   0.42681   0.00000  Uiso   1.00
H481   H     0.18744   0.16507   0.43125   0.00000  Uiso   1.00
H482   H     0.20182   0.11975   0.39041   0.00000  Uiso   1.00
H483   H     0.15740   0.11194   0.43065   0.00000  Uiso   1.00
H484   H     0.31570   0.34417   0.56759   0.00000  Uiso   1.00
H485   H     0.35281   0.36505   0.52136   0.00000  Uiso   1.00
H486   H     0.34045   0.40061   0.57319   0.00000  Uiso   1.00
H487   H     0.14660   0.24976   0.60089   0.00000  Uiso   1.00
H488   H     0.14402   0.31120   0.58091   0.00000  Uiso   1.00
H489   H     0.10278   0.28784   0.61870   0.00000  Uiso   1.00
H490   H     0.47517   0.22393   0.57479   0.00000  Uiso   1.00
H491   H     0.39487   0.18733   0.60052   0.00000  Uiso   1.00
H492   H     0.40691   0.24701   0.62189   0.00000  Uiso   1.00
H493   H     0.35396   0.23403   0.59182   0.00000  Uiso   1.00
H494   H     0.35340   0.24976   0.39911   0.00000  Uiso   1.00
H495   H     0.35599   0.31121   0.41909   0.00000  Uiso   1.00
H496   H     0.39723   0.28784   0.38130   0.00000  Uiso   1.00
H497   H     0.10513   0.18734   0.39948   0.00000  Uiso   1.00
H498   H     0.09309   0.24702   0.37811   0.00000  Uiso   1.00
H499   H     0.14604   0.23403   0.40818   0.00000  Uiso   1.00
H500   H     0.25858   0.48402   0.59748   0.00000  Uiso   1.00
H501   H     0.46507   0.27642   0.42589   0.00000  Uiso   1.00
H502   H     0.26087   0.04286   0.62502   0.00000  Uiso   1.00
H503   H     0.33393   0.02540   0.66630   0.00000  Uiso   1.00
H504   H     0.29642   0.47757   0.34563   0.00000  Uiso   1.00
H505   H     0.33667   0.46925   0.63421   0.00000  Uiso   1.00
H506   H     0.18107   0.49856   0.56017   0.00000  Uiso   1.00
H507   H     0.15449   0.44047   0.55831   0.00000  Uiso   1.00
H508   H     0.08662   0.47649   0.51637   0.00000  Uiso   1.00
H509   H     0.10166   0.00491   0.57480   0.00000  Uiso   1.00
H510   H     0.11341   0.03415   0.51803   0.00000  Uiso   1.00
H511   H     0.24142   0.48402   0.40252   0.00000  Uiso   1.00
H512   H     0.02483   0.22393   0.42521   0.00000  Uiso   1.00
H513   H     0.23913   0.04285   0.37498   0.00000  Uiso   1.00
H514   H     0.16607   0.02540   0.33370   0.00000  Uiso   1.00
H515   H     0.20358   0.47757   0.65437   0.00000  Uiso   1.00
H516   H     0.16333   0.46925   0.36579   0.00000  Uiso   1.00
H517   H     0.31893   0.49856   0.43983   0.00000  Uiso   1.00
H518   H     0.34551   0.44047   0.44169   0.00000  Uiso   1.00
H519   H     0.41338   0.47649   0.48363   0.00000  Uiso   1.00
H520   H     0.39834   0.00491   0.42520   0.00000  Uiso   1.00
H521   H     0.38659   0.03415   0.48197   0.00000  Uiso   1.00
H522   H     0.31256   0.16507   0.56875   0.00000  Uiso   1.00
H523   H     0.29818   0.11975   0.60959   0.00000  Uiso   1.00
H524   H     0.34260   0.11194   0.56935   0.00000  Uiso   1.00
H525   H     0.18430   0.34417   0.43241   0.00000  Uiso   1.00
H526   H     0.14719   0.36505   0.47864   0.00000  Uiso   1.00
N527   N     0.25000   0.12934   0.50000   0.00000  Uiso   1.00
N528   N     0.25000   0.37065   0.50000   0.00000  Uiso   1.00
O529   O     0.18573   0.29072   0.50000   0.00000  Uiso   1.00
O530   O     0.16941   0.46823   0.49037   0.00000  Uiso   1.00
O531   O     0.19558   0.03033   0.42985   0.00000  Uiso   1.00
O532   O     0.33059   0.46823   0.50963   0.00000  Uiso   1.00
O533   O     0.31427   0.20928   0.50000   0.00000  Uiso   1.00
O534   O     0.31427   0.29071   0.50000   0.00000  Uiso   1.00
O535   O     0.18573   0.20928   0.50000   0.00000  Uiso   1.00
O536   O     0.25000   0.29071   0.42946   0.00000  Uiso   1.00
O537   O     0.25000   0.20929   0.57054   0.00000  Uiso   1.00
O538   O     0.25000   0.29071   0.57054   0.00000  Uiso   1.00
O539   O     0.25000   0.20929   0.42946   0.00000  Uiso   1.00
O540   O     0.30442   0.03033   0.57015   0.00000  Uiso   1.00
C541   C     0.66528   0.25007   0.49957   0.00000  Uiso   1.00
C542   C     0.78960   0.44607   0.50721   0.00000  Uiso   1.00
C543   C     0.74980   0.25000   0.40697   0.00000  Uiso   1.00
C544   C     0.75020   0.25000   0.59303   0.00000  Uiso   1.00
C545   C     0.75000   0.02697   0.50000   0.00000  Uiso   1.00
C546   C     0.75000   0.47264   0.50000   0.00000  Uiso   1.00
C547   C     0.74992   0.24999   0.35520   0.00000  Uiso   1.00
C548   C     0.75008   0.24999   0.64480   0.00000  Uiso   1.00
C549   C     0.55058   0.26446   0.54174   0.00000  Uiso   1.00
C550   C     0.95519   0.23567   0.54237   0.00000  Uiso   1.00
C551   C     0.94942   0.26446   0.45826   0.00000  Uiso   1.00
C552   C     0.83472   0.25007   0.50043   0.00000  Uiso   1.00
C553   C     0.54481   0.23567   0.45763   0.00000  Uiso   1.00
C554   C     0.59684   0.26451   0.54205   0.00000  Uiso   1.00
C555   C     0.90912   0.23710   0.54370   0.00000  Uiso   1.00
C556   C     0.90316   0.26451   0.45795   0.00000  Uiso   1.00
C557   C     0.59088   0.23710   0.45630   0.00000  Uiso   1.00
C558   C     0.61709   0.25048   0.49920   0.00000  Uiso   1.00
C559   C     0.88291   0.25048   0.50080   0.00000  Uiso   1.00
C560   C     0.52439   0.24966   0.49991   0.00000  Uiso   1.00
C561   C     0.97561   0.24966   0.50009   0.00000  Uiso   1.00
C562   C     0.80882   0.12692   0.57212   0.00000  Uiso   1.00
C563   C     0.77683   0.10379   0.53416   0.00000  Uiso   1.00
C564   C     0.67383   0.37469   0.45440   0.00000  Uiso   1.00
C565   C     0.69118   0.12692   0.42788   0.00000  Uiso   1.00
C566   C     0.82617   0.37469   0.54560   0.00000  Uiso   1.00
C567   C     0.62404   0.27919   0.58828   0.00000  Uiso   1.00
C568   C     0.88980   0.22562   0.59191   0.00000  Uiso   1.00
C569   C     0.87597   0.27919   0.41172   0.00000  Uiso   1.00
C570   C     0.61020   0.22562   0.40809   0.00000  Uiso   1.00
C571   C     0.78081   0.01389   0.60955   0.00000  Uiso   1.00
C572   C     0.81401   0.49545   0.64980   0.00000  Uiso   1.00
C573   C     0.65696   0.47514   0.53883   0.00000  Uiso   1.00
C574   C     0.71256   0.39643   0.48417   0.00000  Uiso   1.00
C575   C     0.61178   0.49919   0.53683   0.00000  Uiso   1.00
C576   C     0.71919   0.01389   0.39045   0.00000  Uiso   1.00
C577   C     0.68599   0.49545   0.35020   0.00000  Uiso   1.00
C578   C     0.84304   0.47514   0.46117   0.00000  Uiso   1.00
C579   C     0.88822   0.49919   0.46317   0.00000  Uiso   1.00
C580   C     0.72318   0.10379   0.46584   0.00000  Uiso   1.00
C581   C     0.78744   0.39643   0.51583   0.00000  Uiso   1.00
C582   C     0.77585   0.05327   0.53577   0.00000  Uiso   1.00
C583   C     0.71040   0.44607   0.49279   0.00000  Uiso   1.00
C584   C     0.72415   0.05327   0.46422   0.00000  Uiso   1.00
Cu585  Cu    0.75000   0.29821   0.50000   0.00000  Uiso   1.00
Cu586  Cu    0.75000   0.20178   0.50000   0.00000  Uiso   1.00
H587   H     0.53493   0.27641   0.57411   0.00000  Uiso   1.00
H588   H     0.65955   0.40061   0.42681   0.00000  Uiso   1.00
H589   H     0.68744   0.16507   0.43125   0.00000  Uiso   1.00
H590   H     0.70182   0.11975   0.39041   0.00000  Uiso   1.00
H591   H     0.65740   0.11194   0.43065   0.00000  Uiso   1.00
H592   H     0.81570   0.34417   0.56759   0.00000  Uiso   1.00
H593   H     0.85281   0.36505   0.52136   0.00000  Uiso   1.00
H594   H     0.84045   0.40061   0.57319   0.00000  Uiso   1.00
H595   H     0.64660   0.24976   0.60089   0.00000  Uiso   1.00
H596   H     0.64402   0.31120   0.58091   0.00000  Uiso   1.00
H597   H     0.60278   0.28784   0.61870   0.00000  Uiso   1.00
H598   H     0.97517   0.22393   0.57479   0.00000  Uiso   1.00
H599   H     0.89487   0.18733   0.60052   0.00000  Uiso   1.00
H600   H     0.90691   0.24701   0.62189   0.00000  Uiso   1.00
H601   H     0.85396   0.23403   0.59182   0.00000  Uiso   1.00
H602   H     0.85340   0.24976   0.39911   0.00000  Uiso   1.00
H603   H     0.85599   0.31121   0.41909   0.00000  Uiso   1.00
H604   H     0.89723   0.28784   0.38130   0.00000  Uiso   1.00
H605   H     0.60513   0.18734   0.39948   0.00000  Uiso   1.00
H606   H     0.59309   0.24702   0.37811   0.00000  Uiso   1.00
H607   H     0.64604   0.23403   0.40818   0.00000  Uiso   1.00
H608   H     0.75858   0.48402   0.59748   0.00000  Uiso   1.00
H609   H     0.96507   0.27642   0.42589   0.00000  Uiso   1.00
H610   H     0.76087   0.04286   0.62502   0.00000  Uiso   1.00
H611   H     0.83393   0.02540   0.66630   0.00000  Uiso   1.00
H612   H     0.79642   0.47757   0.34563   0.00000  Uiso   1.00
H613   H     0.83667   0.46925   0.63421   0.00000  Uiso   1.00
H614   H     0.68107   0.49856   0.56017   0.00000  Uiso   1.00
H615   H     0.65449   0.44047   0.55831   0.00000  Uiso   1.00
H616   H     0.58662   0.47649   0.51637   0.00000  Uiso   1.00
H617   H     0.60166   0.00491   0.57480   0.00000  Uiso   1.00
H618   H     0.61341   0.03415   0.51803   0.00000  Uiso   1.00
H619   H     0.74142   0.48402   0.40252   0.00000  Uiso   1.00
H620   H     0.52483   0.22393   0.42521   0.00000  Uiso   1.00
H621   H     0.73913   0.04285   0.37498   0.00000  Uiso   1.00
H622   H     0.66607   0.02540   0.33370   0.00000  Uiso   1.00
H623   H     0.70358   0.47757   0.65437   0.00000  Uiso   1.00
H624   H     0.66333   0.46925   0.36579   0.00000  Uiso   1.00
H625   H     0.81893   0.49856   0.43983   0.00000  Uiso   1.00
H626   H     0.84551   0.44047   0.44169   0.00000  Uiso   1.00
H627   H     0.91338   0.47649   0.48363   0.00000  Uiso   1.00
H628   H     0.89834   0.00491   0.42520   0.00000  Uiso   1.00
H629   H     0.88659   0.03415   0.48197   0.00000  Uiso   1.00
H630   H     0.81256   0.16507   0.56875   0.00000  Uiso   1.00
H631   H     0.79818   0.11975   0.60959   0.00000  Uiso   1.00
H632   H     0.84260   0.11194   0.56935   0.00000  Uiso   1.00
H633   H     0.68430   0.34417   0.43241   0.00000  Uiso   1.00
H634   H     0.64719   0.36505   0.47864   0.00000  Uiso   1.00
N635   N     0.75000   0.12934   0.50000   0.00000  Uiso   1.00
N636   N     0.75000   0.37065   0.50000   0.00000  Uiso   1.00
O637   O     0.68573   0.29072   0.50000   0.00000  Uiso   1.00
O638   O     0.66941   0.46823   0.49037   0.00000  Uiso   1.00
O639   O     0.69558   0.03033   0.42985   0.00000  Uiso   1.00
O640   O     0.83059   0.46823   0.50963   0.00000  Uiso   1.00
O641   O     0.81427   0.20928   0.50000   0.00000  Uiso   1.00
O642   O     0.81427   0.29071   0.50000   0.00000  Uiso   1.00
O643   O     0.68573   0.20928   0.50000   0.00000  Uiso   1.00
O644   O     0.75000   0.29071   0.42946   0.00000  Uiso   1.00
O645   O     0.75000   0.20929   0.57054   0.00000  Uiso   1.00
O646   O     0.75000   0.29071   0.57054   0.00000  Uiso   1.00
O647   O     0.75000   0.20929   0.42946   0.00000  Uiso   1.00
O648   O     0.80442   0.03033   0.57015   0.00000  Uiso   1.00
C649   C     0.16528   0.75007   0.49957   0.00000  Uiso   1.00
C650   C     0.28960   0.94607   0.50721   0.00000  Uiso   1.00
C651   C     0.24980   0.75000   0.40697   0.00000  Uiso   1.00
C652   C     0.25020   0.75000   0.59303   0.00000  Uiso   1.00
C653   C     0.25000   0.52697   0.50000   0.00000  Uiso   1.00
C654   C     0.25000   0.97264   0.50000   0.00000  Uiso   1.00
C655   C     0.24992   0.74999   0.35520   0.00000  Uiso   1.00
C656   C     0.25008   0.74999   0.64480   0.00000  Uiso   1.00
C657   C     0.05058   0.76446   0.54174   0.00000  Uiso   1.00
C658   C     0.45519   0.73567   0.54237   0.00000  Uiso   1.00
C659   C     0.44942   0.76446   0.45826   0.00000  Uiso   1.00
C660   C     0.33472   0.75007   0.50043   0.00000  Uiso   1.00
C661   C     0.04481   0.73567   0.45763   0.00000  Uiso   1.00
C662   C     0.09684   0.76451   0.54205   0.00000  Uiso   1.00
C663   C     0.40912   0.73710   0.54370   0.00000  Uiso   1.00
C664   C     0.40316   0.76451   0.45795   0.00000  Uiso   1.00
C665   C     0.09088   0.73710   0.45630   0.00000  Uiso   1.00
C666   C     0.11709   0.75048   0.49920   0.00000  Uiso   1.00
C667   C     0.38291   0.75048   0.50080   0.00000  Uiso   1.00
C668   C     0.02439   0.74966   0.49991   0.00000  Uiso   1.00
C669   C     0.47561   0.74966   0.50009   0.00000  Uiso   1.00
C670   C     0.30882   0.62692   0.57212   0.00000  Uiso   1.00
C671   C     0.27683   0.60379   0.53416   0.00000  Uiso   1.00
C672   C     0.17383   0.87469   0.45440   0.00000  Uiso   1.00
C673   C     0.19118   0.62692   0.42788   0.00000  Uiso   1.00
C674   C     0.32617   0.87469   0.54560   0.00000  Uiso   1.00
C675   C     0.12404   0.77919   0.58828   0.00000  Uiso   1.00
C676   C     0.38980   0.72562   0.59191   0.00000  Uiso   1.00
C677   C     0.37597   0.77919   0.41172   0.00000  Uiso   1.00
C678   C     0.11020   0.72562   0.40809   0.00000  Uiso   1.00
C679   C     0.28081   0.51389   0.60955   0.00000  Uiso   1.00
C680   C     0.31401   0.99545   0.64980   0.00000  Uiso   1.00
C681   C     0.15696   0.97514   0.53883   0.00000  Uiso   1.00
C682   C     0.21256   0.89643   0.48417   0.00000  Uiso   1.00
C683   C     0.11178   0.99919   0.53683   0.00000  Uiso   1.00
C684   C     0.21919   0.51389   0.39045   0.00000  Uiso   1.00
C685   C     0.18599   0.99545   0.35020   0.00000  Uiso   1.00
C686   C     0.34304   0.97514   0.46117   0.00000  Uiso   1.00
C687   C     0.38822   0.99919   0.46317   0.00000  Uiso   1.00
C688   C     0.22318   0.60379   0.46584   0.00000  Uiso   1.00
C689   C     0.28744   0.89643   0.51583   0.00000  Uiso   1.00
C690   C     0.27585   0.55327   0.53577   0.00000  Uiso   1.00
C691   C     0.21040   0.94607   0.49279   0.00000  Uiso   1.00
C692   C     0.22415   0.55327   0.46422   0.00000  Uiso   1.00
Cu693  Cu    0.25000   0.79821   0.50000   0.00000  Uiso   1.00
Cu694  Cu    0.25000   0.70178   0.50000   0.00000  Uiso   1.00
H695   H     0.03493   0.77641   0.57411   0.00000  Uiso   1.00
H696   H     0.15955   0.90061   0.42681   0.00000  Uiso   1.00
H697   H     0.18744   0.66507   0.43125   0.00000  Uiso   1.00
H698   H     0.20182   0.61975   0.39041   0.00000  Uiso   1.00
H699   H     0.15740   0.61194   0.43065   0.00000  Uiso   1.00
H700   H     0.31570   0.84417   0.56759   0.00000  Uiso   1.00
H701   H     0.35281   0.86505   0.52136   0.00000  Uiso   1.00
H702   H     0.34045   0.90061   0.57319   0.00000  Uiso   1.00
H703   H     0.14660   0.74976   0.60089   0.00000  Uiso   1.00
H704   H     0.14402   0.81120   0.58091   0.00000  Uiso   1.00
H705   H     0.10278   0.78784   0.61870   0.00000  Uiso   1.00
H706   H     0.47517   0.72393   0.57479   0.00000  Uiso   1.00
H707   H     0.39487   0.68733   0.60052   0.00000  Uiso   1.00
H708   H     0.40691   0.74701   0.62189   0.00000  Uiso   1.00
H709   H     0.35396   0.73403   0.59182   0.00000  Uiso   1.00
H710   H     0.35340   0.74976   0.39911   0.00000  Uiso   1.00
H711   H     0.35599   0.81121   0.41909   0.00000  Uiso   1.00
H712   H     0.39723   0.78784   0.38130   0.00000  Uiso   1.00
H713   H     0.10513   0.68734   0.39948   0.00000  Uiso   1.00
H714   H     0.09309   0.74702   0.37811   0.00000  Uiso   1.00
H715   H     0.14604   0.73403   0.40818   0.00000  Uiso   1.00
H716   H     0.25858   0.98402   0.59748   0.00000  Uiso   1.00
H717   H     0.46507   0.77642   0.42589   0.00000  Uiso   1.00
H718   H     0.26087   0.54286   0.62502   0.00000  Uiso   1.00
H719   H     0.33393   0.52540   0.66630   0.00000  Uiso   1.00
H720   H     0.29642   0.97757   0.34563   0.00000  Uiso   1.00
H721   H     0.33667   0.96925   0.63421   0.00000  Uiso   1.00
H722   H     0.18107   0.99856   0.56017   0.00000  Uiso   1.00
H723   H     0.15449   0.94047   0.55831   0.00000  Uiso   1.00
H724   H     0.08662   0.97649   0.51637   0.00000  Uiso   1.00
H725   H     0.10166   0.50491   0.57480   0.00000  Uiso   1.00
H726   H     0.11341   0.53415   0.51803   0.00000  Uiso   1.00
H727   H     0.24142   0.98402   0.40252   0.00000  Uiso   1.00
H728   H     0.02483   0.72393   0.42521   0.00000  Uiso   1.00
H729   H     0.23913   0.54285   0.37498   0.00000  Uiso   1.00
H730   H     0.16607   0.52540   0.33370   0.00000  Uiso   1.00
H731   H     0.20358   0.97757   0.65437   0.00000  Uiso   1.00
H732   H     0.16333   0.96925   0.36579   0.00000  Uiso   1.00
H733   H     0.31893   0.99856   0.43983   0.00000  Uiso   1.00
H734   H     0.34551   0.94047   0.44169   0.00000  Uiso   1.00
H735   H     0.41338   0.97649   0.48363   0.00000  Uiso   1.00
H736   H     0.39834   0.50491   0.42520   0.00000  Uiso   1.00
H737   H     0.38659   0.53415   0.48197   0.00000  Uiso   1.00
H738   H     0.31256   0.66507   0.56875   0.00000  Uiso   1.00
H739   H     0.29818   0.61975   0.60959   0.00000  Uiso   1.00
H740   H     0.34260   0.61194   0.56935   0.00000  Uiso   1.00
H741   H     0.18430   0.84417   0.43241   0.00000  Uiso   1.00
H742   H     0.14719   0.86505   0.47864   0.00000  Uiso   1.00
N743   N     0.25000   0.62934   0.50000   0.00000  Uiso   1.00
N744   N     0.25000   0.87065   0.50000   0.00000  Uiso   1.00
O745   O     0.18573   0.79072   0.50000   0.00000  Uiso   1.00
O746   O     0.16941   0.96823   0.49037   0.00000  Uiso   1.00
O747   O     0.19558   0.53033   0.42985   0.00000  Uiso   1.00
O748   O     0.33059   0.96823   0.50963   0.00000  Uiso   1.00
O749   O     0.31427   0.70928   0.50000   0.00000  Uiso   1.00
O750   O     0.31427   0.79071   0.50000   0.00000  Uiso   1.00
O751   O     0.18573   0.70928   0.50000   0.00000  Uiso   1.00
O752   O     0.25000   0.79071   0.42946   0.00000  Uiso   1.00
O753   O     0.25000   0.70929   0.57054   0.00000  Uiso   1.00
O754   O     0.25000   0.79071   0.57054   0.00000  Uiso   1.00
O755   O     0.25000   0.70929   0.42946   0.00000  Uiso   1.00
O756   O     0.30442   0.53033   0.57015   0.00000  Uiso   1.00
C757   C     0.66528   0.75007   0.49957   0.00000  Uiso   1.00
C758   C     0.78960   0.94607   0.50721   0.00000  Uiso   1.00
C759   C     0.74980   0.75000   0.40697   0.00000  Uiso   1.00
C760   C     0.75020   0.75000   0.59303   0.00000  Uiso   1.00
C761   C     0.75000   0.52697   0.50000   0.00000  Uiso   1.00
C762   C     0.75000   0.97264   0.50000   0.00000  Uiso   1.00
C763   C     0.74992   0.74999   0.35520   0.00000  Uiso   1.00
C764   C     0.75008   0.74999   0.64480   0.00000  Uiso   1.00
C765   C     0.55058   0.76446   0.54174   0.00000  Uiso   1.00
C766   C     0.95519   0.73567   0.54237   0.00000  Uiso   1.00
C767   C     0.94942   0.76446   0.45826   0.00000  Uiso   1.00
C768   C     0.83472   0.75007   0.50043   0.00000  Uiso   1.00
C769   C     0.54481   0.73567   0.45763   0.00000  Uiso   1.00
C770   C     0.59684   0.76451   0.54205   0.00000  Uiso   1.00
C771   C     0.90912   0.73710   0.54370   0.00000  Uiso   1.00
C772   C     0.90316   0.76451   0.45795   0.00000  Uiso   1.00
C773   C     0.59088   0.73710   0.45630   0.00000  Uiso   1.00
C774   C     0.61709   0.75048   0.49920   0.00000  Uiso   1.00
C775   C     0.88291   0.75048   0.50080   0.00000  Uiso   1.00
C776   C     0.52439   0.74966   0.49991   0.00000  Uiso   1.00
C777   C     0.97561   0.74966   0.50009   0.00000  Uiso   1.00
C778   C     0.80882   0.62692   0.57212   0.00000  Uiso   1.00
C779   C     0.77683   0.60379   0.53416   0.00000  Uiso   1.00
C780   C     0.67383   0.87469   0.45440   0.00000  Uiso   1.00
C781   C     0.69118   0.62692   0.42788   0.00000  Uiso   1.00
C782   C     0.82617   0.87469   0.54560   0.00000  Uiso   1.00
C783   C     0.62404   0.77919   0.58828   0.00000  Uiso   1.00
C784   C     0.88980   0.72562   0.59191   0.00000  Uiso   1.00
C785   C     0.87597   0.77919   0.41172   0.00000  Uiso   1.00
C786   C     0.61020   0.72562   0.40809   0.00000  Uiso   1.00
C787   C     0.78081   0.51389   0.60955   0.00000  Uiso   1.00
C788   C     0.81401   0.99545   0.64980   0.00000  Uiso   1.00
C789   C     0.65696   0.97514   0.53883   0.00000  Uiso   1.00
C790   C     0.71256   0.89643   0.48417   0.00000  Uiso   1.00
C791   C     0.61178   0.99919   0.53683   0.00000  Uiso   1.00
C792   C     0.71919   0.51389   0.39045   0.00000  Uiso   1.00
C793   C     0.68599   0.99545   0.35020   0.00000  Uiso   1.00
C794   C     0.84304   0.97514   0.46117   0.00000  Uiso   1.00
C795   C     0.88822   0.99919   0.46317   0.00000  Uiso   1.00
C796   C     0.72318   0.60379   0.46584   0.00000  Uiso   1.00
C797   C     0.78744   0.89643   0.51583   0.00000  Uiso   1.00
C798   C     0.77585   0.55327   0.53577   0.00000  Uiso   1.00
C799   C     0.71040   0.94607   0.49279   0.00000  Uiso   1.00
C800   C     0.72415   0.55327   0.46422   0.00000  Uiso   1.00
Cu801  Cu    0.75000   0.79821   0.50000   0.00000  Uiso   1.00
Cu802  Cu    0.75000   0.70178   0.50000   0.00000  Uiso   1.00
H803   H     0.53493   0.77641   0.57411   0.00000  Uiso   1.00
H804   H     0.65955   0.90061   0.42681   0.00000  Uiso   1.00
H805   H     0.68744   0.66507   0.43125   0.00000  Uiso   1.00
H806   H     0.70182   0.61975   0.39041   0.00000  Uiso   1.00
H807   H     0.65740   0.61194   0.43065   0.00000  Uiso   1.00
H808   H     0.81570   0.84417   0.56759   0.00000  Uiso   1.00
H809   H     0.85281   0.86505   0.52136   0.00000  Uiso   1.00
H810   H     0.84045   0.90061   0.57319   0.00000  Uiso   1.00
H811   H     0.64660   0.74976   0.60089   0.00000  Uiso   1.00
H812   H     0.64402   0.81120   0.58091   0.00000  Uiso   1.00
H813   H     0.60278   0.78784   0.61870   0.00000  Uiso   1.00
H814   H     0.97517   0.72393   0.57479   0.00000  Uiso   1.00
H815   H     0.89487   0.68733   0.60052   0.00000  Uiso   1.00
H816   H     0.90691   0.74701   0.62189   0.00000  Uiso   1.00
H817   H     0.85396   0.73403   0.59182   0.00000  Uiso   1.00
H818   H     0.85340   0.74976   0.39911   0.00000  Uiso   1.00
H819   H     0.85599   0.81121   0.41909   0.00000  Uiso   1.00
H820   H     0.89723   0.78784   0.38130   0.00000  Uiso   1.00
H821   H     0.60513   0.68734   0.39948   0.00000  Uiso   1.00
H822   H     0.59309   0.74702   0.37811   0.00000  Uiso   1.00
H823   H     0.64604   0.73403   0.40818   0.00000  Uiso   1.00
H824   H     0.75858   0.98402   0.59748   0.00000  Uiso   1.00
H825   H     0.96507   0.77642   0.42589   0.00000  Uiso   1.00
H826   H     0.76087   0.54286   0.62502   0.00000  Uiso   1.00
H827   H     0.83393   0.52540   0.66630   0.00000  Uiso   1.00
H828   H     0.79642   0.97757   0.34563   0.00000  Uiso   1.00
H829   H     0.83667   0.96925   0.63421   0.00000  Uiso   1.00
H830   H     0.68107   0.99856   0.56017   0.00000  Uiso   1.00
H831   H     0.65449   0.94047   0.55831   0.00000  Uiso   1.00
H832   H     0.58662   0.97649   0.51637   0.00000  Uiso   1.00
H833   H     0.60166   0.50491   0.57480   0.00000  Uiso   1.00
H834   H     0.61341   0.53415   0.51803   0.00000  Uiso   1.00
H835   H     0.74142   0.98402   0.40252   0.00000  Uiso   1.00
H836   H     0.52483   0.72393   0.42521   0.00000  Uiso   1.00
H837   H     0.73913   0.54285   0.37498   0.00000  Uiso   1.00
H838   H     0.66607   0.52540   0.33370   0.00000  Uiso   1.00
H839   H     0.70358   0.97757   0.65437   0.00000  Uiso   1.00
H840   H     0.66333   0.96925   0.36579   0.00000  Uiso   1.00
H841   H     0.81893   0.99856   0.43983   0.00000  Uiso   1.00
H842   H     0.84551   0.94047   0.44169   0.00000  Uiso   1.00
H843   H     0.91338   0.97649   0.48363   0.00000  Uiso   1.00
H844   H     0.89834   0.50491   0.42520   0.00000  Uiso   1.00
H845   H     0.88659   0.53415   0.48197   0.00000  Uiso   1.00
H846   H     0.81256   0.66507   0.56875   0.00000  Uiso   1.00
H847   H     0.79818   0.61975   0.60959   0.00000  Uiso   1.00
H848   H     0.84260   0.61194   0.56935   0.00000  Uiso   1.00
H849   H     0.68430   0.84417   0.43241   0.00000  Uiso   1.00
H850   H     0.64719   0.86505   0.47864   0.00000  Uiso   1.00
N851   N     0.75000   0.62934   0.50000   0.00000  Uiso   1.00
N852   N     0.75000   0.87065   0.50000   0.00000  Uiso   1.00
O853   O     0.68573   0.79072   0.50000   0.00000  Uiso   1.00
O854   O     0.66941   0.96823   0.49037   0.00000  Uiso   1.00
O855   O     0.69558   0.53033   0.42985   0.00000  Uiso   1.00
O856   O     0.83059   0.96823   0.50963   0.00000  Uiso   1.00
O857   O     0.81427   0.70928   0.50000   0.00000  Uiso   1.00
O858   O     0.81427   0.79071   0.50000   0.00000  Uiso   1.00
O859   O     0.68573   0.70928   0.50000   0.00000  Uiso   1.00
O860   O     0.75000   0.79071   0.42946   0.00000  Uiso   1.00
O861   O     0.75000   0.70929   0.57054   0.00000  Uiso   1.00
O862   O     0.75000   0.79071   0.57054   0.00000  Uiso   1.00
O863   O     0.75000   0.70929   0.42946   0.00000  Uiso   1.00
O864   O     0.80442   0.53033   0.57015   0.00000  Uiso   1.00
C865   C     0.16528   0.25007   0.83291   0.00000  Uiso   1.00
C866   C     0.28960   0.44607   0.84054   0.00000  Uiso   1.00
C867   C     0.24980   0.25000   0.74030   0.00000  Uiso   1.00
C868   C     0.25020   0.25000   0.92636   0.00000  Uiso   1.00
C869   C     0.25000   0.02697   0.83333   0.00000  Uiso   1.00
C870   C     0.25000   0.47264   0.83333   0.00000  Uiso   1.00
C871   C     0.24992   0.24999   0.68853   0.00000  Uiso   1.00
C872   C     0.25008   0.24999   0.97813   0.00000  Uiso   1.00
C873   C     0.05058   0.26446   0.87507   0.00000  Uiso   1.00
C874   C     0.45519   0.23567   0.87570   0.00000  Uiso   1.00
C875   C     0.44942   0.26446   0.79160   0.00000  Uiso   1.00
C876   C     0.33472   0.25007   0.83376   0.00000  Uiso   1.00
C877   C     0.04481   0.23567   0.79096   0.00000  Uiso   1.00
C878   C     0.09684   0.26451   0.87538   0.00000  Uiso   1.00
C879   C     0.40912   0.23710   0.87703   0.00000  Uiso   1.00
C880   C     0.40316   0.26451   0.79128   0.00000  Uiso   1.00
C881   C     0.09088   0.23710   0.78963   0.00000  Uiso   1.00
C882   C     0.11709   0.25048   0.83253   0.00000  Uiso   1.00
C883   C     0.38291   0.25048   0.83414   0.00000  Uiso   1.00
C884   C     0.02439   0.24966   0.83324   0.00000  Uiso   1.00
C885   C     0.47561   0.24966   0.83342   0.00000  Uiso   1.00
C886   C     0.30882   0.12692   0.90545   0.00000  Uiso   1.00
C887   C     0.27683   0.10379   0.86749   0.00000  Uiso   1.00
C888   C     0.17383   0.37469   0.78773   0.00000  Uiso   1.00
C889   C     0.19118   0.12692   0.76121   0.00000  Uiso   1.00
C890   C     0.32617   0.37469   0.87894   0.00000  Uiso   1.00
C891   C     0.12404   0.27919   0.92161   0.00000  Uiso   1.00
C892   C     0.38980   0.22562   0.92524   0.00000  Uiso   1.00
C893   C     0.37597   0.27919   0.74505   0.00000  Uiso   1.00
C894   C     0.11020   0.22562   0.74142   0.00000  Uiso   1.00
C895   C     0.28081   0.01389   0.94288   0.00000  Uiso   1.00
C896   C     0.31401   0.49545   0.98313   0.00000  Uiso   1.00
C897   C     0.15696   0.47514   0.87216   0.00000  Uiso   1.00
C898   C     0.21256   0.39643   0.81750   0.00000  Uiso   1.00
C899   C     0.11178   0.49919   0.87016   0.00000  Uiso   1.00
C900   C     0.21919   0.01389   0.72379   0.00000  Uiso   1.00
C901   C     0.18599   0.49545   0.68354   0.00000  Uiso   1.00
C902   C     0.34304   0.47514   0.79450   0.00000  Uiso   1.00
C903   C     0.38822   0.49919   0.79650   0.00000  Uiso   1.00
C904   C     0.22318   0.10379   0.79917   0.00000  Uiso   1.00
C905   C     0.28744   0.39643   0.84916   0.00000  Uiso   1.00
C906   C     0.27585   0.05327   0.86911   0.00000  Uiso   1.00
C907   C     0.21040   0.44607   0.82613   0.00000  Uiso   1.00
C908   C     0.22415   0.05327   0.79756   0.00000  Uiso   1.00
Cu909  Cu    0.25000   0.29821   0.83333   0.00000  Uiso   1.00
Cu910  Cu    0.25000   0.20178   0.83333   0.00000  Uiso   1.00
H911   H     0.03493   0.27641   0.90745   0.00000  Uiso   1.00
H912   H     0.15955   0.40061   0.76014   0.00000  Uiso   1.00
H913   H     0.18744   0.16507   0.76458   0.00000  Uiso   1.00
H914   H     0.20182   0.11975   0.72374   0.00000  Uiso   1.00
H915   H     0.15740   0.11194   0.76398   0.00000  Uiso   1.00
H916   H     0.31570   0.34417   0.90092   0.00000  Uiso   1.00
H917   H     0.35281   0.36505   0.85469   0.00000  Uiso   1.00
H918   H     0.34045   0.40061   0.90652   0.00000  Uiso   1.00
H919   H     0.14660   0.24976   0.93422   0.00000  Uiso   1.00
H920   H     0.14402   0.31120   0.91424   0.00000  Uiso   1.00
H921   H     0.10278   0.28784   0.95203   0.00000  Uiso   1.00
H922   H     0.47517   0.22393   0.90812   0.00000  Uiso   1.00
H923   H     0.39487   0.18733   0.93385   0.00000  Uiso   1.00
H924   H     0.40691   0.24701   0.95522   0.00000  Uiso   1.00
H925   H     0.35396   0.23403   0.92516   0.00000  Uiso   1.00
H926   H     0.35340   0.24976   0.73245   0.00000  Uiso   1.00
H927   H     0.35599   0.31121   0.75243   0.00000  Uiso   1.00
H928   H     0.39723   0.28784   0.71463   0.00000  Uiso   1.00
H929   H     0.10513   0.18734   0.73281   0.00000  Uiso   1.00
H930   H     0.09309   0.24702   0.71144   0.00000  Uiso   1.00
H931   H     0.14604   0.23403   0.74151   0.00000  Uiso   1.00
H932   H     0.25858   0.48402   0.93082   0.00000  Uiso   1.00
H933   H     0.46507   0.27642   0.75922   0.00000  Uiso   1.00
H934   H     0.26087   0.04286   0.95835   0.00000  Uiso   1.00
H935   H     0.33393   0.02540   0.99963   0.00000  Uiso   1.00
H936   H     0.29642   0.47757   0.67896   0.00000  Uiso   1.00
H937   H     0.33667   0.46925   0.96754   0.00000  Uiso   1.00
H938   H     0.18107   0.49856   0.89350   0.00000  Uiso   1.00
H939   H     0.15449   0.44047   0.89164   0.00000  Uiso   1.00
H940   H     0.08662   0.47649   0.84971   0.00000  Uiso   1.00
H941   H     0.10166   0.00491   0.90813   0.00000  Uiso   1.00
H942   H     0.11341   0.03415   0.85136   0.00000  Uiso   1.00
H943   H     0.24142   0.48402   0.73585   0.00000  Uiso   1.00
H944   H     0.02483   0.22393   0.75855   0.00000  Uiso   1.00
H945   H     0.23913   0.04285   0.70831   0.00000  Uiso   1.00
H946   H     0.16607   0.02540   0.66704   0.00000  Uiso   1.00
H947   H     0.20358   0.47757   0.98770   0.00000  Uiso   1.00
H948   H     0.16333   0.46925   0.69913   0.00000  Uiso   1.00
H949   H     0.31893   0.49856   0.77316   0.00000  Uiso   1.00
H950   H     0.34551   0.44047   0.77503   0.00000  Uiso   1.00
H951   H     0.41338   0.47649   0.81696   0.00000  Uiso   1.00
H952   H     0.39834   0.00491   0.75854   0.00000  Uiso   1.00
H953   H     0.38659   0.03415   0.81530   0.00000  Uiso   1.00
H954   H     0.31256   0.16507   0.90209   0.00000  Uiso   1.00
H955   H     0.29818   0.11975   0.94293   0.00000  Uiso   1.00
H956   H     0.34260   0.11194   0.90268   0.00000  Uiso   1.00
H957   H     0.18430   0.34417   0.76575   0.00000  Uiso   1.00
H958   H     0.14719   0.36505   0.81197   0.00000  Uiso   1.00
N959   N     0.25000   0.12934   0.83333   0.00000  Uiso   1.00
N960   N     0.25000   0.37065   0.83333   0.00000  Uiso   1.00
O961   O     0.18573   0.29072   0.83334   0.00000  Uiso   1.00
O962   O     0.16941   0.46823   0.82371   0.00000  Uiso   1.00
O963   O     0.19558   0.03033   0.76318   0.00000  Uiso   1.00
O964   O     0.33059   0.46823   0.84296   0.00000  Uiso   1.00
O965   O     0.31427   0.20928   0.83333   0.00000  Uiso   1.00
O966   O     0.31427   0.29071   0.83333   0.00000  Uiso   1.00
O967   O     0.18573   0.20928   0.83334   0.00000  Uiso   1.00
O968   O     0.25000   0.29071   0.76280   0.00000  Uiso   1.00
O969   O     0.25000   0.20929   0.90387   0.00000  Uiso   1.00
O970   O     0.25000   0.29071   0.90387   0.00000  Uiso   1.00
O971   O     0.25000   0.20929   0.76280   0.00000  Uiso   1.00
O972   O     0.30442   0.03033   0.90349   0.00000  Uiso   1.00
C973   C     0.66528   0.25007   0.83291   0.00000  Uiso   1.00
C974   C     0.78960   0.44607   0.84054   0.00000  Uiso   1.00
C975   C     0.74980   0.25000   0.74030   0.00000  Uiso   1.00
C976   C     0.75020   0.25000   0.92636   0.00000  Uiso   1.00
C977   C     0.75000   0.02697   0.83333   0.00000  Uiso   1.00
C978   C     0.75000   0.47264   0.83333   0.00000  Uiso   1.00
C979   C     0.74992   0.24999   0.68853   0.00000  Uiso   1.00
C980   C     0.75008   0.24999   0.97813   0.00000  Uiso   1.00
C981   C     0.55058   0.26446   0.87507   0.00000  Uiso   1.00
C982   C     0.95519   0.23567   0.87570   0.00000  Uiso   1.00
C983   C     0.94942   0.26446   0.79160   0.00000  Uiso   1.00
C984   C     0.83472   0.25007   0.83376   0.00000  Uiso   1.00
C985   C     0.54481   0.23567   0.79096   0.00000  Uiso   1.00
C986   C     0.59684   0.26451   0.87538   0.00000  Uiso   1.00
C987   C     0.90912   0.23710   0.87703   0.00000  Uiso   1.00
C988   C     0.90316   0.26451   0.79128   0.00000  Uiso   1.00
C989   C     0.59088   0.23710   0.78963   0.00000  Uiso   1.00
C990   C     0.61709   0.25048   0.83253   0.00000  Uiso   1.00
C991   C     0.88291   0.25048   0.83414   0.00000  Uiso   1.00
C992   C     0.52439   0.24966   0.83324   0.00000  Uiso   1.00
C993   C     0.97561   0.24966   0.83342   0.00000  Uiso   1.00
C994   C     0.80882   0.12692   0.90545   0.00000  Uiso   1.00
C995   C     0.77683   0.10379   0.86749   0.00000  Uiso   1.00
C996   C     0.67383   0.37469   0.78773   0.00000  Uiso   1.00
C997   C     0.69118   0.12692   0.76121   0.00000  Uiso   1.00
C998   C     0.82617   0.37469   0.87894   0.00000  Uiso   1.00
C999   C     0.62404   0.27919   0.92161   0.00000  Uiso   1.00
C1000  C     0.88980   0.22562   0.92524   0.00000  Uiso   1.00
C1001  C     0.87597   0.27919   0.74505   0.00000  Uiso   1.00
C1002  C     0.61020   0.22562   0.74142   0.00000  Uiso   1.00
C1003  C     0.78081   0.01389   0.94288   0.00000  Uiso   1.00
C1004  C     0.81401   0.49545   0.98313   0.00000  Uiso   1.00
C1005  C     0.65696   0.47514   0.87216   0.00000  Uiso   1.00
C1006  C     0.71256   0.39643   0.81750   0.00000  Uiso   1.00
C1007  C     0.61178   0.49919   0.87016   0.00000  Uiso   1.00
C1008  C     0.71919   0.01389   0.72379   0.00000  Uiso   1.00
C1009  C     0.68599   0.49545   0.68354   0.00000  Uiso   1.00
C1010  C     0.84304   0.47514   0.79450   0.00000  Uiso   1.00
C1011  C     0.88822   0.49919   0.79650   0.00000  Uiso   1.00
C1012  C     0.72318   0.10379   0.79917   0.00000  Uiso   1.00
C1013  C     0.78744   0.39643   0.84916   0.00000  Uiso   1.00
C1014  C     0.77585   0.05327   0.86911   0.00000  Uiso   1.00
C1015  C     0.71040   0.44607   0.82613   0.00000  Uiso   1.00
C1016  C     0.72415   0.05327   0.79756   0.00000  Uiso   1.00
Cu1017 Cu    0.75000   0.29821   0.83333   0.00000  Uiso   1.00
Cu1018 Cu    0.75000   0.20178   0.83333   0.00000  Uiso   1.00
H1019  H     0.53493   0.27641   0.90745   0.00000  Uiso   1.00
H1020  H     0.65955   0.40061   0.76014   0.00000  Uiso   1.00
H1021  H     0.68744   0.16507   0.76458   0.00000  Uiso   1.00
H1022  H     0.70182   0.11975   0.72374   0.00000  Uiso   1.00
H1023  H     0.65740   0.11194   0.76398   0.00000  Uiso   1.00
H1024  H     0.81570   0.34417   0.90092   0.00000  Uiso   1.00
H1025  H     0.85281   0.36505   0.85469   0.00000  Uiso   1.00
H1026  H     0.84045   0.40061   0.90652   0.00000  Uiso   1.00
H1027  H     0.64660   0.24976   0.93422   0.00000  Uiso   1.00
H1028  H     0.64402   0.31120   0.91424   0.00000  Uiso   1.00
H1029  H     0.60278   0.28784   0.95203   0.00000  Uiso   1.00
H1030  H     0.97517   0.22393   0.90812   0.00000  Uiso   1.00
H1031  H     0.89487   0.18733   0.93385   0.00000  Uiso   1.00
H1032  H     0.90691   0.24701   0.95522   0.00000  Uiso   1.00
H1033  H     0.85396   0.23403   0.92516   0.00000  Uiso   1.00
H1034  H     0.85340   0.24976   0.73245   0.00000  Uiso   1.00
H1035  H     0.85599   0.31121   0.75243   0.00000  Uiso   1.00
H1036  H     0.89723   0.28784   0.71463   0.00000  Uiso   1.00
H1037  H     0.60513   0.18734   0.73281   0.00000  Uiso   1.00
H1038  H     0.59309   0.24702   0.71144   0.00000  Uiso   1.00
H1039  H     0.64604   0.23403   0.74151   0.00000  Uiso   1.00
H1040  H     0.75858   0.48402   0.93082   0.00000  Uiso   1.00
H1041  H     0.96507   0.27642   0.75922   0.00000  Uiso   1.00
H1042  H     0.76087   0.04286   0.95835   0.00000  Uiso   1.00
H1043  H     0.83393   0.02540   0.99963   0.00000  Uiso   1.00
H1044  H     0.79642   0.47757   0.67896   0.00000  Uiso   1.00
H1045  H     0.83667   0.46925   0.96754   0.00000  Uiso   1.00
H1046  H     0.68107   0.49856   0.89350   0.00000  Uiso   1.00
H1047  H     0.65449   0.44047   0.89164   0.00000  Uiso   1.00
H1048  H     0.58662   0.47649   0.84971   0.00000  Uiso   1.00
H1049  H     0.60166   0.00491   0.90813   0.00000  Uiso   1.00
H1050  H     0.61341   0.03415   0.85136   0.00000  Uiso   1.00
H1051  H     0.74142   0.48402   0.73585   0.00000  Uiso   1.00
H1052  H     0.52483   0.22393   0.75855   0.00000  Uiso   1.00
H1053  H     0.73913   0.04285   0.70831   0.00000  Uiso   1.00
H1054  H     0.66607   0.02540   0.66704   0.00000  Uiso   1.00
H1055  H     0.70358   0.47757   0.98770   0.00000  Uiso   1.00
H1056  H     0.66333   0.46925   0.69913   0.00000  Uiso   1.00
H1057  H     0.81893   0.49856   0.77316   0.00000  Uiso   1.00
H1058  H     0.84551   0.44047   0.77503   0.00000  Uiso   1.00
H1059  H     0.91338   0.47649   0.81696   0.00000  Uiso   1.00
H1060  H     0.89834   0.00491   0.75854   0.00000  Uiso   1.00
H1061  H     0.88659   0.03415   0.81530   0.00000  Uiso   1.00
H1062  H     0.81256   0.16507   0.90209   0.00000  Uiso   1.00
H1063  H     0.79818   0.11975   0.94293   0.00000  Uiso   1.00
H1064  H     0.84260   0.11194   0.90268   0.00000  Uiso   1.00
H1065  H     0.68430   0.34417   0.76575   0.00000  Uiso   1.00
H1066  H     0.64719   0.36505   0.81197   0.00000  Uiso   1.00
N1067  N     0.75000   0.12934   0.83333   0.00000  Uiso   1.00
N1068  N     0.75000   0.37065   0.83333   0.00000  Uiso   1.00
O1069  O     0.68573   0.29072   0.83334   0.00000  Uiso   1.00
O1070  O     0.66941   0.46823   0.82371   0.00000  Uiso   1.00
O1071  O     0.69558   0.03033   0.76318   0.00000  Uiso   1.00
O1072  O     0.83059   0.46823   0.84296   0.00000  Uiso   1.00
O1073  O     0.81427   0.20928   0.83333   0.00000  Uiso   1.00
O1074  O     0.81427   0.29071   0.83333   0.00000  Uiso   1.00
O1075  O     0.68573   0.20928   0.83334   0.00000  Uiso   1.00
O1076  O     0.75000   0.29071   0.76280   0.00000  Uiso   1.00
O1077  O     0.75000   0.20929   0.90387   0.00000  Uiso   1.00
O1078  O     0.75000   0.29071   0.90387   0.00000  Uiso   1.00
O1079  O     0.75000   0.20929   0.76280   0.00000  Uiso   1.00
O1080  O     0.80442   0.03033   0.90349   0.00000  Uiso   1.00
C1081  C     0.16528   0.75007   0.83291   0.00000  Uiso   1.00
C1082  C     0.28960   0.94607   0.84054   0.00000  Uiso   1.00
C1083  C     0.24980   0.75000   0.74030   0.00000  Uiso   1.00
C1084  C     0.25020   0.75000   0.92636   0.00000  Uiso   1.00
C1085  C     0.25000   0.52697   0.83333   0.00000  Uiso   1.00
C1086  C     0.25000   0.97264   0.83333   0.00000  Uiso   1.00
C1087  C     0.24992   0.74999   0.68853   0.00000  Uiso   1.00
C1088  C     0.25008   0.74999   0.97813   0.00000  Uiso   1.00
C1089  C     0.05058   0.76446   0.87507   0.00000  Uiso   1.00
C1090  C     0.45519   0.73567   0.87570   0.00000  Uiso   1.00
C1091  C     0.44942   0.76446   0.79160   0.00000  Uiso   1.00
C1092  C     0.33472   0.75007   0.83376   0.00000  Uiso   1.00
C1093  C     0.04481   0.73567   0.79096   0.00000  Uiso   1.00
C1094  C     0.09684   0.76451   0.87538   0.00000  Uiso   1.00
C1095  C     0.40912   0.73710   0.87703   0.00000  Uiso   1.00
C1096  C     0.40316   0.76451   0.79128   0.00000  Uiso   1.00
C1097  C     0.09088   0.73710   0.78963   0.00000  Uiso   1.00
C1098  C     0.11709   0.75048   0.83253   0.00000  Uiso   1.00
C1099  C     0.38291   0.75048   0.83414   0.00000  Uiso   1.00
C1100  C     0.02439   0.74966   0.83324   0.00000  Uiso   1.00
C1101  C     0.47561   0.74966   0.83342   0.00000  Uiso   1.00
C1102  C     0.30882   0.62692   0.90545   0.00000  Uiso   1.00
C1103  C     0.27683   0.60379   0.86749   0.00000  Uiso   1.00
C1104  C     0.17383   0.87469   0.78773   0.00000  Uiso   1.00
C1105  C     0.19118   0.62692   0.76121   0.00000  Uiso   1.00
C1106  C     0.32617   0.87469   0.87894   0.00000  Uiso   1.00
C1107  C     0.12404   0.77919   0.92161   0.00000  Uiso   1.00
C1108  C     0.38980   0.72562   0.92524   0.00000  Uiso   1.00
C1109  C     0.37597   0.77919   0.74505   0.00000  Uiso   1.00
C1110  C     0.11020   0.72562   0.74142   0.00000  Uiso   1.00
C1111  C     0.28081   0.51389   0.94288   0.00000  Uiso   1.00
C1112  C     0.31401   0.99545   0.98313   0.00000  Uiso   1.00
C1113  C     0.15696   0.97514   0.87216   0.00000  Uiso   1.00
C1114  C     0.21256   0.89643   0.81750   0.00000  Uiso   1.00
C1115  C     0.11178   0.99919   0.87016   0.00000  Uiso   1.00
C1116  C     0.21919   0.51389   0.72379   0.00000  Uiso   1.00
C1117  C     0.18599   0.99545   0.68354   0.00000  Uiso   1.00
C1118  C     0.34304   0.97514   0.79450   0.00000  Uiso   1.00
C1119  C     0.38822   0.99919   0.79650   0.00000  Uiso   1.00
C1120  C     0.22318   0.60379   0.79917   0.00000  Uiso   1.00
C1121  C     0.28744   0.89643   0.84916   0.00000  Uiso   1.00
C1122  C     0.27585   0.55327   0.86911   0.00000  Uiso   1.00
C1123  C     0.21040   0.94607   0.82613   0.00000  Uiso   1.00
C1124  C     0.22415   0.55327   0.79756   0.00000  Uiso   1.00
Cu1125 Cu    0.25000   0.79821   0.83333   0.00000  Uiso   1.00
Cu1126 Cu    0.25000   0.70178   0.83333   0.00000  Uiso   1.00
H1127  H     0.03493   0.77641   0.90745   0.00000  Uiso   1.00
H1128  H     0.15955   0.90061   0.76014   0.00000  Uiso   1.00
H1129  H     0.18744   0.66507   0.76458   0.00000  Uiso   1.00
H1130  H     0.20182   0.61975   0.72374   0.00000  Uiso   1.00
H1131  H     0.15740   0.61194   0.76398   0.00000  Uiso   1.00
H1132  H     0.31570   0.84417   0.90092   0.00000  Uiso   1.00
H1133  H     0.35281   0.86505   0.85469   0.00000  Uiso   1.00
H1134  H     0.34045   0.90061   0.90652   0.00000  Uiso   1.00
H1135  H     0.14660   0.74976   0.93422   0.00000  Uiso   1.00
H1136  H     0.14402   0.81120   0.91424   0.00000  Uiso   1.00
H1137  H     0.10278   0.78784   0.95203   0.00000  Uiso   1.00
H1138  H     0.47517   0.72393   0.90812   0.00000  Uiso   1.00
H1139  H     0.39487   0.68733   0.93385   0.00000  Uiso   1.00
H1140  H     0.40691   0.74701   0.95522   0.00000  Uiso   1.00
H1141  H     0.35396   0.73403   0.92516   0.00000  Uiso   1.00
H1142  H     0.35340   0.74976   0.73245   0.00000  Uiso   1.00
H1143  H     0.35599   0.81121   0.75243   0.00000  Uiso   1.00
H1144  H     0.39723   0.78784   0.71463   0.00000  Uiso   1.00
H1145  H     0.10513   0.68734   0.73281   0.00000  Uiso   1.00
H1146  H     0.09309   0.74702   0.71144   0.00000  Uiso   1.00
H1147  H     0.14604   0.73403   0.74151   0.00000  Uiso   1.00
H1148  H     0.25858   0.98402   0.93082   0.00000  Uiso   1.00
H1149  H     0.46507   0.77642   0.75922   0.00000  Uiso   1.00
H1150  H     0.26087   0.54286   0.95835   0.00000  Uiso   1.00
H1151  H     0.33393   0.52540   0.99963   0.00000  Uiso   1.00
H1152  H     0.29642   0.97757   0.67896   0.00000  Uiso   1.00
H1153  H     0.33667   0.96925   0.96754   0.00000  Uiso   1.00
H1154  H     0.18107   0.99856   0.89350   0.00000  Uiso   1.00
H1155  H     0.15449   0.94047   0.89164   0.00000  Uiso   1.00
H1156  H     0.08662   0.97649   0.84971   0.00000  Uiso   1.00
H1157  H     0.10166   0.50491   0.90813   0.00000  Uiso   1.00
H1158  H     0.11341   0.53415   0.85136   0.00000  Uiso   1.00
H1159  H     0.24142   0.98402   0.73585   0.00000  Uiso   1.00
H1160  H     0.02483   0.72393   0.75855   0.00000  Uiso   1.00
H1161  H     0.23913   0.54285   0.70831   0.00000  Uiso   1.00
H1162  H     0.16607   0.52540   0.66704   0.00000  Uiso   1.00
H1163  H     0.20358   0.97757   0.98770   0.00000  Uiso   1.00
H1164  H     0.16333   0.96925   0.69913   0.00000  Uiso   1.00
H1165  H     0.31893   0.99856   0.77316   0.00000  Uiso   1.00
H1166  H     0.34551   0.94047   0.77503   0.00000  Uiso   1.00
H1167  H     0.41338   0.97649   0.81696   0.00000  Uiso   1.00
H1168  H     0.39834   0.50491   0.75854   0.00000  Uiso   1.00
H1169  H     0.38659   0.53415   0.81530   0.00000  Uiso   1.00
H1170  H     0.31256   0.66507   0.90209   0.00000  Uiso   1.00
H1171  H     0.29818   0.61975   0.94293   0.00000  Uiso   1.00
H1172  H     0.34260   0.61194   0.90268   0.00000  Uiso   1.00
H1173  H     0.18430   0.84417   0.76575   0.00000  Uiso   1.00
H1174  H     0.14719   0.86505   0.81197   0.00000  Uiso   1.00
N1175  N     0.25000   0.62934   0.83333   0.00000  Uiso   1.00
N1176  N     0.25000   0.87065   0.83333   0.00000  Uiso   1.00
O1177  O     0.18573   0.79072   0.83334   0.00000  Uiso   1.00
O1178  O     0.16941   0.96823   0.82371   0.00000  Uiso   1.00
O1179  O     0.19558   0.53033   0.76318   0.00000  Uiso   1.00
O1180  O     0.33059   0.96823   0.84296   0.00000  Uiso   1.00
O1181  O     0.31427   0.70928   0.83333   0.00000  Uiso   1.00
O1182  O     0.31427   0.79071   0.83333   0.00000  Uiso   1.00
O1183  O     0.18573   0.70928   0.83334   0.00000  Uiso   1.00
O1184  O     0.25000   0.79071   0.76280   0.00000  Uiso   1.00
O1185  O     0.25000   0.70929   0.90387   0.00000  Uiso   1.00
O1186  O     0.25000   0.79071   0.90387   0.00000  Uiso   1.00
O1187  O     0.25000   0.70929   0.76280   0.00000  Uiso   1.00
O1188  O     0.30442   0.53033   0.90349   0.00000  Uiso   1.00
C1189  C     0.66528   0.75007   0.83291   0.00000  Uiso   1.00
C1190  C     0.78960   0.94607   0.84054   0.00000  Uiso   1.00
C1191  C     0.74980   0.75000   0.74030   0.00000  Uiso   1.00
C1192  C     0.75020   0.75000   0.92636   0.00000  Uiso   1.00
C1193  C     0.75000   0.52697   0.83333   0.00000  Uiso   1.00
C1194  C     0.75000   0.97264   0.83333   0.00000  Uiso   1.00
C1195  C     0.74992   0.74999   0.68853   0.00000  Uiso   1.00
C1196  C     0.75008   0.74999   0.97813   0.00000  Uiso   1.00
C1197  C     0.55058   0.76446   0.87507   0.00000  Uiso   1.00
C1198  C     0.95519   0.73567   0.87570   0.00000  Uiso   1.00
C1199  C     0.94942   0.76446   0.79160   0.00000  Uiso   1.00
C1200  C     0.83472   0.75007   0.83376   0.00000  Uiso   1.00
C1201  C     0.54481   0.73567   0.79096   0.00000  Uiso   1.00
C1202  C     0.59684   0.76451   0.87538   0.00000  Uiso   1.00
C1203  C     0.90912   0.73710   0.87703   0.00000  Uiso   1.00
C1204  C     0.90316   0.76451   0.79128   0.00000  Uiso   1.00
C1205  C     0.59088   0.73710   0.78963   0.00000  Uiso   1.00
C1206  C     0.61709   0.75048   0.83253   0.00000  Uiso   1.00
C1207  C     0.88291   0.75048   0.83414   0.00000  Uiso   1.00
C1208  C     0.52439   0.74966   0.83324   0.00000  Uiso   1.00
C1209  C     0.97561   0.74966   0.83342   0.00000  Uiso   1.00
C1210  C     0.80882   0.62692   0.90545   0.00000  Uiso   1.00
C1211  C     0.77683   0.60379   0.86749   0.00000  Uiso   1.00
C1212  C     0.67383   0.87469   0.78773   0.00000  Uiso   1.00
C1213  C     0.69118   0.62692   0.76121   0.00000  Uiso   1.00
C1214  C     0.82617   0.87469   0.87894   0.00000  Uiso   1.00
C1215  C     0.62404   0.77919   0.92161   0.00000  Uiso   1.00
C1216  C     0.88980   0.72562   0.92524   0.00000  Uiso   1.00
C1217  C     0.87597   0.77919   0.74505   0.00000  Uiso   1.00
C1218  C     0.61020   0.72562   0.74142   0.00000  Uiso   1.00
C1219  C     0.78081   0.51389   0.94288   0.00000  Uiso   1.00
C1220  C     0.81401   0.99545   0.98313   0.00000  Uiso   1.00
C1221  C     0.65696   0.97514   0.87216   0.00000  Uiso   1.00
C1222  C     0.71256   0.89643   0.81750   0.00000  Uiso   1.00
C1223  C     0.61178   0.99919   0.87016   0.00000  Uiso   1.00
C1224  C     0.71919   0.51389   0.72379   0.00000  Uiso   1.00
C1225  C     0.68599   0.99545   0.68354   0.00000  Uiso   1.00
C1226  C     0.84304   0.97514   0.79450   0.00000  Uiso   1.00
C1227  C     0.88822   0.99919   0.79650   0.00000  Uiso   1.00
C1228  C     0.72318   0.60379   0.79917   0.00000  Uiso   1.00
C1229  C     0.78744   0.89643   0.84916   0.00000  Uiso   1.00
C1230  C     0.77585   0.55327   0.86911   0.00000  Uiso   1.00
C1231  C     0.71040   0.94607   0.82613   0.00000  Uiso   1.00
C1232  C     0.72415   0.55327   0.79756   0.00000  Uiso   1.00
Cu1233 Cu    0.75000   0.79821   0.83333   0.00000  Uiso   1.00
Cu1234 Cu    0.75000   0.70178   0.83333   0.00000  Uiso   1.00
H1235  H     0.53493   0.77641   0.90745   0.00000  Uiso   1.00
H1236  H     0.65955   0.90061   0.76014   0.00000  Uiso   1.00
H1237  H     0.68744   0.66507   0.76458   0.00000  Uiso   1.00
H1238  H     0.70182   0.61975   0.72374   0.00000  Uiso   1.00
H1239  H     0.65740   0.61194   0.76398   0.00000  Uiso   1.00
H1240  H     0.81570   0.84417   0.90092   0.00000  Uiso   1.00
H1241  H     0.85281   0.86505   0.85469   0.00000  Uiso   1.00
H1242  H     0.84045   0.90061   0.90652   0.00000  Uiso   1.00
H1243  H     0.64660   0.74976   0.93422   0.00000  Uiso   1.00
H1244  H     0.64402   0.81120   0.91424   0.00000  Uiso   1.00
H1245  H     0.60278   0.78784   0.95203   0.00000  Uiso   1.00
H1246  H     0.97517   0.72393   0.90812   0.00000  Uiso   1.00
H1247  H     0.89487   0.68733   0.93385   0.00000  Uiso   1.00
H1248  H     0.90691   0.74701   0.95522   0.00000  Uiso   1.00
H1249  H     0.85396   0.73403   0.92516   0.00000  Uiso   1.00
H1250  H     0.85340   0.74976   0.73245   0.00000  Uiso   1.00
H1251  H     0.85599   0.81121   0.75243   0.00000  Uiso   1.00
H1252  H     0.89723   0.78784   0.71463   0.00000  Uiso   1.00
H1253  H     0.60513   0.68734   0.73281   0.00000  Uiso   1.00
H1254  H     0.59309   0.74702   0.71144   0.00000  Uiso   1.00
H1255  H     0.64604   0.73403   0.74151   0.00000  Uiso   1.00
H1256  H     0.75858   0.98402   0.93082   0.00000  Uiso   1.00
H1257  H     0.96507   0.77642   0.75922   0.00000  Uiso   1.00
H1258  H     0.76087   0.54286   0.95835   0.00000  Uiso   1.00
H1259  H     0.83393   0.52540   0.99963   0.00000  Uiso   1.00
H1260  H     0.79642   0.97757   0.67896   0.00000  Uiso   1.00
H1261  H     0.83667   0.96925   0.96754   0.00000  Uiso   1.00
H1262  H     0.68107   0.99856   0.89350   0.00000  Uiso   1.00
H1263  H     0.65449   0.94047   0.89164   0.00000  Uiso   1.00
H1264  H     0.58662   0.97649   0.84971   0.00000  Uiso   1.00
H1265  H     0.60166   0.50491   0.90813   0.00000  Uiso   1.00
H1266  H     0.61341   0.53415   0.85136   0.00000  Uiso   1.00
H1267  H     0.74142   0.98402   0.73585   0.00000  Uiso   1.00
H1268  H     0.52483   0.72393   0.75855   0.00000  Uiso   1.00
H1269  H     0.73913   0.54285   0.70831   0.00000  Uiso   1.00
H1270  H     0.66607   0.52540   0.66704   0.00000  Uiso   1.00
H1271  H     0.70358   0.97757   0.98770   0.00000  Uiso   1.00
H1272  H     0.66333   0.96925   0.69913   0.00000  Uiso   1.00
H1273  H     0.81893   0.99856   0.77316   0.00000  Uiso   1.00
H1274  H     0.84551   0.94047   0.77503   0.00000  Uiso   1.00
H1275  H     0.91338   0.97649   0.81696   0.00000  Uiso   1.00
H1276  H     0.89834   0.50491   0.75854   0.00000  Uiso   1.00
H1277  H     0.88659   0.53415   0.81530   0.00000  Uiso   1.00
H1278  H     0.81256   0.66507   0.90209   0.00000  Uiso   1.00
H1279  H     0.79818   0.61975   0.94293   0.00000  Uiso   1.00
H1280  H     0.84260   0.61194   0.90268   0.00000  Uiso   1.00
H1281  H     0.68430   0.84417   0.76575   0.00000  Uiso   1.00
H1282  H     0.64719   0.86505   0.81197   0.00000  Uiso   1.00
N1283  N     0.75000   0.62934   0.83333   0.00000  Uiso   1.00
N1284  N     0.75000   0.87065   0.83333   0.00000  Uiso   1.00
O1285  O     0.68573   0.79072   0.83334   0.00000  Uiso   1.00
O1286  O     0.66941   0.96823   0.82371   0.00000  Uiso   1.00
O1287  O     0.69558   0.53033   0.76318   0.00000  Uiso   1.00
O1288  O     0.83059   0.96823   0.84296   0.00000  Uiso   1.00
O1289  O     0.81427   0.70928   0.83333   0.00000  Uiso   1.00
O1290  O     0.81427   0.79071   0.83333   0.00000  Uiso   1.00
O1291  O     0.68573   0.70928   0.83334   0.00000  Uiso   1.00
O1292  O     0.75000   0.79071   0.76280   0.00000  Uiso   1.00
O1293  O     0.75000   0.70929   0.90387   0.00000  Uiso   1.00
O1294  O     0.75000   0.79071   0.90387   0.00000  Uiso   1.00
O1295  O     0.75000   0.70929   0.76280   0.00000  Uiso   1.00
O1296  O     0.80442   0.53033   0.90349   0.00000  Uiso   1.00
loop_
_geom_bond_atom_site_label_1
_geom_bond_atom_site_label_2
_geom_bond_distance
_geom_bond_site_symmetry_2
_ccdc_geom_bond_type
C1     C18     1.454   .     S
C1     O103    1.302   .     A
C1     O97     1.299   .     A
C2     C41     1.418   .     A
C2     O100    1.383   .     S
C2     C6      1.411   .     A
C3     O104    1.298   .     A
C3     O107    1.298   .     A
C3     C7      1.410   .     S
C4     C8      1.410   .     S
C4     O106    1.298   .     A
C4     O105    1.298   .     A
C5     C42     1.412   .     A
C5     C44     1.412   .     A
C5     C222    1.528   1_545 S
C6     C43     1.411   .     A
C6     C221    1.528   .     S
C7     C872    1.191   1_554 S
C8     C439    1.191   .     S
C9     C14     1.396   .     A
C9     C20     1.402   .     A
C9     H47     1.083   .     S
C10    H58     1.084   .     S
C10    C15     1.395   .     A
C10    C21     1.401   .     A
C11    C21     1.402   .     A
C11    C16     1.396   .     A
C11    H69     1.083   .     S
C12    O102    1.299   .     A
C12    O101    1.302   .     A
C12    C19     1.454   .     S
C13    C20     1.401   .     A
C13    C17     1.395   .     A
C13    H80     1.084   .     S
C14    C18     1.412   .     A
C14    C27     1.510   .     S
C15    C19     1.413   .     A
C15    C28     1.509   .     S
C16    C29     1.510   .     S
C16    C19     1.412   .     A
C17    C30     1.509   .     S
C17    C18     1.413   .     A
C20    C129    1.473   1_455 S
C21    C128    1.473   .     S
C22    H91     1.110   .     S
C22    H90     1.083   .     S
C22    H92     1.111   .     S
C22    C23     1.510   .     S
C23    C42     1.422   .     A
C23    N95     1.389   .     A
C24    H94     1.110   .     S
C24    H48     1.111   .     S
C24    C34     1.504   .     S
C24    H93     1.106   .     S
C25    C40     1.510   .     S
C25    H50     1.110   .     S
C25    H51     1.111   .     S
C25    H49     1.083   .     S
C26    H54     1.111   .     S
C26    H52     1.106   .     S
C26    H53     1.110   .     S
C26    C41     1.504   .     S
C27    H55     1.110   .     S
C27    H57     1.111   .     S
C27    H56     1.110   .     S
C28    H61     1.108   .     S
C28    H60     1.111   .     S
C28    H59     1.110   .     S
C29    H63     1.110   .     S
C29    H64     1.111   .     S
C29    H62     1.110   .     S
C30    H67     1.108   .     S
C30    H66     1.111   .     S
C30    H65     1.110   .     S
C31    O108    1.408   .     S
C31    H70     1.114   .     S
C31    C248    1.522   1_545 S
C31    H284    1.110   1_545 S
C32    H73     1.110   .     S
C32    C247    1.522   .     S
C32    H287    1.111   .     S
C32    H504    1.108   .     S
C33    O98     1.411   .     S
C33    H75     1.115   .     S
C33    C35     1.520   .     S
C33    H74     1.114   .     S
C34    N96     1.385   .     A
C34    C43     1.418   .     A
C35    H76     1.111   .     S
C35    H293    1.111   .     S
C35    H294    1.111   .     S
C36    H81     1.114   .     S
C36    O99     1.408   .     S
C36    C253    1.522   1_545 S
C36    H295    1.110   1_545 S
C37    H84     1.110   .     S
C37    C252    1.522   .     S
C37    H298    1.111   .     S
C37    H947    1.107   1_554 S
C38    H86     1.115   .     S
C38    C39     1.520   .     S
C38    H85     1.114   .     S
C38    O100    1.411   .     S
C39    H87     1.111   .     S
C39    H304    1.111   .     S
C39    H305    1.111   .     S
C40    N95     1.389   .     A
C40    C44     1.422   .     A
C41    N96     1.385   .     A
C42    O108    1.385   .     S
C43    O98     1.383   .     S
C44    O99     1.385   .     S
Cu45   Cu46    2.712   .     S
Cu45   O104    1.932   .     S
Cu45   O106    1.932   .     S
Cu45   O97     1.952   .     S
Cu45   O102    1.952   .     S
Cu45   N96     2.037   .     S
Cu46   O105    1.932   .     S
Cu46   N95     2.037   .     S
Cu46   O101    1.952   .     S
Cu46   O107    1.932   .     S
Cu46   O103    1.952   .     S
H68    C247    1.110   .     S
H71    C248    1.111   1_545 S
H72    C896    1.108   1_554 S
H77    C251    1.111   1_545 S
H78    C251    1.111   1_545 S
H79    C252    1.110   .     S
H82    C253    1.111   1_545 S
H83    C469    1.107   .     S
H88    C255    1.111   1_545 S
H89    C255    1.111   1_545 S
C109   C126    1.454   .     S
C109   O211    1.302   .     A
C109   O205    1.299   .     A
C110   C149    1.418   .     A
C110   O208    1.383   .     S
C110   C114    1.411   .     A
C111   O212    1.298   .     A
C111   O215    1.298   .     A
C111   C115    1.410   .     S
C112   C116    1.410   .     S
C112   O214    1.298   .     A
C112   O213    1.298   .     A
C113   C150    1.412   .     A
C113   C152    1.412   .     A
C113   C330    1.528   1_545 S
C114   C151    1.411   .     A
C114   C329    1.528   .     S
C115   C980    1.191   1_554 S
C116   C547    1.191   .     S
C117   C122    1.396   .     A
C117   C128    1.402   .     A
C117   H155    1.083   .     S
C118   H166    1.084   .     S
C118   C123    1.395   .     A
C118   C129    1.401   .     A
C119   C129    1.402   .     A
C119   C124    1.396   .     A
C119   H177    1.083   .     S
C120   O210    1.299   .     A
C120   O209    1.302   .     A
C120   C127    1.454   .     S
C121   C128    1.401   .     A
C121   C125    1.395   .     A
C121   H188    1.084   .     S
C122   C126    1.412   .     A
C122   C135    1.510   .     S
C123   C127    1.413   .     A
C123   C136    1.509   .     S
C124   C137    1.510   .     S
C124   C127    1.412   .     A
C125   C138    1.509   .     S
C125   C126    1.413   .     A
C129   C20     1.473   1_655 S
C130   H199    1.110   .     S
C130   H198    1.083   .     S
C130   H200    1.111   .     S
C130   C131    1.510   .     S
C131   C150    1.422   .     A
C131   N203    1.389   .     A
C132   H202    1.110   .     S
C132   H156    1.111   .     S
C132   C142    1.504   .     S
C132   H201    1.106   .     S
C133   C148    1.510   .     S
C133   H158    1.110   .     S
C133   H159    1.111   .     S
C133   H157    1.083   .     S
C134   H162    1.111   .     S
C134   H160    1.106   .     S
C134   H161    1.110   .     S
C134   C149    1.504   .     S
C135   H163    1.110   .     S
C135   H165    1.111   .     S
C135   H164    1.110   .     S
C136   H169    1.108   .     S
C136   H168    1.111   .     S
C136   H167    1.110   .     S
C137   H171    1.110   .     S
C137   H172    1.111   .     S
C137   H170    1.110   .     S
C138   H175    1.108   .     S
C138   H174    1.111   .     S
C138   H173    1.110   .     S
C139   O216    1.408   .     S
C139   H178    1.114   .     S
C139   C356    1.522   1_545 S
C139   H392    1.110   1_545 S
C140   H181    1.110   .     S
C140   C355    1.522   .     S
C140   H395    1.111   .     S
C140   H612    1.108   .     S
C141   O206    1.411   .     S
C141   H183    1.115   .     S
C141   C143    1.520   .     S
C141   H182    1.114   .     S
C142   N204    1.385   .     A
C142   C151    1.418   .     A
C143   H184    1.111   .     S
C143   H401    1.111   .     S
C143   H402    1.111   .     S
C144   H189    1.114   .     S
C144   O207    1.408   .     S
C144   C361    1.522   1_545 S
C144   H403    1.110   1_545 S
C145   H192    1.110   .     S
C145   C360    1.522   .     S
C145   H406    1.111   .     S
C145   H1055   1.107   1_554 S
C146   H194    1.115   .     S
C146   C147    1.520   .     S
C146   H193    1.114   .     S
C146   O208    1.411   .     S
C147   H195    1.111   .     S
C147   H412    1.111   .     S
C147   H413    1.111   .     S
C148   N203    1.389   .     A
C148   C152    1.422   .     A
C149   N204    1.385   .     A
C150   O216    1.385   .     S
C151   O206    1.383   .     S
C152   O207    1.385   .     S
Cu153  Cu154   2.712   .     S
Cu153  O212    1.932   .     S
Cu153  O214    1.932   .     S
Cu153  O205    1.952   .     S
Cu153  O210    1.952   .     S
Cu153  N204    2.037   .     S
Cu154  O213    1.932   .     S
Cu154  N203    2.037   .     S
Cu154  O209    1.952   .     S
Cu154  O215    1.932   .     S
Cu154  O211    1.952   .     S
H176   C355    1.110   .     S
H179   C356    1.111   1_545 S
H180   C1004   1.108   1_554 S
H185   C359    1.111   1_545 S
H186   C359    1.111   1_545 S
H187   C360    1.110   .     S
H190   C361    1.111   1_545 S
H191   C577    1.107   .     S
H196   C363    1.111   1_545 S
H197   C363    1.111   1_545 S
C217   C234    1.454   .     S
C217   O319    1.302   .     A
C217   O313    1.299   .     A
C218   C257    1.418   .     A
C218   O316    1.383   .     S
C218   C222    1.411   .     A
C219   O320    1.298   .     A
C219   O323    1.298   .     A
C219   C223    1.410   .     S
C220   C224    1.410   .     S
C220   O322    1.298   .     A
C220   O321    1.298   .     A
C221   C258    1.412   .     A
C221   C260    1.412   .     A
C222   C259    1.411   .     A
C222   C5      1.528   1_565 S
C223   C1088   1.191   1_554 S
C224   C655    1.191   .     S
C225   C230    1.396   .     A
C225   C236    1.402   .     A
C225   H263    1.083   .     S
C226   H274    1.084   .     S
C226   C231    1.395   .     A
C226   C237    1.401   .     A
C227   C237    1.402   .     A
C227   C232    1.396   .     A
C227   H285    1.083   .     S
C228   O318    1.299   .     A
C228   O317    1.302   .     A
C228   C235    1.454   .     S
C229   C236    1.401   .     A
C229   C233    1.395   .     A
C229   H296    1.084   .     S
C230   C234    1.412   .     A
C230   C243    1.510   .     S
C231   C235    1.413   .     A
C231   C244    1.509   .     S
C232   C245    1.510   .     S
C232   C235    1.412   .     A
C233   C246    1.509   .     S
C233   C234    1.413   .     A
C236   C345    1.473   1_455 S
C237   C344    1.473   .     S
C238   H307    1.110   .     S
C238   H306    1.083   .     S
C238   H308    1.111   .     S
C238   C239    1.510   .     S
C239   C258    1.422   .     A
C239   N311    1.389   .     A
C240   H310    1.110   .     S
C240   H264    1.111   .     S
C240   C250    1.504   .     S
C240   H309    1.106   .     S
C241   C256    1.510   .     S
C241   H266    1.110   .     S
C241   H267    1.111   .     S
C241   H265    1.083   .     S
C242   H270    1.111   .     S
C242   H268    1.106   .     S
C242   H269    1.110   .     S
C242   C257    1.504   .     S
C243   H271    1.110   .     S
C243   H273    1.111   .     S
C243   H272    1.110   .     S
C244   H277    1.108   .     S
C244   H276    1.111   .     S
C244   H275    1.110   .     S
C245   H279    1.110   .     S
C245   H280    1.111   .     S
C245   H278    1.110   .     S
C246   H283    1.108   .     S
C246   H282    1.111   .     S
C246   H281    1.110   .     S
C247   O324    1.408   .     S
C247   H286    1.114   .     S
C248   H289    1.110   .     S
C248   C31     1.522   1_565 S
C248   H71     1.111   1_565 S
C248   H720    1.108   .     S
C249   O314    1.411   .     S
C249   H291    1.115   .     S
C249   C251    1.520   .     S
C249   H290    1.114   .     S
C250   N312    1.385   .     A
C250   C259    1.418   .     A
C251   H292    1.111   .     S
C251   H77     1.111   1_565 S
C251   H78     1.111   1_565 S
C252   H297    1.114   .     S
C252   O315    1.408   .     S
C253   H300    1.110   .     S
C253   C36     1.522   1_565 S
C253   H82     1.111   1_565 S
C253   H1163   1.107   1_554 S
C254   H302    1.115   .     S
C254   C255    1.520   .     S
C254   H301    1.114   .     S
C254   O316    1.411   .     S
C255   H303    1.111   .     S
C255   H88     1.111   1_565 S
C255   H89     1.111   1_565 S
C256   N311    1.389   .     A
C256   C260    1.422   .     A
C257   N312    1.385   .     A
C258   O324    1.385   .     S
C259   O314    1.383   .     S
C260   O315    1.385   .     S
Cu261  Cu262   2.712   .     S
Cu261  O320    1.932   .     S
Cu261  O322    1.932   .     S
Cu261  O313    1.952   .     S
Cu261  O318    1.952   .     S
Cu261  N312    2.037   .     S
Cu262  O321    1.932   .     S
Cu262  N311    2.037   .     S
Cu262  O317    1.952   .     S
Cu262  O323    1.932   .     S
Cu262  O319    1.952   .     S
H284   C31     1.110   1_565 S
H288   C1112   1.108   1_554 S
H295   C36     1.110   1_565 S
H299   C685    1.107   .     S
C325   C342    1.454   .     S
C325   O427    1.302   .     A
C325   O421    1.299   .     A
C326   C365    1.418   .     A
C326   O424    1.383   .     S
C326   C330    1.411   .     A
C327   O428    1.298   .     A
C327   O431    1.298   .     A
C327   C331    1.410   .     S
C328   C332    1.410   .     S
C328   O430    1.298   .     A
C328   O429    1.298   .     A
C329   C366    1.412   .     A
C329   C368    1.412   .     A
C330   C367    1.411   .     A
C330   C113    1.528   1_565 S
C331   C1196   1.191   1_554 S
C332   C763    1.191   .     S
C333   C338    1.396   .     A
C333   C344    1.402   .     A
C333   H371    1.083   .     S
C334   H382    1.084   .     S
C334   C339    1.395   .     A
C334   C345    1.401   .     A
C335   C345    1.402   .     A
C335   C340    1.396   .     A
C335   H393    1.083   .     S
C336   O426    1.299   .     A
C336   O425    1.302   .     A
C336   C343    1.454   .     S
C337   C344    1.401   .     A
C337   C341    1.395   .     A
C337   H404    1.084   .     S
C338   C342    1.412   .     A
C338   C351    1.510   .     S
C339   C343    1.413   .     A
C339   C352    1.509   .     S
C340   C353    1.510   .     S
C340   C343    1.412   .     A
C341   C354    1.509   .     S
C341   C342    1.413   .     A
C345   C236    1.473   1_655 S
C346   H415    1.110   .     S
C346   H414    1.083   .     S
C346   H416    1.111   .     S
C346   C347    1.510   .     S
C347   C366    1.422   .     A
C347   N419    1.389   .     A
C348   H418    1.110   .     S
C348   H372    1.111   .     S
C348   C358    1.504   .     S
C348   H417    1.106   .     S
C349   C364    1.510   .     S
C349   H374    1.110   .     S
C349   H375    1.111   .     S
C349   H373    1.083   .     S
C350   H378    1.111   .     S
C350   H376    1.106   .     S
C350   H377    1.110   .     S
C350   C365    1.504   .     S
C351   H379    1.110   .     S
C351   H381    1.111   .     S
C351   H380    1.110   .     S
C352   H385    1.108   .     S
C352   H384    1.111   .     S
C352   H383    1.110   .     S
C353   H387    1.110   .     S
C353   H388    1.111   .     S
C353   H386    1.110   .     S
C354   H391    1.108   .     S
C354   H390    1.111   .     S
C354   H389    1.110   .     S
C355   O432    1.408   .     S
C355   H394    1.114   .     S
C356   H397    1.110   .     S
C356   C139    1.522   1_565 S
C356   H179    1.111   1_565 S
C356   H828    1.108   .     S
C357   O422    1.411   .     S
C357   H399    1.115   .     S
C357   C359    1.520   .     S
C357   H398    1.114   .     S
C358   N420    1.385   .     A
C358   C367    1.418   .     A
C359   H400    1.111   .     S
C359   H185    1.111   1_565 S
C359   H186    1.111   1_565 S
C360   H405    1.114   .     S
C360   O423    1.408   .     S
C361   H408    1.110   .     S
C361   C144    1.522   1_565 S
C361   H190    1.111   1_565 S
C361   H1271   1.107   1_554 S
C362   H410    1.115   .     S
C362   C363    1.520   .     S
C362   H409    1.114   .     S
C362   O424    1.411   .     S
C363   H411    1.111   .     S
C363   H196    1.111   1_565 S
C363   H197    1.111   1_565 S
C364   N419    1.389   .     A
C364   C368    1.422   .     A
C365   N420    1.385   .     A
C366   O432    1.385   .     S
C367   O422    1.383   .     S
C368   O423    1.385   .     S
Cu369  Cu370   2.712   .     S
Cu369  O428    1.932   .     S
Cu369  O430    1.932   .     S
Cu369  O421    1.952   .     S
Cu369  O426    1.952   .     S
Cu369  N420    2.037   .     S
Cu370  O429    1.932   .     S
Cu370  N419    2.037   .     S
Cu370  O425    1.952   .     S
Cu370  O431    1.932   .     S
Cu370  O427    1.952   .     S
H392   C139    1.110   1_565 S
H396   C1220   1.108   1_554 S
H403   C144    1.110   1_565 S
H407   C793    1.107   .     S
C433   C450    1.454   .     S
C433   O535    1.302   .     A
C433   O529    1.299   .     A
C434   C473    1.418   .     A
C434   O532    1.383   .     S
C434   C438    1.411   .     A
C435   O536    1.298   .     A
C435   O539    1.298   .     A
C435   C439    1.410   .     S
C436   C440    1.410   .     S
C436   O538    1.298   .     A
C436   O537    1.298   .     A
C437   C474    1.412   .     A
C437   C476    1.412   .     A
C437   C654    1.528   1_545 S
C438   C475    1.411   .     A
C438   C653    1.528   .     S
C440   C871    1.191   .     S
C441   C446    1.396   .     A
C441   C452    1.402   .     A
C441   H479    1.083   .     S
C442   H490    1.084   .     S
C442   C447    1.395   .     A
C442   C453    1.401   .     A
C443   C453    1.402   .     A
C443   C448    1.396   .     A
C443   H501    1.083   .     S
C444   O534    1.299   .     A
C444   O533    1.302   .     A
C444   C451    1.454   .     S
C445   C452    1.401   .     A
C445   C449    1.395   .     A
C445   H512    1.084   .     S
C446   C450    1.412   .     A
C446   C459    1.510   .     S
C447   C451    1.413   .     A
C447   C460    1.509   .     S
C448   C461    1.510   .     S
C448   C451    1.412   .     A
C449   C462    1.509   .     S
C449   C450    1.413   .     A
C452   C561    1.473   1_455 S
C453   C560    1.473   .     S
C454   H523    1.110   .     S
C454   H522    1.083   .     S
C454   H524    1.111   .     S
C454   C455    1.510   .     S
C455   C474    1.422   .     A
C455   N527    1.389   .     A
C456   H526    1.110   .     S
C456   H480    1.111   .     S
C456   C466    1.504   .     S
C456   H525    1.106   .     S
C457   C472    1.510   .     S
C457   H482    1.110   .     S
C457   H483    1.111   .     S
C457   H481    1.083   .     S
C458   H486    1.111   .     S
C458   H484    1.106   .     S
C458   H485    1.110   .     S
C458   C473    1.504   .     S
C459   H487    1.110   .     S
C459   H489    1.111   .     S
C459   H488    1.110   .     S
C460   H493    1.108   .     S
C460   H492    1.111   .     S
C460   H491    1.110   .     S
C461   H495    1.110   .     S
C461   H496    1.111   .     S
C461   H494    1.110   .     S
C462   H499    1.108   .     S
C462   H498    1.111   .     S
C462   H497    1.110   .     S
C463   O540    1.408   .     S
C463   H502    1.114   .     S
C463   C680    1.522   1_545 S
C463   H716    1.110   1_545 S
C464   H505    1.110   .     S
C464   C679    1.522   .     S
C464   H719    1.111   .     S
C464   H936    1.108   .     S
C465   O530    1.411   .     S
C465   H507    1.115   .     S
C465   C467    1.520   .     S
C465   H506    1.114   .     S
C466   N528    1.385   .     A
C466   C475    1.418   .     A
C467   H508    1.111   .     S
C467   H725    1.111   .     S
C467   H726    1.111   .     S
C468   H513    1.114   .     S
C468   O531    1.408   .     S
C468   C685    1.522   1_545 S
C468   H727    1.110   1_545 S
C469   H516    1.110   .     S
C469   C684    1.522   .     S
C469   H730    1.111   .     S
C470   H518    1.115   .     S
C470   C471    1.520   .     S
C470   H517    1.114   .     S
C470   O532    1.411   .     S
C471   H519    1.111   .     S
C471   H736    1.111   .     S
C471   H737    1.111   .     S
C472   N527    1.389   .     A
C472   C476    1.422   .     A
C473   N528    1.385   .     A
C474   O540    1.385   .     S
C475   O530    1.383   .     S
C476   O531    1.385   .     S
Cu477  Cu478   2.712   .     S
Cu477  O536    1.932   .     S
Cu477  O538    1.932   .     S
Cu477  O529    1.952   .     S
Cu477  O534    1.952   .     S
Cu477  N528    2.037   .     S
Cu478  O537    1.932   .     S
Cu478  N527    2.037   .     S
Cu478  O533    1.952   .     S
Cu478  O539    1.932   .     S
Cu478  O535    1.952   .     S
H500   C679    1.110   .     S
H503   C680    1.111   1_545 S
H509   C683    1.111   1_545 S
H510   C683    1.111   1_545 S
H511   C684    1.110   .     S
H514   C685    1.111   1_545 S
H515   C901    1.107   .     S
H520   C687    1.111   1_545 S
H521   C687    1.111   1_545 S
C541   C558    1.454   .     S
C541   O643    1.302   .     A
C541   O637    1.299   .     A
C542   C581    1.418   .     A
C542   O640    1.383   .     S
C542   C546    1.411   .     A
C543   O644    1.298   .     A
C543   O647    1.298   .     A
C543   C547    1.410   .     S
C544   C548    1.410   .     S
C544   O646    1.298   .     A
C544   O645    1.298   .     A
C545   C582    1.412   .     A
C545   C584    1.412   .     A
C545   C762    1.528   1_545 S
C546   C583    1.411   .     A
C546   C761    1.528   .     S
C548   C979    1.191   .     S
C549   C554    1.396   .     A
C549   C560    1.402   .     A
C549   H587    1.083   .     S
C550   H598    1.084   .     S
C550   C555    1.395   .     A
C550   C561    1.401   .     A
C551   C561    1.402   .     A
C551   C556    1.396   .     A
C551   H609    1.083   .     S
C552   O642    1.299   .     A
C552   O641    1.302   .     A
C552   C559    1.454   .     S
C553   C560    1.401   .     A
C553   C557    1.395   .     A
C553   H620    1.084   .     S
C554   C558    1.412   .     A
C554   C567    1.510   .     S
C555   C559    1.413   .     A
C555   C568    1.509   .     S
C556   C569    1.510   .     S
C556   C559    1.412   .     A
C557   C570    1.509   .     S
C557   C558    1.413   .     A
C561   C452    1.473   1_655 S
C562   H631    1.110   .     S
C562   H630    1.083   .     S
C562   H632    1.111   .     S
C562   C563    1.510   .     S
C563   C582    1.422   .     A
C563   N635    1.389   .     A
C564   H634    1.110   .     S
C564   H588    1.111   .     S
C564   C574    1.504   .     S
C564   H633    1.106   .     S
C565   C580    1.510   .     S
C565   H590    1.110   .     S
C565   H591    1.111   .     S
C565   H589    1.083   .     S
C566   H594    1.111   .     S
C566   H592    1.106   .     S
C566   H593    1.110   .     S
C566   C581    1.504   .     S
C567   H595    1.110   .     S
C567   H597    1.111   .     S
C567   H596    1.110   .     S
C568   H601    1.108   .     S
C568   H600    1.111   .     S
C568   H599    1.110   .     S
C569   H603    1.110   .     S
C569   H604    1.111   .     S
C569   H602    1.110   .     S
C570   H607    1.108   .     S
C570   H606    1.111   .     S
C570   H605    1.110   .     S
C571   O648    1.408   .     S
C571   H610    1.114   .     S
C571   C788    1.522   1_545 S
C571   H824    1.110   1_545 S
C572   H613    1.110   .     S
C572   C787    1.522   .     S
C572   H827    1.111   .     S
C572   H1044   1.108   .     S
C573   O638    1.411   .     S
C573   H615    1.115   .     S
C573   C575    1.520   .     S
C573   H614    1.114   .     S
C574   N636    1.385   .     A
C574   C583    1.418   .     A
C575   H616    1.111   .     S
C575   H833    1.111   .     S
C575   H834    1.111   .     S
C576   H621    1.114   .     S
C576   O639    1.408   .     S
C576   C793    1.522   1_545 S
C576   H835    1.110   1_545 S
C577   H624    1.110   .     S
C577   C792    1.522   .     S
C577   H838    1.111   .     S
C578   H626    1.115   .     S
C578   C579    1.520   .     S
C578   H625    1.114   .     S
C578   O640    1.411   .     S
C579   H627    1.111   .     S
C579   H844    1.111   .     S
C579   H845    1.111   .     S
C580   N635    1.389   .     A
C580   C584    1.422   .     A
C581   N636    1.385   .     A
C582   O648    1.385   .     S
C583   O638    1.383   .     S
C584   O639    1.385   .     S
Cu585  Cu586   2.712   .     S
Cu585  O644    1.932   .     S
Cu585  O646    1.932   .     S
Cu585  O637    1.952   .     S
Cu585  O642    1.952   .     S
Cu585  N636    2.037   .     S
Cu586  O645    1.932   .     S
Cu586  N635    2.037   .     S
Cu586  O641    1.952   .     S
Cu586  O647    1.932   .     S
Cu586  O643    1.952   .     S
H608   C787    1.110   .     S
H611   C788    1.111   1_545 S
H617   C791    1.111   1_545 S
H618   C791    1.111   1_545 S
H619   C792    1.110   .     S
H622   C793    1.111   1_545 S
H623   C1009   1.107   .     S
H628   C795    1.111   1_545 S
H629   C795    1.111   1_545 S
C649   C666    1.454   .     S
C649   O751    1.302   .     A
C649   O745    1.299   .     A
C650   C689    1.418   .     A
C650   O748    1.383   .     S
C650   C654    1.411   .     A
C651   O752    1.298   .     A
C651   O755    1.298   .     A
C651   C655    1.410   .     S
C652   C656    1.410   .     S
C652   O754    1.298   .     A
C652   O753    1.298   .     A
C653   C690    1.412   .     A
C653   C692    1.412   .     A
C654   C691    1.411   .     A
C654   C437    1.528   1_565 S
C656   C1087   1.191   .     S
C657   C662    1.396   .     A
C657   C668    1.402   .     A
C657   H695    1.083   .     S
C658   H706    1.084   .     S
C658   C663    1.395   .     A
C658   C669    1.401   .     A
C659   C669    1.402   .     A
C659   C664    1.396   .     A
C659   H717    1.083   .     S
C660   O750    1.299   .     A
C660   O749    1.302   .     A
C660   C667    1.454   .     S
C661   C668    1.401   .     A
C661   C665    1.395   .     A
C661   H728    1.084   .     S
C662   C666    1.412   .     A
C662   C675    1.510   .     S
C663   C667    1.413   .     A
C663   C676    1.509   .     S
C664   C677    1.510   .     S
C664   C667    1.412   .     A
C665   C678    1.509   .     S
C665   C666    1.413   .     A
C668   C777    1.473   1_455 S
C669   C776    1.473   .     S
C670   H739    1.110   .     S
C670   H738    1.083   .     S
C670   H740    1.111   .     S
C670   C671    1.510   .     S
C671   C690    1.422   .     A
C671   N743    1.389   .     A
C672   H742    1.110   .     S
C672   H696    1.111   .     S
C672   C682    1.504   .     S
C672   H741    1.106   .     S
C673   C688    1.510   .     S
C673   H698    1.110   .     S
C673   H699    1.111   .     S
C673   H697    1.083   .     S
C674   H702    1.111   .     S
C674   H700    1.106   .     S
C674   H701    1.110   .     S
C674   C689    1.504   .     S
C675   H703    1.110   .     S
C675   H705    1.111   .     S
C675   H704    1.110   .     S
C676   H709    1.108   .     S
C676   H708    1.111   .     S
C676   H707    1.110   .     S
C677   H711    1.110   .     S
C677   H712    1.111   .     S
C677   H710    1.110   .     S
C678   H715    1.108   .     S
C678   H714    1.111   .     S
C678   H713    1.110   .     S
C679   O756    1.408   .     S
C679   H718    1.114   .     S
C680   H721    1.110   .     S
C680   C463    1.522   1_565 S
C680   H503    1.111   1_565 S
C680   H1152   1.108   .     S
C681   O746    1.411   .     S
C681   H723    1.115   .     S
C681   C683    1.520   .     S
C681   H722    1.114   .     S
C682   N744    1.385   .     A
C682   C691    1.418   .     A
C683   H724    1.111   .     S
C683   H509    1.111   1_565 S
C683   H510    1.111   1_565 S
C684   H729    1.114   .     S
C684   O747    1.408   .     S
C685   H732    1.110   .     S
C685   C468    1.522   1_565 S
C685   H514    1.111   1_565 S
C686   H734    1.115   .     S
C686   C687    1.520   .     S
C686   H733    1.114   .     S
C686   O748    1.411   .     S
C687   H735    1.111   .     S
C687   H520    1.111   1_565 S
C687   H521    1.111   1_565 S
C688   N743    1.389   .     A
C688   C692    1.422   .     A
C689   N744    1.385   .     A
C690   O756    1.385   .     S
C691   O746    1.383   .     S
C692   O747    1.385   .     S
Cu693  Cu694   2.712   .     S
Cu693  O752    1.932   .     S
Cu693  O754    1.932   .     S
Cu693  O745    1.952   .     S
Cu693  O750    1.952   .     S
Cu693  N744    2.037   .     S
Cu694  O753    1.932   .     S
Cu694  N743    2.037   .     S
Cu694  O749    1.952   .     S
Cu694  O755    1.932   .     S
Cu694  O751    1.952   .     S
H716   C463    1.110   1_565 S
H727   C468    1.110   1_565 S
H731   C1117   1.107   .     S
C757   C774    1.454   .     S
C757   O859    1.302   .     A
C757   O853    1.299   .     A
C758   C797    1.418   .     A
C758   O856    1.383   .     S
C758   C762    1.411   .     A
C759   O860    1.298   .     A
C759   O863    1.298   .     A
C759   C763    1.410   .     S
C760   C764    1.410   .     S
C760   O862    1.298   .     A
C760   O861    1.298   .     A
C761   C798    1.412   .     A
C761   C800    1.412   .     A
C762   C799    1.411   .     A
C762   C545    1.528   1_565 S
C764   C1195   1.191   .     S
C765   C770    1.396   .     A
C765   C776    1.402   .     A
C765   H803    1.083   .     S
C766   H814    1.084   .     S
C766   C771    1.395   .     A
C766   C777    1.401   .     A
C767   C777    1.402   .     A
C767   C772    1.396   .     A
C767   H825    1.083   .     S
C768   O858    1.299   .     A
C768   O857    1.302   .     A
C768   C775    1.454   .     S
C769   C776    1.401   .     A
C769   C773    1.395   .     A
C769   H836    1.084   .     S
C770   C774    1.412   .     A
C770   C783    1.510   .     S
C771   C775    1.413   .     A
C771   C784    1.509   .     S
C772   C785    1.510   .     S
C772   C775    1.412   .     A
C773   C786    1.509   .     S
C773   C774    1.413   .     A
C777   C668    1.473   1_655 S
C778   H847    1.110   .     S
C778   H846    1.083   .     S
C778   H848    1.111   .     S
C778   C779    1.510   .     S
C779   C798    1.422   .     A
C779   N851    1.389   .     A
C780   H850    1.110   .     S
C780   H804    1.111   .     S
C780   C790    1.504   .     S
C780   H849    1.106   .     S
C781   C796    1.510   .     S
C781   H806    1.110   .     S
C781   H807    1.111   .     S
C781   H805    1.083   .     S
C782   H810    1.111   .     S
C782   H808    1.106   .     S
C782   H809    1.110   .     S
C782   C797    1.504   .     S
C783   H811    1.110   .     S
C783   H813    1.111   .     S
C783   H812    1.110   .     S
C784   H817    1.108   .     S
C784   H816    1.111   .     S
C784   H815    1.110   .     S
C785   H819    1.110   .     S
C785   H820    1.111   .     S
C785   H818    1.110   .     S
C786   H823    1.108   .     S
C786   H822    1.111   .     S
C786   H821    1.110   .     S
C787   O864    1.408   .     S
C787   H826    1.114   .     S
C788   H829    1.110   .     S
C788   C571    1.522   1_565 S
C788   H611    1.111   1_565 S
C788   H1260   1.108   .     S
C789   O854    1.411   .     S
C789   H831    1.115   .     S
C789   C791    1.520   .     S
C789   H830    1.114   .     S
C790   N852    1.385   .     A
C790   C799    1.418   .     A
C791   H832    1.111   .     S
C791   H617    1.111   1_565 S
C791   H618    1.111   1_565 S
C792   H837    1.114   .     S
C792   O855    1.408   .     S
C793   H840    1.110   .     S
C793   C576    1.522   1_565 S
C793   H622    1.111   1_565 S
C794   H842    1.115   .     S
C794   C795    1.520   .     S
C794   H841    1.114   .     S
C794   O856    1.411   .     S
C795   H843    1.111   .     S
C795   H628    1.111   1_565 S
C795   H629    1.111   1_565 S
C796   N851    1.389   .     A
C796   C800    1.422   .     A
C797   N852    1.385   .     A
C798   O864    1.385   .     S
C799   O854    1.383   .     S
C800   O855    1.385   .     S
Cu801  Cu802   2.712   .     S
Cu801  O860    1.932   .     S
Cu801  O862    1.932   .     S
Cu801  O853    1.952   .     S
Cu801  O858    1.952   .     S
Cu801  N852    2.037   .     S
Cu802  O861    1.932   .     S
Cu802  N851    2.037   .     S
Cu802  O857    1.952   .     S
Cu802  O863    1.932   .     S
Cu802  O859    1.952   .     S
H824   C571    1.110   1_565 S
H835   C576    1.110   1_565 S
H839   C1225   1.107   .     S
C865   C882    1.454   .     S
C865   O967    1.302   .     A
C865   O961    1.299   .     A
C866   C905    1.418   .     A
C866   O964    1.383   .     S
C866   C870    1.411   .     A
C867   O968    1.298   .     A
C867   O971    1.298   .     A
C867   C871    1.410   .     S
C868   C872    1.410   .     S
C868   O970    1.298   .     A
C868   O969    1.298   .     A
C869   C906    1.412   .     A
C869   C908    1.412   .     A
C869   C1086   1.528   1_545 S
C870   C907    1.411   .     A
C870   C1085   1.528   .     S
C872   C7      1.191   1_556 S
C873   C878    1.396   .     A
C873   C884    1.402   .     A
C873   H911    1.083   .     S
C874   H922    1.084   .     S
C874   C879    1.395   .     A
C874   C885    1.401   .     A
C875   C885    1.402   .     A
C875   C880    1.396   .     A
C875   H933    1.083   .     S
C876   O966    1.299   .     A
C876   O965    1.302   .     A
C876   C883    1.454   .     S
C877   C884    1.401   .     A
C877   C881    1.395   .     A
C877   H944    1.084   .     S
C878   C882    1.412   .     A
C878   C891    1.510   .     S
C879   C883    1.413   .     A
C879   C892    1.509   .     S
C880   C893    1.510   .     S
C880   C883    1.412   .     A
C881   C894    1.509   .     S
C881   C882    1.413   .     A
C884   C993    1.473   1_455 S
C885   C992    1.473   .     S
C886   H955    1.110   .     S
C886   H954    1.083   .     S
C886   H956    1.111   .     S
C886   C887    1.510   .     S
C887   C906    1.422   .     A
C887   N959    1.389   .     A
C888   H958    1.110   .     S
C888   H912    1.111   .     S
C888   C898    1.504   .     S
C888   H957    1.106   .     S
C889   C904    1.510   .     S
C889   H914    1.110   .     S
C889   H915    1.111   .     S
C889   H913    1.083   .     S
C890   H918    1.111   .     S
C890   H916    1.106   .     S
C890   H917    1.110   .     S
C890   C905    1.504   .     S
C891   H919    1.110   .     S
C891   H921    1.111   .     S
C891   H920    1.110   .     S
C892   H925    1.108   .     S
C892   H924    1.111   .     S
C892   H923    1.110   .     S
C893   H927    1.110   .     S
C893   H928    1.111   .     S
C893   H926    1.110   .     S
C894   H931    1.108   .     S
C894   H930    1.111   .     S
C894   H929    1.110   .     S
C895   O972    1.408   .     S
C895   H934    1.114   .     S
C895   C1112   1.522   1_545 S
C895   H1148   1.110   1_545 S
C896   H937    1.110   .     S
C896   C1111   1.522   .     S
C896   H1151   1.111   .     S
C896   H72     1.108   1_556 S
C897   O962    1.411   .     S
C897   H939    1.115   .     S
C897   C899    1.520   .     S
C897   H938    1.114   .     S
C898   N960    1.385   .     A
C898   C907    1.418   .     A
C899   H940    1.111   .     S
C899   H1157   1.111   .     S
C899   H1158   1.111   .     S
C900   H945    1.114   .     S
C900   O963    1.408   .     S
C900   C1117   1.522   1_545 S
C900   H1159   1.110   1_545 S
C901   H948    1.110   .     S
C901   C1116   1.522   .     S
C901   H1162   1.111   .     S
C902   H950    1.115   .     S
C902   C903    1.520   .     S
C902   H949    1.114   .     S
C902   O964    1.411   .     S
C903   H951    1.111   .     S
C903   H1168   1.111   .     S
C903   H1169   1.111   .     S
C904   N959    1.389   .     A
C904   C908    1.422   .     A
C905   N960    1.385   .     A
C906   O972    1.385   .     S
C907   O962    1.383   .     S
C908   O963    1.385   .     S
Cu909  Cu910   2.712   .     S
Cu909  O968    1.932   .     S
Cu909  O970    1.932   .     S
Cu909  O961    1.952   .     S
Cu909  O966    1.952   .     S
Cu909  N960    2.037   .     S
Cu910  O969    1.932   .     S
Cu910  N959    2.037   .     S
Cu910  O965    1.952   .     S
Cu910  O971    1.932   .     S
Cu910  O967    1.952   .     S
H932   C1111   1.110   .     S
H935   C1112   1.111   1_545 S
H941   C1115   1.111   1_545 S
H942   C1115   1.111   1_545 S
H943   C1116   1.110   .     S
H946   C1117   1.111   1_545 S
H947   C37     1.107   1_556 S
H952   C1119   1.111   1_545 S
H953   C1119   1.111   1_545 S
C973   C990    1.454   .     S
C973   O1075   1.302   .     A
C973   O1069   1.299   .     A
C974   C1013   1.418   .     A
C974   O1072   1.383   .     S
C974   C978    1.411   .     A
C975   O1076   1.298   .     A
C975   O1079   1.298   .     A
C975   C979    1.410   .     S
C976   C980    1.410   .     S
C976   O1078   1.298   .     A
C976   O1077   1.298   .     A
C977   C1014   1.412   .     A
C977   C1016   1.412   .     A
C977   C1194   1.528   1_545 S
C978   C1015   1.411   .     A
C978   C1193   1.528   .     S
C980   C115    1.191   1_556 S
C981   C986    1.396   .     A
C981   C992    1.402   .     A
C981   H1019   1.083   .     S
C982   H1030   1.084   .     S
C982   C987    1.395   .     A
C982   C993    1.401   .     A
C983   C993    1.402   .     A
C983   C988    1.396   .     A
C983   H1041   1.083   .     S
C984   O1074   1.299   .     A
C984   O1073   1.302   .     A
C984   C991    1.454   .     S
C985   C992    1.401   .     A
C985   C989    1.395   .     A
C985   H1052   1.084   .     S
C986   C990    1.412   .     A
C986   C999    1.510   .     S
C987   C991    1.413   .     A
C987   C1000   1.509   .     S
C988   C1001   1.510   .     S
C988   C991    1.412   .     A
C989   C1002   1.509   .     S
C989   C990    1.413   .     A
C993   C884    1.473   1_655 S
C994   H1063   1.110   .     S
C994   H1062   1.083   .     S
C994   H1064   1.111   .     S
C994   C995    1.510   .     S
C995   C1014   1.422   .     A
C995   N1067   1.389   .     A
C996   H1066   1.110   .     S
C996   H1020   1.111   .     S
C996   C1006   1.504   .     S
C996   H1065   1.106   .     S
C997   C1012   1.510   .     S
C997   H1022   1.110   .     S
C997   H1023   1.111   .     S
C997   H1021   1.083   .     S
C998   H1026   1.111   .     S
C998   H1024   1.106   .     S
C998   H1025   1.110   .     S
C998   C1013   1.504   .     S
C999   H1027   1.110   .     S
C999   H1029   1.111   .     S
C999   H1028   1.110   .     S
C1000  H1033   1.108   .     S
C1000  H1032   1.111   .     S
C1000  H1031   1.110   .     S
C1001  H1035   1.110   .     S
C1001  H1036   1.111   .     S
C1001  H1034   1.110   .     S
C1002  H1039   1.108   .     S
C1002  H1038   1.111   .     S
C1002  H1037   1.110   .     S
C1003  O1080   1.408   .     S
C1003  H1042   1.114   .     S
C1003  C1220   1.522   1_545 S
C1003  H1256   1.110   1_545 S
C1004  H1045   1.110   .     S
C1004  C1219   1.522   .     S
C1004  H1259   1.111   .     S
C1004  H180    1.108   1_556 S
C1005  O1070   1.411   .     S
C1005  H1047   1.115   .     S
C1005  C1007   1.520   .     S
C1005  H1046   1.114   .     S
C1006  N1068   1.385   .     A
C1006  C1015   1.418   .     A
C1007  H1048   1.111   .     S
C1007  H1265   1.111   .     S
C1007  H1266   1.111   .     S
C1008  H1053   1.114   .     S
C1008  O1071   1.408   .     S
C1008  C1225   1.522   1_545 S
C1008  H1267   1.110   1_545 S
C1009  H1056   1.110   .     S
C1009  C1224   1.522   .     S
C1009  H1270   1.111   .     S
C1010  H1058   1.115   .     S
C1010  C1011   1.520   .     S
C1010  H1057   1.114   .     S
C1010  O1072   1.411   .     S
C1011  H1059   1.111   .     S
C1011  H1276   1.111   .     S
C1011  H1277   1.111   .     S
C1012  N1067   1.389   .     A
C1012  C1016   1.422   .     A
C1013  N1068   1.385   .     A
C1014  O1080   1.385   .     S
C1015  O1070   1.383   .     S
C1016  O1071   1.385   .     S
Cu1017 Cu1018  2.712   .     S
Cu1017 O1076   1.932   .     S
Cu1017 O1078   1.932   .     S
Cu1017 O1069   1.952   .     S
Cu1017 O1074   1.952   .     S
Cu1017 N1068   2.037   .     S
Cu1018 O1077   1.932   .     S
Cu1018 N1067   2.037   .     S
Cu1018 O1073   1.952   .     S
Cu1018 O1079   1.932   .     S
Cu1018 O1075   1.952   .     S
H1040  C1219   1.110   .     S
H1043  C1220   1.111   1_545 S
H1049  C1223   1.111   1_545 S
H1050  C1223   1.111   1_545 S
H1051  C1224   1.110   .     S
H1054  C1225   1.111   1_545 S
H1055  C145    1.107   1_556 S
H1060  C1227   1.111   1_545 S
H1061  C1227   1.111   1_545 S
C1081  C1098   1.454   .     S
C1081  O1183   1.302   .     A
C1081  O1177   1.299   .     A
C1082  C1121   1.418   .     A
C1082  O1180   1.383   .     S
C1082  C1086   1.411   .     A
C1083  O1184   1.298   .     A
C1083  O1187   1.298   .     A
C1083  C1087   1.410   .     S
C1084  C1088   1.410   .     S
C1084  O1186   1.298   .     A
C1084  O1185   1.298   .     A
C1085  C1122   1.412   .     A
C1085  C1124   1.412   .     A
C1086  C1123   1.411   .     A
C1086  C869    1.528   1_565 S
C1088  C223    1.191   1_556 S
C1089  C1094   1.396   .     A
C1089  C1100   1.402   .     A
C1089  H1127   1.083   .     S
C1090  H1138   1.084   .     S
C1090  C1095   1.395   .     A
C1090  C1101   1.401   .     A
C1091  C1101   1.402   .     A
C1091  C1096   1.396   .     A
C1091  H1149   1.083   .     S
C1092  O1182   1.299   .     A
C1092  O1181   1.302   .     A
C1092  C1099   1.454   .     S
C1093  C1100   1.401   .     A
C1093  C1097   1.395   .     A
C1093  H1160   1.084   .     S
C1094  C1098   1.412   .     A
C1094  C1107   1.510   .     S
C1095  C1099   1.413   .     A
C1095  C1108   1.509   .     S
C1096  C1109   1.510   .     S
C1096  C1099   1.412   .     A
C1097  C1110   1.509   .     S
C1097  C1098   1.413   .     A
C1100  C1209   1.473   1_455 S
C1101  C1208   1.473   .     S
C1102  H1171   1.110   .     S
C1102  H1170   1.083   .     S
C1102  H1172   1.111   .     S
C1102  C1103   1.510   .     S
C1103  C1122   1.422   .     A
C1103  N1175   1.389   .     A
C1104  H1174   1.110   .     S
C1104  H1128   1.111   .     S
C1104  C1114   1.504   .     S
C1104  H1173   1.106   .     S
C1105  C1120   1.510   .     S
C1105  H1130   1.110   .     S
C1105  H1131   1.111   .     S
C1105  H1129   1.083   .     S
C1106  H1134   1.111   .     S
C1106  H1132   1.106   .     S
C1106  H1133   1.110   .     S
C1106  C1121   1.504   .     S
C1107  H1135   1.110   .     S
C1107  H1137   1.111   .     S
C1107  H1136   1.110   .     S
C1108  H1141   1.108   .     S
C1108  H1140   1.111   .     S
C1108  H1139   1.110   .     S
C1109  H1143   1.110   .     S
C1109  H1144   1.111   .     S
C1109  H1142   1.110   .     S
C1110  H1147   1.108   .     S
C1110  H1146   1.111   .     S
C1110  H1145   1.110   .     S
C1111  O1188   1.408   .     S
C1111  H1150   1.114   .     S
C1112  H1153   1.110   .     S
C1112  C895    1.522   1_565 S
C1112  H935    1.111   1_565 S
C1112  H288    1.108   1_556 S
C1113  O1178   1.411   .     S
C1113  H1155   1.115   .     S
C1113  C1115   1.520   .     S
C1113  H1154   1.114   .     S
C1114  N1176   1.385   .     A
C1114  C1123   1.418   .     A
C1115  H1156   1.111   .     S
C1115  H941    1.111   1_565 S
C1115  H942    1.111   1_565 S
C1116  H1161   1.114   .     S
C1116  O1179   1.408   .     S
C1117  H1164   1.110   .     S
C1117  C900    1.522   1_565 S
C1117  H946    1.111   1_565 S
C1118  H1166   1.115   .     S
C1118  C1119   1.520   .     S
C1118  H1165   1.114   .     S
C1118  O1180   1.411   .     S
C1119  H1167   1.111   .     S
C1119  H952    1.111   1_565 S
C1119  H953    1.111   1_565 S
C1120  N1175   1.389   .     A
C1120  C1124   1.422   .     A
C1121  N1176   1.385   .     A
C1122  O1188   1.385   .     S
C1123  O1178   1.383   .     S
C1124  O1179   1.385   .     S
Cu1125 Cu1126  2.712   .     S
Cu1125 O1184   1.932   .     S
Cu1125 O1186   1.932   .     S
Cu1125 O1177   1.952   .     S
Cu1125 O1182   1.952   .     S
Cu1125 N1176   2.037   .     S
Cu1126 O1185   1.932   .     S
Cu1126 N1175   2.037   .     S
Cu1126 O1181   1.952   .     S
Cu1126 O1187   1.932   .     S
Cu1126 O1183   1.952   .     S
H1148  C895    1.110   1_565 S
H1159  C900    1.110   1_565 S
H1163  C253    1.107   1_556 S
C1189  C1206   1.454   .     S
C1189  O1291   1.302   .     A
C1189  O1285   1.299   .     A
C1190  C1229   1.418   .     A
C1190  O1288   1.383   .     S
C1190  C1194   1.411   .     A
C1191  O1292   1.298   .     A
C1191  O1295   1.298   .     A
C1191  C1195   1.410   .     S
C1192  C1196   1.410   .     S
C1192  O1294   1.298   .     A
C1192  O1293   1.298   .     A
C1193  C1230   1.412   .     A
C1193  C1232   1.412   .     A
C1194  C1231   1.411   .     A
C1194  C977    1.528   1_565 S
C1196  C331    1.191   1_556 S
C1197  C1202   1.396   .     A
C1197  C1208   1.402   .     A
C1197  H1235   1.083   .     S
C1198  H1246   1.084   .     S
C1198  C1203   1.395   .     A
C1198  C1209   1.401   .     A
C1199  C1209   1.402   .     A
C1199  C1204   1.396   .     A
C1199  H1257   1.083   .     S
C1200  O1290   1.299   .     A
C1200  O1289   1.302   .     A
C1200  C1207   1.454   .     S
C1201  C1208   1.401   .     A
C1201  C1205   1.395   .     A
C1201  H1268   1.084   .     S
C1202  C1206   1.412   .     A
C1202  C1215   1.510   .     S
C1203  C1207   1.413   .     A
C1203  C1216   1.509   .     S
C1204  C1217   1.510   .     S
C1204  C1207   1.412   .     A
C1205  C1218   1.509   .     S
C1205  C1206   1.413   .     A
C1209  C1100   1.473   1_655 S
C1210  H1279   1.110   .     S
C1210  H1278   1.083   .     S
C1210  H1280   1.111   .     S
C1210  C1211   1.510   .     S
C1211  C1230   1.422   .     A
C1211  N1283   1.389   .     A
C1212  H1282   1.110   .     S
C1212  H1236   1.111   .     S
C1212  C1222   1.504   .     S
C1212  H1281   1.106   .     S
C1213  C1228   1.510   .     S
C1213  H1238   1.110   .     S
C1213  H1239   1.111   .     S
C1213  H1237   1.083   .     S
C1214  H1242   1.111   .     S
C1214  H1240   1.106   .     S
C1214  H1241   1.110   .     S
C1214  C1229   1.504   .     S
C1215  H1243   1.110   .     S
C1215  H1245   1.111   .     S
C1215  H1244   1.110   .     S
C1216  H1249   1.108   .     S
C1216  H1248   1.111   .     S
C1216  H1247   1.110   .     S
C1217  H1251   1.110   .     S
C1217  H1252   1.111   .     S
C1217  H1250   1.110   .     S
C1218  H1255   1.108   .     S
C1218  H1254   1.111   .     S
C1218  H1253   1.110   .     S
C1219  O1296   1.408   .     S
C1219  H1258   1.114   .     S
C1220  H1261   1.110   .     S
C1220  C1003   1.522   1_565 S
C1220  H1043   1.111   1_565 S
C1220  H396    1.108   1_556 S
C1221  O1286   1.411   .     S
C1221  H1263   1.115   .     S
C1221  C1223   1.520   .     S
C1221  H1262   1.114   .     S
C1222  N1284   1.385   .     A
C1222  C1231   1.418   .     A
C1223  H1264   1.111   .     S
C1223  H1049   1.111   1_565 S
C1223  H1050   1.111   1_565 S
C1224  H1269   1.114   .     S
C1224  O1287   1.408   .     S
C1225  H1272   1.110   .     S
C1225  C1008   1.522   1_565 S
C1225  H1054   1.111   1_565 S
C1226  H1274   1.115   .     S
C1226  C1227   1.520   .     S
C1226  H1273   1.114   .     S
C1226  O1288   1.411   .     S
C1227  H1275   1.111   .     S
C1227  H1060   1.111   1_565 S
C1227  H1061   1.111   1_565 S
C1228  N1283   1.389   .     A
C1228  C1232   1.422   .     A
C1229  N1284   1.385   .     A
C1230  O1296   1.385   .     S
C1231  O1286   1.383   .     S
C1232  O1287   1.385   .     S
Cu1233 Cu1234  2.712   .     S
Cu1233 O1292   1.932   .     S
Cu1233 O1294   1.932   .     S
Cu1233 O1285   1.952   .     S
Cu1233 O1290   1.952   .     S
Cu1233 N1284   2.037   .     S
Cu1234 O1293   1.932   .     S
Cu1234 N1283   2.037   .     S
Cu1234 O1289   1.952   .     S
Cu1234 O1295   1.932   .     S
Cu1234 O1291   1.952   .     S
H1256  C1003   1.110   1_565 S
H1267  C1008   1.110   1_565 S
H1271  C361    1.107   1_556 S
