data_str_m2_o1_o18_pcu_sym.13
_audit_creation_date              2020-01-03
_audit_creation_method            'Materials Studio'
_symmetry_space_group_name_H-M    'P1'
_symmetry_Int_Tables_number       1
_symmetry_cell_setting            triclinic
loop_
_symmetry_equiv_pos_as_xyz
  x,y,z
_cell_length_a                    28.5706
_cell_length_b                    32.4940
_cell_length_c                    30.9503
_cell_angle_alpha                 89.8038
_cell_angle_beta                  73.9899
_cell_angle_gamma                 90.0094
loop_
_atom_site_label
_atom_site_type_symbol
_atom_site_fract_x
_atom_site_fract_y
_atom_site_fract_z
_atom_site_U_iso_or_equiv
_atom_site_adp_type
_atom_site_occupancy
C1     C     0.33332   0.08736   0.25000   0.00000  Uiso   1.00
C2     C     0.04301   0.02131   0.24827   0.00000  Uiso   1.00
C3     C     0.00004   0.29060   0.24988   0.00000  Uiso   1.00
C4     C     0.00001   0.04275   0.24995   0.00000  Uiso   1.00
C5     C     0.18367   0.13931   0.27587   0.00000  Uiso   1.00
C6     C     0.14973   0.19376   0.22376   0.00000  Uiso   1.00
C7     C     0.13405   0.13945   0.27605   0.00000  Uiso   1.00
C8     C     0.19932   0.19379   0.22381   0.00000  Uiso   1.00
C9     C     0.30587   0.16430   0.33615   0.00000  Uiso   1.00
C10    C     0.02742   0.16670   0.16392   0.00000  Uiso   1.00
C11    C     0.29064   0.16090   0.38567   0.00000  Uiso   1.00
C12    C     0.00003   0.24597   0.24994   0.00000  Uiso   1.00
C13    C     0.04304   0.17037   0.11482   0.00000  Uiso   1.00
C14    C     0.31060   0.16503   0.45682   0.00000  Uiso   1.00
C15    C     0.03243   0.20278   0.04764   0.00000  Uiso   1.00
C16    C     0.32516   0.16567   0.41000   0.00000  Uiso   1.00
C17    C     0.01480   0.19354   0.09314   0.00000  Uiso   1.00
C18    C     0.24130   0.15381   0.40927   0.00000  Uiso   1.00
C19    C     0.08911   0.15542   0.09034   0.00000  Uiso   1.00
C20    C     0.22596   0.16457   0.45528   0.00000  Uiso   1.00
C21    C     0.11066   0.17238   0.04709   0.00000  Uiso   1.00
C22    C     0.26102   0.16538   0.47978   0.00000  Uiso   1.00
C23    C     0.19643   0.16847   0.04921   0.00000  Uiso   1.00
C24    C     0.08010   0.19216   0.02428   0.00000  Uiso   1.00
C25    C     0.17697   0.17357   0.47791   0.00000  Uiso   1.00
C26    C     0.16111   0.16987   0.02519   0.00000  Uiso   1.00
C27    C     0.10912   0.11639   0.10686   0.00000  Uiso   1.00
C28    C     0.11820   0.08187   0.07201   0.00000  Uiso   1.00
C29    C     0.20946   0.12630   0.38874   0.00000  Uiso   1.00
C30    C     0.18472   0.09115   0.41988   0.00000  Uiso   1.00
C31    C     0.14502   0.19044   0.45513   0.00000  Uiso   1.00
C32    C     0.24588   0.16731   0.02669   0.00000  Uiso   1.00
C33    C     0.09779   0.20137   0.47853   0.00000  Uiso   1.00
C34    C     0.29036   0.02128   0.25157   0.00000  Uiso   1.00
C35    C     0.04303   0.31207   0.24824   0.00000  Uiso   1.00
C36    C     0.29038   0.31204   0.25151   0.00000  Uiso   1.00
Cu37   Cu    0.04689   0.16667   0.25000   0.00000  Uiso   1.00
Cu38   Cu    0.28645   0.16666   0.25000   0.00000  Uiso   1.00
H39    H     0.27219   0.16788   0.04602   0.00000  Uiso   1.00
H40    H     0.07666   0.29607   0.24689   0.00000  Uiso   1.00
H41    H     0.25677   0.29601   0.25281   0.00000  Uiso   1.00
H42    H     0.07663   0.03734   0.24694   0.00000  Uiso   1.00
H43    H     0.19614   0.11713   0.29629   0.00000  Uiso   1.00
H44    H     0.13737   0.21546   0.20271   0.00000  Uiso   1.00
H45    H     0.10911   0.11765   0.29695   0.00000  Uiso   1.00
H46    H     0.22430   0.21549   0.20281   0.00000  Uiso   1.00
H47    H     0.12682   0.05293   0.08740   0.00000  Uiso   1.00
H48    H     0.14944   0.08916   0.04266   0.00000  Uiso   1.00
H49    H     0.08520   0.07667   0.06039   0.00000  Uiso   1.00
H50    H     0.07487   0.21648   0.46064   0.00000  Uiso   1.00
H51    H     0.14235   0.12225   0.11752   0.00000  Uiso   1.00
H52    H     0.08239   0.10361   0.13706   0.00000  Uiso   1.00
H53    H     0.21154   0.07496   0.43392   0.00000  Uiso   1.00
H54    H     0.15422   0.10253   0.44776   0.00000  Uiso   1.00
H55    H     0.16937   0.06866   0.40051   0.00000  Uiso   1.00
H56    H     0.18198   0.14440   0.37770   0.00000  Uiso   1.00
H57    H     0.23236   0.11045   0.35859   0.00000  Uiso   1.00
H58    H     0.31253   0.20479   0.11149   0.00000  Uiso   1.00
H59    H     0.03020   0.16900   0.39290   0.00000  Uiso   1.00
H60    H     0.00460   0.16607   0.47494   0.00000  Uiso   1.00
H61    H     0.00950   0.21971   0.03117   0.00000  Uiso   1.00
H62    H     0.18647   0.17234   0.08522   0.00000  Uiso   1.00
H63    H     0.15758   0.19872   0.41998   0.00000  Uiso   1.00
H64    H     0.25672   0.03728   0.25295   0.00000  Uiso   1.00
N65    N     0.11736   0.16668   0.24999   0.00000  Uiso   1.00
N66    N     0.21597   0.16666   0.25001   0.00000  Uiso   1.00
O67    O     0.03958   0.10655   0.25000   0.00000  Uiso   1.00
O68    O     0.29375   0.22678   0.25000   0.00000  Uiso   1.00
O69    O     0.29372   0.10654   0.25001   0.00000  Uiso   1.00
O70    O     0.03961   0.22679   0.25000   0.00000  Uiso   1.00
O71    O     0.01852   0.16668   0.31492   0.00000  Uiso   1.00
O72    O     0.31481   0.16666   0.18509   0.00000  Uiso   1.00
O73    O     0.27267   0.16667   0.31492   0.00000  Uiso   1.00
O74    O     0.06067   0.16667   0.18508   0.00000  Uiso   1.00
C75    C     0.66665   0.08736   0.25000   0.00000  Uiso   1.00
C76    C     0.37634   0.02131   0.24827   0.00000  Uiso   1.00
C77    C     0.33337   0.29060   0.24988   0.00000  Uiso   1.00
C78    C     0.33334   0.04275   0.24995   0.00000  Uiso   1.00
C79    C     0.51701   0.13931   0.27587   0.00000  Uiso   1.00
C80    C     0.48307   0.19376   0.22376   0.00000  Uiso   1.00
C81    C     0.46738   0.13945   0.27605   0.00000  Uiso   1.00
C82    C     0.53265   0.19379   0.22381   0.00000  Uiso   1.00
C83    C     0.63920   0.16430   0.33615   0.00000  Uiso   1.00
C84    C     0.36076   0.16670   0.16392   0.00000  Uiso   1.00
C85    C     0.62397   0.16090   0.38567   0.00000  Uiso   1.00
C86    C     0.33336   0.24597   0.24994   0.00000  Uiso   1.00
C87    C     0.37637   0.17037   0.11482   0.00000  Uiso   1.00
C88    C     0.64393   0.16503   0.45682   0.00000  Uiso   1.00
C89    C     0.36576   0.20278   0.04764   0.00000  Uiso   1.00
C90    C     0.65850   0.16567   0.41000   0.00000  Uiso   1.00
C91    C     0.34813   0.19354   0.09314   0.00000  Uiso   1.00
C92    C     0.57463   0.15381   0.40927   0.00000  Uiso   1.00
C93    C     0.42245   0.15542   0.09034   0.00000  Uiso   1.00
C94    C     0.55930   0.16457   0.45528   0.00000  Uiso   1.00
C95    C     0.44400   0.17238   0.04709   0.00000  Uiso   1.00
C96    C     0.59435   0.16538   0.47978   0.00000  Uiso   1.00
C97    C     0.52976   0.16847   0.04921   0.00000  Uiso   1.00
C98    C     0.41343   0.19216   0.02428   0.00000  Uiso   1.00
C99    C     0.51031   0.17357   0.47791   0.00000  Uiso   1.00
C100   C     0.49444   0.16987   0.02519   0.00000  Uiso   1.00
C101   C     0.44245   0.11639   0.10686   0.00000  Uiso   1.00
C102   C     0.45153   0.08187   0.07201   0.00000  Uiso   1.00
C103   C     0.54280   0.12630   0.38874   0.00000  Uiso   1.00
C104   C     0.51806   0.09115   0.41988   0.00000  Uiso   1.00
C105   C     0.47835   0.19044   0.45513   0.00000  Uiso   1.00
C106   C     0.57921   0.16731   0.02669   0.00000  Uiso   1.00
C107   C     0.43112   0.20137   0.47853   0.00000  Uiso   1.00
C108   C     0.62369   0.02128   0.25157   0.00000  Uiso   1.00
C109   C     0.37636   0.31207   0.24824   0.00000  Uiso   1.00
C110   C     0.62372   0.31204   0.25151   0.00000  Uiso   1.00
Cu111  Cu    0.38022   0.16667   0.25000   0.00000  Uiso   1.00
Cu112  Cu    0.61978   0.16666   0.25000   0.00000  Uiso   1.00
H113   H     0.60552   0.16788   0.04602   0.00000  Uiso   1.00
H114   H     0.40999   0.29607   0.24689   0.00000  Uiso   1.00
H115   H     0.59010   0.29601   0.25281   0.00000  Uiso   1.00
H116   H     0.40997   0.03734   0.24694   0.00000  Uiso   1.00
H117   H     0.52947   0.11713   0.29629   0.00000  Uiso   1.00
H118   H     0.47070   0.21546   0.20271   0.00000  Uiso   1.00
H119   H     0.44244   0.11765   0.29695   0.00000  Uiso   1.00
H120   H     0.55763   0.21549   0.20281   0.00000  Uiso   1.00
H121   H     0.46016   0.05293   0.08740   0.00000  Uiso   1.00
H122   H     0.48277   0.08916   0.04266   0.00000  Uiso   1.00
H123   H     0.41853   0.07667   0.06039   0.00000  Uiso   1.00
H124   H     0.40820   0.21648   0.46064   0.00000  Uiso   1.00
H125   H     0.47568   0.12225   0.11752   0.00000  Uiso   1.00
H126   H     0.41573   0.10361   0.13706   0.00000  Uiso   1.00
H127   H     0.54487   0.07496   0.43392   0.00000  Uiso   1.00
H128   H     0.48755   0.10253   0.44776   0.00000  Uiso   1.00
H129   H     0.50270   0.06866   0.40051   0.00000  Uiso   1.00
H130   H     0.51531   0.14440   0.37770   0.00000  Uiso   1.00
H131   H     0.56570   0.11045   0.35859   0.00000  Uiso   1.00
H132   H     0.64587   0.20479   0.11149   0.00000  Uiso   1.00
H133   H     0.36354   0.16900   0.39290   0.00000  Uiso   1.00
H134   H     0.33794   0.16607   0.47494   0.00000  Uiso   1.00
H135   H     0.34283   0.21971   0.03117   0.00000  Uiso   1.00
H136   H     0.51981   0.17234   0.08522   0.00000  Uiso   1.00
H137   H     0.49092   0.19872   0.41998   0.00000  Uiso   1.00
H138   H     0.59005   0.03728   0.25295   0.00000  Uiso   1.00
N139   N     0.45069   0.16668   0.24999   0.00000  Uiso   1.00
N140   N     0.54931   0.16666   0.25001   0.00000  Uiso   1.00
O141   O     0.37291   0.10655   0.25000   0.00000  Uiso   1.00
O142   O     0.62709   0.22678   0.25000   0.00000  Uiso   1.00
O143   O     0.62706   0.10654   0.25001   0.00000  Uiso   1.00
O144   O     0.37294   0.22679   0.25000   0.00000  Uiso   1.00
O145   O     0.35186   0.16668   0.31492   0.00000  Uiso   1.00
O146   O     0.64814   0.16666   0.18509   0.00000  Uiso   1.00
O147   O     0.60600   0.16667   0.31492   0.00000  Uiso   1.00
O148   O     0.39400   0.16667   0.18508   0.00000  Uiso   1.00
C149   C     0.99999   0.08736   0.25000   0.00000  Uiso   1.00
C150   C     0.70968   0.02131   0.24827   0.00000  Uiso   1.00
C151   C     0.66671   0.29060   0.24988   0.00000  Uiso   1.00
C152   C     0.66667   0.04275   0.24995   0.00000  Uiso   1.00
C153   C     0.85034   0.13931   0.27587   0.00000  Uiso   1.00
C154   C     0.81640   0.19376   0.22376   0.00000  Uiso   1.00
C155   C     0.80071   0.13945   0.27605   0.00000  Uiso   1.00
C156   C     0.86599   0.19379   0.22381   0.00000  Uiso   1.00
C157   C     0.97254   0.16430   0.33615   0.00000  Uiso   1.00
C158   C     0.69409   0.16670   0.16392   0.00000  Uiso   1.00
C159   C     0.95731   0.16090   0.38567   0.00000  Uiso   1.00
C160   C     0.66670   0.24597   0.24994   0.00000  Uiso   1.00
C161   C     0.70970   0.17037   0.11482   0.00000  Uiso   1.00
C162   C     0.97727   0.16503   0.45682   0.00000  Uiso   1.00
C163   C     0.69909   0.20278   0.04764   0.00000  Uiso   1.00
C164   C     0.99183   0.16567   0.41000   0.00000  Uiso   1.00
C165   C     0.68147   0.19354   0.09314   0.00000  Uiso   1.00
C166   C     0.90796   0.15381   0.40927   0.00000  Uiso   1.00
C167   C     0.75578   0.15542   0.09034   0.00000  Uiso   1.00
C168   C     0.89263   0.16457   0.45528   0.00000  Uiso   1.00
C169   C     0.77733   0.17238   0.04709   0.00000  Uiso   1.00
C170   C     0.92769   0.16538   0.47978   0.00000  Uiso   1.00
C171   C     0.86309   0.16847   0.04921   0.00000  Uiso   1.00
C172   C     0.74676   0.19216   0.02428   0.00000  Uiso   1.00
C173   C     0.84364   0.17357   0.47791   0.00000  Uiso   1.00
C174   C     0.82778   0.16987   0.02519   0.00000  Uiso   1.00
C175   C     0.77578   0.11639   0.10686   0.00000  Uiso   1.00
C176   C     0.78487   0.08187   0.07201   0.00000  Uiso   1.00
C177   C     0.87613   0.12630   0.38874   0.00000  Uiso   1.00
C178   C     0.85139   0.09115   0.41988   0.00000  Uiso   1.00
C179   C     0.81168   0.19044   0.45513   0.00000  Uiso   1.00
C180   C     0.91254   0.16731   0.02669   0.00000  Uiso   1.00
C181   C     0.76445   0.20137   0.47853   0.00000  Uiso   1.00
C182   C     0.95702   0.02128   0.25157   0.00000  Uiso   1.00
C183   C     0.70969   0.31207   0.24824   0.00000  Uiso   1.00
C184   C     0.95705   0.31204   0.25151   0.00000  Uiso   1.00
Cu185  Cu    0.71355   0.16667   0.25000   0.00000  Uiso   1.00
Cu186  Cu    0.95311   0.16666   0.25000   0.00000  Uiso   1.00
H187   H     0.93886   0.16788   0.04602   0.00000  Uiso   1.00
H188   H     0.74333   0.29607   0.24689   0.00000  Uiso   1.00
H189   H     0.92343   0.29601   0.25281   0.00000  Uiso   1.00
H190   H     0.74330   0.03734   0.24694   0.00000  Uiso   1.00
H191   H     0.86280   0.11713   0.29629   0.00000  Uiso   1.00
H192   H     0.80404   0.21546   0.20271   0.00000  Uiso   1.00
H193   H     0.77578   0.11765   0.29695   0.00000  Uiso   1.00
H194   H     0.89096   0.21549   0.20281   0.00000  Uiso   1.00
H195   H     0.79349   0.05293   0.08740   0.00000  Uiso   1.00
H196   H     0.81610   0.08916   0.04266   0.00000  Uiso   1.00
H197   H     0.75187   0.07667   0.06039   0.00000  Uiso   1.00
H198   H     0.74154   0.21648   0.46064   0.00000  Uiso   1.00
H199   H     0.80901   0.12225   0.11752   0.00000  Uiso   1.00
H200   H     0.74906   0.10361   0.13706   0.00000  Uiso   1.00
H201   H     0.87820   0.07496   0.43392   0.00000  Uiso   1.00
H202   H     0.82089   0.10253   0.44776   0.00000  Uiso   1.00
H203   H     0.83603   0.06866   0.40051   0.00000  Uiso   1.00
H204   H     0.84864   0.14440   0.37770   0.00000  Uiso   1.00
H205   H     0.89903   0.11045   0.35859   0.00000  Uiso   1.00
H206   H     0.97920   0.20479   0.11149   0.00000  Uiso   1.00
H207   H     0.69687   0.16900   0.39290   0.00000  Uiso   1.00
H208   H     0.67127   0.16607   0.47494   0.00000  Uiso   1.00
H209   H     0.67616   0.21971   0.03117   0.00000  Uiso   1.00
H210   H     0.85314   0.17234   0.08522   0.00000  Uiso   1.00
H211   H     0.82425   0.19872   0.41998   0.00000  Uiso   1.00
H212   H     0.92338   0.03728   0.25295   0.00000  Uiso   1.00
N213   N     0.78403   0.16668   0.24999   0.00000  Uiso   1.00
N214   N     0.88264   0.16666   0.25001   0.00000  Uiso   1.00
O215   O     0.70625   0.10655   0.25000   0.00000  Uiso   1.00
O216   O     0.96042   0.22678   0.25000   0.00000  Uiso   1.00
O217   O     0.96039   0.10654   0.25001   0.00000  Uiso   1.00
O218   O     0.70628   0.22679   0.25000   0.00000  Uiso   1.00
O219   O     0.68519   0.16668   0.31492   0.00000  Uiso   1.00
O220   O     0.98148   0.16666   0.18509   0.00000  Uiso   1.00
O221   O     0.93933   0.16667   0.31492   0.00000  Uiso   1.00
O222   O     0.72733   0.16667   0.18508   0.00000  Uiso   1.00
C223   C     0.33332   0.42070   0.25000   0.00000  Uiso   1.00
C224   C     0.04301   0.35465   0.24827   0.00000  Uiso   1.00
C225   C     0.00004   0.62393   0.24988   0.00000  Uiso   1.00
C226   C     0.00001   0.37608   0.24995   0.00000  Uiso   1.00
C227   C     0.18367   0.47264   0.27587   0.00000  Uiso   1.00
C228   C     0.14973   0.52710   0.22376   0.00000  Uiso   1.00
C229   C     0.13405   0.47279   0.27605   0.00000  Uiso   1.00
C230   C     0.19932   0.52712   0.22381   0.00000  Uiso   1.00
C231   C     0.30587   0.49764   0.33615   0.00000  Uiso   1.00
C232   C     0.02742   0.50003   0.16392   0.00000  Uiso   1.00
C233   C     0.29064   0.49423   0.38567   0.00000  Uiso   1.00
C234   C     0.00003   0.57931   0.24994   0.00000  Uiso   1.00
C235   C     0.04304   0.50370   0.11482   0.00000  Uiso   1.00
C236   C     0.31060   0.49836   0.45682   0.00000  Uiso   1.00
C237   C     0.03243   0.53612   0.04764   0.00000  Uiso   1.00
C238   C     0.32516   0.49901   0.41000   0.00000  Uiso   1.00
C239   C     0.01480   0.52687   0.09314   0.00000  Uiso   1.00
C240   C     0.24130   0.48715   0.40927   0.00000  Uiso   1.00
C241   C     0.08911   0.48876   0.09034   0.00000  Uiso   1.00
C242   C     0.22596   0.49791   0.45528   0.00000  Uiso   1.00
C243   C     0.11066   0.50572   0.04709   0.00000  Uiso   1.00
C244   C     0.26102   0.49872   0.47978   0.00000  Uiso   1.00
C245   C     0.19643   0.50181   0.04921   0.00000  Uiso   1.00
C246   C     0.08010   0.52549   0.02428   0.00000  Uiso   1.00
C247   C     0.17697   0.50691   0.47791   0.00000  Uiso   1.00
C248   C     0.16111   0.50320   0.02519   0.00000  Uiso   1.00
C249   C     0.10912   0.44972   0.10686   0.00000  Uiso   1.00
C250   C     0.11820   0.41521   0.07201   0.00000  Uiso   1.00
C251   C     0.20946   0.45963   0.38874   0.00000  Uiso   1.00
C252   C     0.18472   0.42449   0.41988   0.00000  Uiso   1.00
C253   C     0.14502   0.52378   0.45513   0.00000  Uiso   1.00
C254   C     0.24588   0.50065   0.02669   0.00000  Uiso   1.00
C255   C     0.09779   0.53470   0.47853   0.00000  Uiso   1.00
C256   C     0.29036   0.35461   0.25157   0.00000  Uiso   1.00
C257   C     0.04303   0.64540   0.24824   0.00000  Uiso   1.00
C258   C     0.29038   0.64537   0.25151   0.00000  Uiso   1.00
Cu259  Cu    0.04689   0.50001   0.25000   0.00000  Uiso   1.00
Cu260  Cu    0.28645   0.49999   0.25000   0.00000  Uiso   1.00
H261   H     0.27219   0.50122   0.04602   0.00000  Uiso   1.00
H262   H     0.07666   0.62940   0.24689   0.00000  Uiso   1.00
H263   H     0.25677   0.62935   0.25281   0.00000  Uiso   1.00
H264   H     0.07663   0.37068   0.24694   0.00000  Uiso   1.00
H265   H     0.19614   0.45047   0.29629   0.00000  Uiso   1.00
H266   H     0.13737   0.54879   0.20271   0.00000  Uiso   1.00
H267   H     0.10911   0.45099   0.29695   0.00000  Uiso   1.00
H268   H     0.22430   0.54883   0.20281   0.00000  Uiso   1.00
H269   H     0.12682   0.38627   0.08740   0.00000  Uiso   1.00
H270   H     0.14944   0.42250   0.04266   0.00000  Uiso   1.00
H271   H     0.08520   0.41001   0.06039   0.00000  Uiso   1.00
H272   H     0.07487   0.54981   0.46064   0.00000  Uiso   1.00
H273   H     0.14235   0.45559   0.11752   0.00000  Uiso   1.00
H274   H     0.08239   0.43694   0.13706   0.00000  Uiso   1.00
H275   H     0.21154   0.40829   0.43392   0.00000  Uiso   1.00
H276   H     0.15422   0.43586   0.44776   0.00000  Uiso   1.00
H277   H     0.16937   0.40200   0.40051   0.00000  Uiso   1.00
H278   H     0.18198   0.47773   0.37770   0.00000  Uiso   1.00
H279   H     0.23236   0.44379   0.35859   0.00000  Uiso   1.00
H280   H     0.31253   0.53812   0.11149   0.00000  Uiso   1.00
H281   H     0.03020   0.50233   0.39290   0.00000  Uiso   1.00
H282   H     0.00460   0.49940   0.47494   0.00000  Uiso   1.00
H283   H     0.00950   0.55305   0.03117   0.00000  Uiso   1.00
H284   H     0.18647   0.50567   0.08522   0.00000  Uiso   1.00
H285   H     0.15758   0.53205   0.41998   0.00000  Uiso   1.00
H286   H     0.25672   0.37062   0.25295   0.00000  Uiso   1.00
N287   N     0.11736   0.50001   0.24999   0.00000  Uiso   1.00
N288   N     0.21597   0.49999   0.25001   0.00000  Uiso   1.00
O289   O     0.03958   0.43989   0.25000   0.00000  Uiso   1.00
O290   O     0.29375   0.56011   0.25000   0.00000  Uiso   1.00
O291   O     0.29372   0.43988   0.25001   0.00000  Uiso   1.00
O292   O     0.03961   0.56012   0.25000   0.00000  Uiso   1.00
O293   O     0.01852   0.50001   0.31492   0.00000  Uiso   1.00
O294   O     0.31481   0.49999   0.18509   0.00000  Uiso   1.00
O295   O     0.27267   0.50000   0.31492   0.00000  Uiso   1.00
O296   O     0.06067   0.50000   0.18508   0.00000  Uiso   1.00
C297   C     0.66665   0.42070   0.25000   0.00000  Uiso   1.00
C298   C     0.37634   0.35465   0.24827   0.00000  Uiso   1.00
C299   C     0.33337   0.62393   0.24988   0.00000  Uiso   1.00
C300   C     0.33334   0.37608   0.24995   0.00000  Uiso   1.00
C301   C     0.51701   0.47264   0.27587   0.00000  Uiso   1.00
C302   C     0.48307   0.52710   0.22376   0.00000  Uiso   1.00
C303   C     0.46738   0.47279   0.27605   0.00000  Uiso   1.00
C304   C     0.53265   0.52712   0.22381   0.00000  Uiso   1.00
C305   C     0.63920   0.49764   0.33615   0.00000  Uiso   1.00
C306   C     0.36076   0.50003   0.16392   0.00000  Uiso   1.00
C307   C     0.62397   0.49423   0.38567   0.00000  Uiso   1.00
C308   C     0.33336   0.57931   0.24994   0.00000  Uiso   1.00
C309   C     0.37637   0.50370   0.11482   0.00000  Uiso   1.00
C310   C     0.64393   0.49836   0.45682   0.00000  Uiso   1.00
C311   C     0.36576   0.53612   0.04764   0.00000  Uiso   1.00
C312   C     0.65850   0.49901   0.41000   0.00000  Uiso   1.00
C313   C     0.34813   0.52687   0.09314   0.00000  Uiso   1.00
C314   C     0.57463   0.48715   0.40927   0.00000  Uiso   1.00
C315   C     0.42245   0.48876   0.09034   0.00000  Uiso   1.00
C316   C     0.55930   0.49791   0.45528   0.00000  Uiso   1.00
C317   C     0.44400   0.50572   0.04709   0.00000  Uiso   1.00
C318   C     0.59435   0.49872   0.47978   0.00000  Uiso   1.00
C319   C     0.52976   0.50181   0.04921   0.00000  Uiso   1.00
C320   C     0.41343   0.52549   0.02428   0.00000  Uiso   1.00
C321   C     0.51031   0.50691   0.47791   0.00000  Uiso   1.00
C322   C     0.49444   0.50320   0.02519   0.00000  Uiso   1.00
C323   C     0.44245   0.44972   0.10686   0.00000  Uiso   1.00
C324   C     0.45153   0.41521   0.07201   0.00000  Uiso   1.00
C325   C     0.54280   0.45963   0.38874   0.00000  Uiso   1.00
C326   C     0.51806   0.42449   0.41988   0.00000  Uiso   1.00
C327   C     0.47835   0.52378   0.45513   0.00000  Uiso   1.00
C328   C     0.57921   0.50065   0.02669   0.00000  Uiso   1.00
C329   C     0.43112   0.53470   0.47853   0.00000  Uiso   1.00
C330   C     0.62369   0.35461   0.25157   0.00000  Uiso   1.00
C331   C     0.37636   0.64540   0.24824   0.00000  Uiso   1.00
C332   C     0.62372   0.64537   0.25151   0.00000  Uiso   1.00
Cu333  Cu    0.38022   0.50001   0.25000   0.00000  Uiso   1.00
Cu334  Cu    0.61978   0.49999   0.25000   0.00000  Uiso   1.00
H335   H     0.60552   0.50122   0.04602   0.00000  Uiso   1.00
H336   H     0.40999   0.62940   0.24689   0.00000  Uiso   1.00
H337   H     0.59010   0.62935   0.25281   0.00000  Uiso   1.00
H338   H     0.40997   0.37068   0.24694   0.00000  Uiso   1.00
H339   H     0.52947   0.45047   0.29629   0.00000  Uiso   1.00
H340   H     0.47070   0.54879   0.20271   0.00000  Uiso   1.00
H341   H     0.44244   0.45099   0.29695   0.00000  Uiso   1.00
H342   H     0.55763   0.54883   0.20281   0.00000  Uiso   1.00
H343   H     0.46016   0.38627   0.08740   0.00000  Uiso   1.00
H344   H     0.48277   0.42250   0.04266   0.00000  Uiso   1.00
H345   H     0.41853   0.41001   0.06039   0.00000  Uiso   1.00
H346   H     0.40820   0.54981   0.46064   0.00000  Uiso   1.00
H347   H     0.47568   0.45559   0.11752   0.00000  Uiso   1.00
H348   H     0.41573   0.43694   0.13706   0.00000  Uiso   1.00
H349   H     0.54487   0.40829   0.43392   0.00000  Uiso   1.00
H350   H     0.48755   0.43586   0.44776   0.00000  Uiso   1.00
H351   H     0.50270   0.40200   0.40051   0.00000  Uiso   1.00
H352   H     0.51531   0.47773   0.37770   0.00000  Uiso   1.00
H353   H     0.56570   0.44379   0.35859   0.00000  Uiso   1.00
H354   H     0.64587   0.53812   0.11149   0.00000  Uiso   1.00
H355   H     0.36354   0.50233   0.39290   0.00000  Uiso   1.00
H356   H     0.33794   0.49940   0.47494   0.00000  Uiso   1.00
H357   H     0.34283   0.55305   0.03117   0.00000  Uiso   1.00
H358   H     0.51981   0.50567   0.08522   0.00000  Uiso   1.00
H359   H     0.49092   0.53205   0.41998   0.00000  Uiso   1.00
H360   H     0.59005   0.37062   0.25295   0.00000  Uiso   1.00
N361   N     0.45069   0.50001   0.24999   0.00000  Uiso   1.00
N362   N     0.54931   0.49999   0.25001   0.00000  Uiso   1.00
O363   O     0.37291   0.43989   0.25000   0.00000  Uiso   1.00
O364   O     0.62709   0.56011   0.25000   0.00000  Uiso   1.00
O365   O     0.62706   0.43988   0.25001   0.00000  Uiso   1.00
O366   O     0.37294   0.56012   0.25000   0.00000  Uiso   1.00
O367   O     0.35186   0.50001   0.31492   0.00000  Uiso   1.00
O368   O     0.64814   0.49999   0.18509   0.00000  Uiso   1.00
O369   O     0.60600   0.50000   0.31492   0.00000  Uiso   1.00
O370   O     0.39400   0.50000   0.18508   0.00000  Uiso   1.00
C371   C     0.99999   0.42070   0.25000   0.00000  Uiso   1.00
C372   C     0.70968   0.35465   0.24827   0.00000  Uiso   1.00
C373   C     0.66671   0.62393   0.24988   0.00000  Uiso   1.00
C374   C     0.66667   0.37608   0.24995   0.00000  Uiso   1.00
C375   C     0.85034   0.47264   0.27587   0.00000  Uiso   1.00
C376   C     0.81640   0.52710   0.22376   0.00000  Uiso   1.00
C377   C     0.80071   0.47279   0.27605   0.00000  Uiso   1.00
C378   C     0.86599   0.52712   0.22381   0.00000  Uiso   1.00
C379   C     0.97254   0.49764   0.33615   0.00000  Uiso   1.00
C380   C     0.69409   0.50003   0.16392   0.00000  Uiso   1.00
C381   C     0.95731   0.49423   0.38567   0.00000  Uiso   1.00
C382   C     0.66670   0.57931   0.24994   0.00000  Uiso   1.00
C383   C     0.70970   0.50370   0.11482   0.00000  Uiso   1.00
C384   C     0.97727   0.49836   0.45682   0.00000  Uiso   1.00
C385   C     0.69909   0.53612   0.04764   0.00000  Uiso   1.00
C386   C     0.99183   0.49901   0.41000   0.00000  Uiso   1.00
C387   C     0.68147   0.52687   0.09314   0.00000  Uiso   1.00
C388   C     0.90796   0.48715   0.40927   0.00000  Uiso   1.00
C389   C     0.75578   0.48876   0.09034   0.00000  Uiso   1.00
C390   C     0.89263   0.49791   0.45528   0.00000  Uiso   1.00
C391   C     0.77733   0.50572   0.04709   0.00000  Uiso   1.00
C392   C     0.92769   0.49872   0.47978   0.00000  Uiso   1.00
C393   C     0.86309   0.50181   0.04921   0.00000  Uiso   1.00
C394   C     0.74676   0.52549   0.02428   0.00000  Uiso   1.00
C395   C     0.84364   0.50691   0.47791   0.00000  Uiso   1.00
C396   C     0.82778   0.50320   0.02519   0.00000  Uiso   1.00
C397   C     0.77578   0.44972   0.10686   0.00000  Uiso   1.00
C398   C     0.78487   0.41521   0.07201   0.00000  Uiso   1.00
C399   C     0.87613   0.45963   0.38874   0.00000  Uiso   1.00
C400   C     0.85139   0.42449   0.41988   0.00000  Uiso   1.00
C401   C     0.81168   0.52378   0.45513   0.00000  Uiso   1.00
C402   C     0.91254   0.50065   0.02669   0.00000  Uiso   1.00
C403   C     0.76445   0.53470   0.47853   0.00000  Uiso   1.00
C404   C     0.95702   0.35461   0.25157   0.00000  Uiso   1.00
C405   C     0.70969   0.64540   0.24824   0.00000  Uiso   1.00
C406   C     0.95705   0.64537   0.25151   0.00000  Uiso   1.00
Cu407  Cu    0.71355   0.50001   0.25000   0.00000  Uiso   1.00
Cu408  Cu    0.95311   0.49999   0.25000   0.00000  Uiso   1.00
H409   H     0.93886   0.50122   0.04602   0.00000  Uiso   1.00
H410   H     0.74333   0.62940   0.24689   0.00000  Uiso   1.00
H411   H     0.92343   0.62935   0.25281   0.00000  Uiso   1.00
H412   H     0.74330   0.37068   0.24694   0.00000  Uiso   1.00
H413   H     0.86280   0.45047   0.29629   0.00000  Uiso   1.00
H414   H     0.80404   0.54879   0.20271   0.00000  Uiso   1.00
H415   H     0.77578   0.45099   0.29695   0.00000  Uiso   1.00
H416   H     0.89096   0.54883   0.20281   0.00000  Uiso   1.00
H417   H     0.79349   0.38627   0.08740   0.00000  Uiso   1.00
H418   H     0.81610   0.42250   0.04266   0.00000  Uiso   1.00
H419   H     0.75187   0.41001   0.06039   0.00000  Uiso   1.00
H420   H     0.74154   0.54981   0.46064   0.00000  Uiso   1.00
H421   H     0.80901   0.45559   0.11752   0.00000  Uiso   1.00
H422   H     0.74906   0.43694   0.13706   0.00000  Uiso   1.00
H423   H     0.87820   0.40829   0.43392   0.00000  Uiso   1.00
H424   H     0.82089   0.43586   0.44776   0.00000  Uiso   1.00
H425   H     0.83603   0.40200   0.40051   0.00000  Uiso   1.00
H426   H     0.84864   0.47773   0.37770   0.00000  Uiso   1.00
H427   H     0.89903   0.44379   0.35859   0.00000  Uiso   1.00
H428   H     0.97920   0.53812   0.11149   0.00000  Uiso   1.00
H429   H     0.69687   0.50233   0.39290   0.00000  Uiso   1.00
H430   H     0.67127   0.49940   0.47494   0.00000  Uiso   1.00
H431   H     0.67616   0.55305   0.03117   0.00000  Uiso   1.00
H432   H     0.85314   0.50567   0.08522   0.00000  Uiso   1.00
H433   H     0.82425   0.53205   0.41998   0.00000  Uiso   1.00
H434   H     0.92338   0.37062   0.25295   0.00000  Uiso   1.00
N435   N     0.78403   0.50001   0.24999   0.00000  Uiso   1.00
N436   N     0.88264   0.49999   0.25001   0.00000  Uiso   1.00
O437   O     0.70625   0.43989   0.25000   0.00000  Uiso   1.00
O438   O     0.96042   0.56011   0.25000   0.00000  Uiso   1.00
O439   O     0.96039   0.43988   0.25001   0.00000  Uiso   1.00
O440   O     0.70628   0.56012   0.25000   0.00000  Uiso   1.00
O441   O     0.68519   0.50001   0.31492   0.00000  Uiso   1.00
O442   O     0.98148   0.49999   0.18509   0.00000  Uiso   1.00
O443   O     0.93933   0.50000   0.31492   0.00000  Uiso   1.00
O444   O     0.72733   0.50000   0.18508   0.00000  Uiso   1.00
C445   C     0.33332   0.75403   0.25000   0.00000  Uiso   1.00
C446   C     0.04301   0.68798   0.24827   0.00000  Uiso   1.00
C447   C     0.00004   0.95726   0.24988   0.00000  Uiso   1.00
C448   C     0.00001   0.70942   0.24995   0.00000  Uiso   1.00
C449   C     0.18367   0.80598   0.27587   0.00000  Uiso   1.00
C450   C     0.14973   0.86043   0.22376   0.00000  Uiso   1.00
C451   C     0.13405   0.80612   0.27605   0.00000  Uiso   1.00
C452   C     0.19932   0.86045   0.22381   0.00000  Uiso   1.00
C453   C     0.30587   0.83097   0.33615   0.00000  Uiso   1.00
C454   C     0.02742   0.83337   0.16392   0.00000  Uiso   1.00
C455   C     0.29064   0.82756   0.38567   0.00000  Uiso   1.00
C456   C     0.00003   0.91264   0.24994   0.00000  Uiso   1.00
C457   C     0.04304   0.83703   0.11482   0.00000  Uiso   1.00
C458   C     0.31060   0.83169   0.45682   0.00000  Uiso   1.00
C459   C     0.03243   0.86945   0.04764   0.00000  Uiso   1.00
C460   C     0.32516   0.83234   0.41000   0.00000  Uiso   1.00
C461   C     0.01480   0.86020   0.09314   0.00000  Uiso   1.00
C462   C     0.24130   0.82048   0.40927   0.00000  Uiso   1.00
C463   C     0.08911   0.82209   0.09034   0.00000  Uiso   1.00
C464   C     0.22596   0.83124   0.45528   0.00000  Uiso   1.00
C465   C     0.11066   0.83905   0.04709   0.00000  Uiso   1.00
C466   C     0.26102   0.83205   0.47978   0.00000  Uiso   1.00
C467   C     0.19643   0.83514   0.04921   0.00000  Uiso   1.00
C468   C     0.08010   0.85883   0.02428   0.00000  Uiso   1.00
C469   C     0.17697   0.84024   0.47791   0.00000  Uiso   1.00
C470   C     0.16111   0.83654   0.02519   0.00000  Uiso   1.00
C471   C     0.10912   0.78305   0.10686   0.00000  Uiso   1.00
C472   C     0.11820   0.74854   0.07201   0.00000  Uiso   1.00
C473   C     0.20946   0.79296   0.38874   0.00000  Uiso   1.00
C474   C     0.18472   0.75782   0.41988   0.00000  Uiso   1.00
C475   C     0.14502   0.85711   0.45513   0.00000  Uiso   1.00
C476   C     0.24588   0.83398   0.02669   0.00000  Uiso   1.00
C477   C     0.09779   0.86803   0.47853   0.00000  Uiso   1.00
C478   C     0.29036   0.68795   0.25157   0.00000  Uiso   1.00
C479   C     0.04303   0.97874   0.24824   0.00000  Uiso   1.00
C480   C     0.29038   0.97870   0.25151   0.00000  Uiso   1.00
Cu481  Cu    0.04689   0.83334   0.25000   0.00000  Uiso   1.00
Cu482  Cu    0.28645   0.83333   0.25000   0.00000  Uiso   1.00
H483   H     0.27219   0.83455   0.04602   0.00000  Uiso   1.00
H484   H     0.07666   0.96274   0.24689   0.00000  Uiso   1.00
H485   H     0.25677   0.96268   0.25281   0.00000  Uiso   1.00
H486   H     0.07663   0.70401   0.24694   0.00000  Uiso   1.00
H487   H     0.19614   0.78380   0.29629   0.00000  Uiso   1.00
H488   H     0.13737   0.88213   0.20271   0.00000  Uiso   1.00
H489   H     0.10911   0.78432   0.29695   0.00000  Uiso   1.00
H490   H     0.22430   0.88216   0.20281   0.00000  Uiso   1.00
H491   H     0.12682   0.71960   0.08740   0.00000  Uiso   1.00
H492   H     0.14944   0.75583   0.04266   0.00000  Uiso   1.00
H493   H     0.08520   0.74334   0.06039   0.00000  Uiso   1.00
H494   H     0.07487   0.88315   0.46064   0.00000  Uiso   1.00
H495   H     0.14235   0.78892   0.11752   0.00000  Uiso   1.00
H496   H     0.08239   0.77027   0.13706   0.00000  Uiso   1.00
H497   H     0.21154   0.74162   0.43392   0.00000  Uiso   1.00
H498   H     0.15422   0.76919   0.44776   0.00000  Uiso   1.00
H499   H     0.16937   0.73533   0.40051   0.00000  Uiso   1.00
H500   H     0.18198   0.81106   0.37770   0.00000  Uiso   1.00
H501   H     0.23236   0.77712   0.35859   0.00000  Uiso   1.00
H502   H     0.31253   0.87146   0.11149   0.00000  Uiso   1.00
H503   H     0.03020   0.83567   0.39290   0.00000  Uiso   1.00
H504   H     0.00460   0.83273   0.47494   0.00000  Uiso   1.00
H505   H     0.00950   0.88638   0.03117   0.00000  Uiso   1.00
H506   H     0.18647   0.83900   0.08522   0.00000  Uiso   1.00
H507   H     0.15758   0.86538   0.41998   0.00000  Uiso   1.00
H508   H     0.25672   0.70395   0.25295   0.00000  Uiso   1.00
N509   N     0.11736   0.83334   0.24999   0.00000  Uiso   1.00
N510   N     0.21597   0.83332   0.25001   0.00000  Uiso   1.00
O511   O     0.03958   0.77322   0.25000   0.00000  Uiso   1.00
O512   O     0.29375   0.89345   0.25000   0.00000  Uiso   1.00
O513   O     0.29372   0.77321   0.25001   0.00000  Uiso   1.00
O514   O     0.03961   0.89346   0.25000   0.00000  Uiso   1.00
O515   O     0.01852   0.83334   0.31492   0.00000  Uiso   1.00
O516   O     0.31481   0.83332   0.18509   0.00000  Uiso   1.00
O517   O     0.27267   0.83333   0.31492   0.00000  Uiso   1.00
O518   O     0.06067   0.83333   0.18508   0.00000  Uiso   1.00
C519   C     0.66665   0.75403   0.25000   0.00000  Uiso   1.00
C520   C     0.37634   0.68798   0.24827   0.00000  Uiso   1.00
C521   C     0.33337   0.95726   0.24988   0.00000  Uiso   1.00
C522   C     0.33334   0.70942   0.24995   0.00000  Uiso   1.00
C523   C     0.51701   0.80598   0.27587   0.00000  Uiso   1.00
C524   C     0.48307   0.86043   0.22376   0.00000  Uiso   1.00
C525   C     0.46738   0.80612   0.27605   0.00000  Uiso   1.00
C526   C     0.53265   0.86045   0.22381   0.00000  Uiso   1.00
C527   C     0.63920   0.83097   0.33615   0.00000  Uiso   1.00
C528   C     0.36076   0.83337   0.16392   0.00000  Uiso   1.00
C529   C     0.62397   0.82756   0.38567   0.00000  Uiso   1.00
C530   C     0.33336   0.91264   0.24994   0.00000  Uiso   1.00
C531   C     0.37637   0.83703   0.11482   0.00000  Uiso   1.00
C532   C     0.64393   0.83169   0.45682   0.00000  Uiso   1.00
C533   C     0.36576   0.86945   0.04764   0.00000  Uiso   1.00
C534   C     0.65850   0.83234   0.41000   0.00000  Uiso   1.00
C535   C     0.34813   0.86020   0.09314   0.00000  Uiso   1.00
C536   C     0.57463   0.82048   0.40927   0.00000  Uiso   1.00
C537   C     0.42245   0.82209   0.09034   0.00000  Uiso   1.00
C538   C     0.55930   0.83124   0.45528   0.00000  Uiso   1.00
C539   C     0.44400   0.83905   0.04709   0.00000  Uiso   1.00
C540   C     0.59435   0.83205   0.47978   0.00000  Uiso   1.00
C541   C     0.52976   0.83514   0.04921   0.00000  Uiso   1.00
C542   C     0.41343   0.85883   0.02428   0.00000  Uiso   1.00
C543   C     0.51031   0.84024   0.47791   0.00000  Uiso   1.00
C544   C     0.49444   0.83654   0.02519   0.00000  Uiso   1.00
C545   C     0.44245   0.78305   0.10686   0.00000  Uiso   1.00
C546   C     0.45153   0.74854   0.07201   0.00000  Uiso   1.00
C547   C     0.54280   0.79296   0.38874   0.00000  Uiso   1.00
C548   C     0.51806   0.75782   0.41988   0.00000  Uiso   1.00
C549   C     0.47835   0.85711   0.45513   0.00000  Uiso   1.00
C550   C     0.57921   0.83398   0.02669   0.00000  Uiso   1.00
C551   C     0.43112   0.86803   0.47853   0.00000  Uiso   1.00
C552   C     0.62369   0.68795   0.25157   0.00000  Uiso   1.00
C553   C     0.37636   0.97874   0.24824   0.00000  Uiso   1.00
C554   C     0.62372   0.97870   0.25151   0.00000  Uiso   1.00
Cu555  Cu    0.38022   0.83334   0.25000   0.00000  Uiso   1.00
Cu556  Cu    0.61978   0.83333   0.25000   0.00000  Uiso   1.00
H557   H     0.60552   0.83455   0.04602   0.00000  Uiso   1.00
H558   H     0.40999   0.96274   0.24689   0.00000  Uiso   1.00
H559   H     0.59010   0.96268   0.25281   0.00000  Uiso   1.00
H560   H     0.40997   0.70401   0.24694   0.00000  Uiso   1.00
H561   H     0.52947   0.78380   0.29629   0.00000  Uiso   1.00
H562   H     0.47070   0.88213   0.20271   0.00000  Uiso   1.00
H563   H     0.44244   0.78432   0.29695   0.00000  Uiso   1.00
H564   H     0.55763   0.88216   0.20281   0.00000  Uiso   1.00
H565   H     0.46016   0.71960   0.08740   0.00000  Uiso   1.00
H566   H     0.48277   0.75583   0.04266   0.00000  Uiso   1.00
H567   H     0.41853   0.74334   0.06039   0.00000  Uiso   1.00
H568   H     0.40820   0.88315   0.46064   0.00000  Uiso   1.00
H569   H     0.47568   0.78892   0.11752   0.00000  Uiso   1.00
H570   H     0.41573   0.77027   0.13706   0.00000  Uiso   1.00
H571   H     0.54487   0.74162   0.43392   0.00000  Uiso   1.00
H572   H     0.48755   0.76919   0.44776   0.00000  Uiso   1.00
H573   H     0.50270   0.73533   0.40051   0.00000  Uiso   1.00
H574   H     0.51531   0.81106   0.37770   0.00000  Uiso   1.00
H575   H     0.56570   0.77712   0.35859   0.00000  Uiso   1.00
H576   H     0.64587   0.87146   0.11149   0.00000  Uiso   1.00
H577   H     0.36354   0.83567   0.39290   0.00000  Uiso   1.00
H578   H     0.33794   0.83273   0.47494   0.00000  Uiso   1.00
H579   H     0.34283   0.88638   0.03117   0.00000  Uiso   1.00
H580   H     0.51981   0.83900   0.08522   0.00000  Uiso   1.00
H581   H     0.49092   0.86538   0.41998   0.00000  Uiso   1.00
H582   H     0.59005   0.70395   0.25295   0.00000  Uiso   1.00
N583   N     0.45069   0.83334   0.24999   0.00000  Uiso   1.00
N584   N     0.54931   0.83332   0.25001   0.00000  Uiso   1.00
O585   O     0.37291   0.77322   0.25000   0.00000  Uiso   1.00
O586   O     0.62709   0.89345   0.25000   0.00000  Uiso   1.00
O587   O     0.62706   0.77321   0.25001   0.00000  Uiso   1.00
O588   O     0.37294   0.89346   0.25000   0.00000  Uiso   1.00
O589   O     0.35186   0.83334   0.31492   0.00000  Uiso   1.00
O590   O     0.64814   0.83332   0.18509   0.00000  Uiso   1.00
O591   O     0.60600   0.83333   0.31492   0.00000  Uiso   1.00
O592   O     0.39400   0.83333   0.18508   0.00000  Uiso   1.00
C593   C     0.99999   0.75403   0.25000   0.00000  Uiso   1.00
C594   C     0.70968   0.68798   0.24827   0.00000  Uiso   1.00
C595   C     0.66671   0.95726   0.24988   0.00000  Uiso   1.00
C596   C     0.66667   0.70942   0.24995   0.00000  Uiso   1.00
C597   C     0.85034   0.80598   0.27587   0.00000  Uiso   1.00
C598   C     0.81640   0.86043   0.22376   0.00000  Uiso   1.00
C599   C     0.80071   0.80612   0.27605   0.00000  Uiso   1.00
C600   C     0.86599   0.86045   0.22381   0.00000  Uiso   1.00
C601   C     0.97254   0.83097   0.33615   0.00000  Uiso   1.00
C602   C     0.69409   0.83337   0.16392   0.00000  Uiso   1.00
C603   C     0.95731   0.82756   0.38567   0.00000  Uiso   1.00
C604   C     0.66670   0.91264   0.24994   0.00000  Uiso   1.00
C605   C     0.70970   0.83703   0.11482   0.00000  Uiso   1.00
C606   C     0.97727   0.83169   0.45682   0.00000  Uiso   1.00
C607   C     0.69909   0.86945   0.04764   0.00000  Uiso   1.00
C608   C     0.99183   0.83234   0.41000   0.00000  Uiso   1.00
C609   C     0.68147   0.86020   0.09314   0.00000  Uiso   1.00
C610   C     0.90796   0.82048   0.40927   0.00000  Uiso   1.00
C611   C     0.75578   0.82209   0.09034   0.00000  Uiso   1.00
C612   C     0.89263   0.83124   0.45528   0.00000  Uiso   1.00
C613   C     0.77733   0.83905   0.04709   0.00000  Uiso   1.00
C614   C     0.92769   0.83205   0.47978   0.00000  Uiso   1.00
C615   C     0.86309   0.83514   0.04921   0.00000  Uiso   1.00
C616   C     0.74676   0.85883   0.02428   0.00000  Uiso   1.00
C617   C     0.84364   0.84024   0.47791   0.00000  Uiso   1.00
C618   C     0.82778   0.83654   0.02519   0.00000  Uiso   1.00
C619   C     0.77578   0.78305   0.10686   0.00000  Uiso   1.00
C620   C     0.78487   0.74854   0.07201   0.00000  Uiso   1.00
C621   C     0.87613   0.79296   0.38874   0.00000  Uiso   1.00
C622   C     0.85139   0.75782   0.41988   0.00000  Uiso   1.00
C623   C     0.81168   0.85711   0.45513   0.00000  Uiso   1.00
C624   C     0.91254   0.83398   0.02669   0.00000  Uiso   1.00
C625   C     0.76445   0.86803   0.47853   0.00000  Uiso   1.00
C626   C     0.95702   0.68795   0.25157   0.00000  Uiso   1.00
C627   C     0.70969   0.97874   0.24824   0.00000  Uiso   1.00
C628   C     0.95705   0.97870   0.25151   0.00000  Uiso   1.00
Cu629  Cu    0.71355   0.83334   0.25000   0.00000  Uiso   1.00
Cu630  Cu    0.95311   0.83333   0.25000   0.00000  Uiso   1.00
H631   H     0.93886   0.83455   0.04602   0.00000  Uiso   1.00
H632   H     0.74333   0.96274   0.24689   0.00000  Uiso   1.00
H633   H     0.92343   0.96268   0.25281   0.00000  Uiso   1.00
H634   H     0.74330   0.70401   0.24694   0.00000  Uiso   1.00
H635   H     0.86280   0.78380   0.29629   0.00000  Uiso   1.00
H636   H     0.80404   0.88213   0.20271   0.00000  Uiso   1.00
H637   H     0.77578   0.78432   0.29695   0.00000  Uiso   1.00
H638   H     0.89096   0.88216   0.20281   0.00000  Uiso   1.00
H639   H     0.79349   0.71960   0.08740   0.00000  Uiso   1.00
H640   H     0.81610   0.75583   0.04266   0.00000  Uiso   1.00
H641   H     0.75187   0.74334   0.06039   0.00000  Uiso   1.00
H642   H     0.74154   0.88315   0.46064   0.00000  Uiso   1.00
H643   H     0.80901   0.78892   0.11752   0.00000  Uiso   1.00
H644   H     0.74906   0.77027   0.13706   0.00000  Uiso   1.00
H645   H     0.87820   0.74162   0.43392   0.00000  Uiso   1.00
H646   H     0.82089   0.76919   0.44776   0.00000  Uiso   1.00
H647   H     0.83603   0.73533   0.40051   0.00000  Uiso   1.00
H648   H     0.84864   0.81106   0.37770   0.00000  Uiso   1.00
H649   H     0.89903   0.77712   0.35859   0.00000  Uiso   1.00
H650   H     0.97920   0.87146   0.11149   0.00000  Uiso   1.00
H651   H     0.69687   0.83567   0.39290   0.00000  Uiso   1.00
H652   H     0.67127   0.83273   0.47494   0.00000  Uiso   1.00
H653   H     0.67616   0.88638   0.03117   0.00000  Uiso   1.00
H654   H     0.85314   0.83900   0.08522   0.00000  Uiso   1.00
H655   H     0.82425   0.86538   0.41998   0.00000  Uiso   1.00
H656   H     0.92338   0.70395   0.25295   0.00000  Uiso   1.00
N657   N     0.78403   0.83334   0.24999   0.00000  Uiso   1.00
N658   N     0.88264   0.83332   0.25001   0.00000  Uiso   1.00
O659   O     0.70625   0.77322   0.25000   0.00000  Uiso   1.00
O660   O     0.96042   0.89345   0.25000   0.00000  Uiso   1.00
O661   O     0.96039   0.77321   0.25001   0.00000  Uiso   1.00
O662   O     0.70628   0.89346   0.25000   0.00000  Uiso   1.00
O663   O     0.68519   0.83334   0.31492   0.00000  Uiso   1.00
O664   O     0.98148   0.83332   0.18509   0.00000  Uiso   1.00
O665   O     0.93933   0.83333   0.31492   0.00000  Uiso   1.00
O666   O     0.72733   0.83333   0.18508   0.00000  Uiso   1.00
C667   C     0.33332   0.08736   0.75000   0.00000  Uiso   1.00
C668   C     0.04301   0.02131   0.74827   0.00000  Uiso   1.00
C669   C     0.00004   0.29060   0.74988   0.00000  Uiso   1.00
C670   C     0.00001   0.04275   0.74995   0.00000  Uiso   1.00
C671   C     0.18367   0.13931   0.77587   0.00000  Uiso   1.00
C672   C     0.14973   0.19376   0.72376   0.00000  Uiso   1.00
C673   C     0.13405   0.13945   0.77605   0.00000  Uiso   1.00
C674   C     0.19932   0.19379   0.72381   0.00000  Uiso   1.00
C675   C     0.30587   0.16430   0.83615   0.00000  Uiso   1.00
C676   C     0.02742   0.16670   0.66392   0.00000  Uiso   1.00
C677   C     0.29064   0.16090   0.88567   0.00000  Uiso   1.00
C678   C     0.00003   0.24597   0.74994   0.00000  Uiso   1.00
C679   C     0.04304   0.17037   0.61482   0.00000  Uiso   1.00
C680   C     0.31060   0.16503   0.95682   0.00000  Uiso   1.00
C681   C     0.03243   0.20278   0.54764   0.00000  Uiso   1.00
C682   C     0.32516   0.16567   0.91000   0.00000  Uiso   1.00
C683   C     0.01480   0.19354   0.59314   0.00000  Uiso   1.00
C684   C     0.24130   0.15381   0.90927   0.00000  Uiso   1.00
C685   C     0.08911   0.15542   0.59034   0.00000  Uiso   1.00
C686   C     0.22596   0.16457   0.95528   0.00000  Uiso   1.00
C687   C     0.11066   0.17238   0.54709   0.00000  Uiso   1.00
C688   C     0.26102   0.16538   0.97978   0.00000  Uiso   1.00
C689   C     0.19643   0.16847   0.54921   0.00000  Uiso   1.00
C690   C     0.08010   0.19216   0.52428   0.00000  Uiso   1.00
C691   C     0.17697   0.17357   0.97791   0.00000  Uiso   1.00
C692   C     0.16111   0.16987   0.52519   0.00000  Uiso   1.00
C693   C     0.10912   0.11639   0.60686   0.00000  Uiso   1.00
C694   C     0.11820   0.08187   0.57201   0.00000  Uiso   1.00
C695   C     0.20946   0.12630   0.88874   0.00000  Uiso   1.00
C696   C     0.18472   0.09115   0.91988   0.00000  Uiso   1.00
C697   C     0.14502   0.19044   0.95513   0.00000  Uiso   1.00
C698   C     0.24588   0.16731   0.52669   0.00000  Uiso   1.00
C699   C     0.09779   0.20137   0.97853   0.00000  Uiso   1.00
C700   C     0.29036   0.02128   0.75157   0.00000  Uiso   1.00
C701   C     0.04303   0.31207   0.74824   0.00000  Uiso   1.00
C702   C     0.29038   0.31204   0.75151   0.00000  Uiso   1.00
Cu703  Cu    0.04689   0.16667   0.75000   0.00000  Uiso   1.00
Cu704  Cu    0.28645   0.16666   0.75000   0.00000  Uiso   1.00
H705   H     0.27219   0.16788   0.54602   0.00000  Uiso   1.00
H706   H     0.07666   0.29607   0.74689   0.00000  Uiso   1.00
H707   H     0.25677   0.29601   0.75281   0.00000  Uiso   1.00
H708   H     0.07663   0.03734   0.74694   0.00000  Uiso   1.00
H709   H     0.19614   0.11713   0.79629   0.00000  Uiso   1.00
H710   H     0.13737   0.21546   0.70271   0.00000  Uiso   1.00
H711   H     0.10911   0.11765   0.79695   0.00000  Uiso   1.00
H712   H     0.22430   0.21549   0.70281   0.00000  Uiso   1.00
H713   H     0.12682   0.05293   0.58740   0.00000  Uiso   1.00
H714   H     0.14944   0.08916   0.54266   0.00000  Uiso   1.00
H715   H     0.08520   0.07667   0.56039   0.00000  Uiso   1.00
H716   H     0.07487   0.21648   0.96064   0.00000  Uiso   1.00
H717   H     0.14235   0.12225   0.61752   0.00000  Uiso   1.00
H718   H     0.08239   0.10361   0.63706   0.00000  Uiso   1.00
H719   H     0.21154   0.07496   0.93392   0.00000  Uiso   1.00
H720   H     0.15422   0.10253   0.94776   0.00000  Uiso   1.00
H721   H     0.16937   0.06866   0.90051   0.00000  Uiso   1.00
H722   H     0.18198   0.14440   0.87770   0.00000  Uiso   1.00
H723   H     0.23236   0.11045   0.85859   0.00000  Uiso   1.00
H724   H     0.31253   0.20479   0.61149   0.00000  Uiso   1.00
H725   H     0.03020   0.16900   0.89290   0.00000  Uiso   1.00
H726   H     0.00460   0.16607   0.97494   0.00000  Uiso   1.00
H727   H     0.00950   0.21971   0.53117   0.00000  Uiso   1.00
H728   H     0.18647   0.17234   0.58522   0.00000  Uiso   1.00
H729   H     0.15758   0.19872   0.91998   0.00000  Uiso   1.00
H730   H     0.25672   0.03728   0.75295   0.00000  Uiso   1.00
N731   N     0.11736   0.16668   0.74999   0.00000  Uiso   1.00
N732   N     0.21597   0.16666   0.75001   0.00000  Uiso   1.00
O733   O     0.03958   0.10655   0.75000   0.00000  Uiso   1.00
O734   O     0.29375   0.22678   0.75000   0.00000  Uiso   1.00
O735   O     0.29372   0.10654   0.75001   0.00000  Uiso   1.00
O736   O     0.03961   0.22679   0.75000   0.00000  Uiso   1.00
O737   O     0.01852   0.16668   0.81492   0.00000  Uiso   1.00
O738   O     0.31481   0.16666   0.68509   0.00000  Uiso   1.00
O739   O     0.27267   0.16667   0.81492   0.00000  Uiso   1.00
O740   O     0.06067   0.16667   0.68508   0.00000  Uiso   1.00
C741   C     0.66665   0.08736   0.75000   0.00000  Uiso   1.00
C742   C     0.37634   0.02131   0.74827   0.00000  Uiso   1.00
C743   C     0.33337   0.29060   0.74988   0.00000  Uiso   1.00
C744   C     0.33334   0.04275   0.74995   0.00000  Uiso   1.00
C745   C     0.51701   0.13931   0.77587   0.00000  Uiso   1.00
C746   C     0.48307   0.19376   0.72376   0.00000  Uiso   1.00
C747   C     0.46738   0.13945   0.77605   0.00000  Uiso   1.00
C748   C     0.53265   0.19379   0.72381   0.00000  Uiso   1.00
C749   C     0.63920   0.16430   0.83615   0.00000  Uiso   1.00
C750   C     0.36076   0.16670   0.66392   0.00000  Uiso   1.00
C751   C     0.62397   0.16090   0.88567   0.00000  Uiso   1.00
C752   C     0.33336   0.24597   0.74994   0.00000  Uiso   1.00
C753   C     0.37637   0.17037   0.61482   0.00000  Uiso   1.00
C754   C     0.64393   0.16503   0.95682   0.00000  Uiso   1.00
C755   C     0.36576   0.20278   0.54764   0.00000  Uiso   1.00
C756   C     0.65850   0.16567   0.91000   0.00000  Uiso   1.00
C757   C     0.34813   0.19354   0.59314   0.00000  Uiso   1.00
C758   C     0.57463   0.15381   0.90927   0.00000  Uiso   1.00
C759   C     0.42245   0.15542   0.59034   0.00000  Uiso   1.00
C760   C     0.55930   0.16457   0.95528   0.00000  Uiso   1.00
C761   C     0.44400   0.17238   0.54709   0.00000  Uiso   1.00
C762   C     0.59435   0.16538   0.97978   0.00000  Uiso   1.00
C763   C     0.52976   0.16847   0.54921   0.00000  Uiso   1.00
C764   C     0.41343   0.19216   0.52428   0.00000  Uiso   1.00
C765   C     0.51031   0.17357   0.97791   0.00000  Uiso   1.00
C766   C     0.49444   0.16987   0.52519   0.00000  Uiso   1.00
C767   C     0.44245   0.11639   0.60686   0.00000  Uiso   1.00
C768   C     0.45153   0.08187   0.57201   0.00000  Uiso   1.00
C769   C     0.54280   0.12630   0.88874   0.00000  Uiso   1.00
C770   C     0.51806   0.09115   0.91988   0.00000  Uiso   1.00
C771   C     0.47835   0.19044   0.95513   0.00000  Uiso   1.00
C772   C     0.57921   0.16731   0.52669   0.00000  Uiso   1.00
C773   C     0.43112   0.20137   0.97853   0.00000  Uiso   1.00
C774   C     0.62369   0.02128   0.75157   0.00000  Uiso   1.00
C775   C     0.37636   0.31207   0.74824   0.00000  Uiso   1.00
C776   C     0.62372   0.31204   0.75151   0.00000  Uiso   1.00
Cu777  Cu    0.38022   0.16667   0.75000   0.00000  Uiso   1.00
Cu778  Cu    0.61978   0.16666   0.75000   0.00000  Uiso   1.00
H779   H     0.60552   0.16788   0.54602   0.00000  Uiso   1.00
H780   H     0.40999   0.29607   0.74689   0.00000  Uiso   1.00
H781   H     0.59010   0.29601   0.75281   0.00000  Uiso   1.00
H782   H     0.40997   0.03734   0.74694   0.00000  Uiso   1.00
H783   H     0.52947   0.11713   0.79629   0.00000  Uiso   1.00
H784   H     0.47070   0.21546   0.70271   0.00000  Uiso   1.00
H785   H     0.44244   0.11765   0.79695   0.00000  Uiso   1.00
H786   H     0.55763   0.21549   0.70281   0.00000  Uiso   1.00
H787   H     0.46016   0.05293   0.58740   0.00000  Uiso   1.00
H788   H     0.48277   0.08916   0.54266   0.00000  Uiso   1.00
H789   H     0.41853   0.07667   0.56039   0.00000  Uiso   1.00
H790   H     0.40820   0.21648   0.96064   0.00000  Uiso   1.00
H791   H     0.47568   0.12225   0.61752   0.00000  Uiso   1.00
H792   H     0.41573   0.10361   0.63706   0.00000  Uiso   1.00
H793   H     0.54487   0.07496   0.93392   0.00000  Uiso   1.00
H794   H     0.48755   0.10253   0.94776   0.00000  Uiso   1.00
H795   H     0.50270   0.06866   0.90051   0.00000  Uiso   1.00
H796   H     0.51531   0.14440   0.87770   0.00000  Uiso   1.00
H797   H     0.56570   0.11045   0.85859   0.00000  Uiso   1.00
H798   H     0.64587   0.20479   0.61149   0.00000  Uiso   1.00
H799   H     0.36354   0.16900   0.89290   0.00000  Uiso   1.00
H800   H     0.33794   0.16607   0.97494   0.00000  Uiso   1.00
H801   H     0.34283   0.21971   0.53117   0.00000  Uiso   1.00
H802   H     0.51981   0.17234   0.58522   0.00000  Uiso   1.00
H803   H     0.49092   0.19872   0.91998   0.00000  Uiso   1.00
H804   H     0.59005   0.03728   0.75295   0.00000  Uiso   1.00
N805   N     0.45069   0.16668   0.74999   0.00000  Uiso   1.00
N806   N     0.54931   0.16666   0.75001   0.00000  Uiso   1.00
O807   O     0.37291   0.10655   0.75000   0.00000  Uiso   1.00
O808   O     0.62709   0.22678   0.75000   0.00000  Uiso   1.00
O809   O     0.62706   0.10654   0.75001   0.00000  Uiso   1.00
O810   O     0.37294   0.22679   0.75000   0.00000  Uiso   1.00
O811   O     0.35186   0.16668   0.81492   0.00000  Uiso   1.00
O812   O     0.64814   0.16666   0.68509   0.00000  Uiso   1.00
O813   O     0.60600   0.16667   0.81492   0.00000  Uiso   1.00
O814   O     0.39400   0.16667   0.68508   0.00000  Uiso   1.00
C815   C     0.99999   0.08736   0.75000   0.00000  Uiso   1.00
C816   C     0.70968   0.02131   0.74827   0.00000  Uiso   1.00
C817   C     0.66671   0.29060   0.74988   0.00000  Uiso   1.00
C818   C     0.66667   0.04275   0.74995   0.00000  Uiso   1.00
C819   C     0.85034   0.13931   0.77587   0.00000  Uiso   1.00
C820   C     0.81640   0.19376   0.72376   0.00000  Uiso   1.00
C821   C     0.80071   0.13945   0.77605   0.00000  Uiso   1.00
C822   C     0.86599   0.19379   0.72381   0.00000  Uiso   1.00
C823   C     0.97254   0.16430   0.83615   0.00000  Uiso   1.00
C824   C     0.69409   0.16670   0.66392   0.00000  Uiso   1.00
C825   C     0.95731   0.16090   0.88567   0.00000  Uiso   1.00
C826   C     0.66670   0.24597   0.74994   0.00000  Uiso   1.00
C827   C     0.70970   0.17037   0.61482   0.00000  Uiso   1.00
C828   C     0.97727   0.16503   0.95682   0.00000  Uiso   1.00
C829   C     0.69909   0.20278   0.54764   0.00000  Uiso   1.00
C830   C     0.99183   0.16567   0.91000   0.00000  Uiso   1.00
C831   C     0.68147   0.19354   0.59314   0.00000  Uiso   1.00
C832   C     0.90796   0.15381   0.90927   0.00000  Uiso   1.00
C833   C     0.75578   0.15542   0.59034   0.00000  Uiso   1.00
C834   C     0.89263   0.16457   0.95528   0.00000  Uiso   1.00
C835   C     0.77733   0.17238   0.54709   0.00000  Uiso   1.00
C836   C     0.92769   0.16538   0.97978   0.00000  Uiso   1.00
C837   C     0.86309   0.16847   0.54921   0.00000  Uiso   1.00
C838   C     0.74676   0.19216   0.52428   0.00000  Uiso   1.00
C839   C     0.84364   0.17357   0.97791   0.00000  Uiso   1.00
C840   C     0.82778   0.16987   0.52519   0.00000  Uiso   1.00
C841   C     0.77578   0.11639   0.60686   0.00000  Uiso   1.00
C842   C     0.78487   0.08187   0.57201   0.00000  Uiso   1.00
C843   C     0.87613   0.12630   0.88874   0.00000  Uiso   1.00
C844   C     0.85139   0.09115   0.91988   0.00000  Uiso   1.00
C845   C     0.81168   0.19044   0.95513   0.00000  Uiso   1.00
C846   C     0.91254   0.16731   0.52669   0.00000  Uiso   1.00
C847   C     0.76445   0.20137   0.97853   0.00000  Uiso   1.00
C848   C     0.95702   0.02128   0.75157   0.00000  Uiso   1.00
C849   C     0.70969   0.31207   0.74824   0.00000  Uiso   1.00
C850   C     0.95705   0.31204   0.75151   0.00000  Uiso   1.00
Cu851  Cu    0.71355   0.16667   0.75000   0.00000  Uiso   1.00
Cu852  Cu    0.95311   0.16666   0.75000   0.00000  Uiso   1.00
H853   H     0.93886   0.16788   0.54602   0.00000  Uiso   1.00
H854   H     0.74333   0.29607   0.74689   0.00000  Uiso   1.00
H855   H     0.92343   0.29601   0.75281   0.00000  Uiso   1.00
H856   H     0.74330   0.03734   0.74694   0.00000  Uiso   1.00
H857   H     0.86280   0.11713   0.79629   0.00000  Uiso   1.00
H858   H     0.80404   0.21546   0.70271   0.00000  Uiso   1.00
H859   H     0.77578   0.11765   0.79695   0.00000  Uiso   1.00
H860   H     0.89096   0.21549   0.70281   0.00000  Uiso   1.00
H861   H     0.79349   0.05293   0.58740   0.00000  Uiso   1.00
H862   H     0.81610   0.08916   0.54266   0.00000  Uiso   1.00
H863   H     0.75187   0.07667   0.56039   0.00000  Uiso   1.00
H864   H     0.74154   0.21648   0.96064   0.00000  Uiso   1.00
H865   H     0.80901   0.12225   0.61752   0.00000  Uiso   1.00
H866   H     0.74906   0.10361   0.63706   0.00000  Uiso   1.00
H867   H     0.87820   0.07496   0.93392   0.00000  Uiso   1.00
H868   H     0.82089   0.10253   0.94776   0.00000  Uiso   1.00
H869   H     0.83603   0.06866   0.90051   0.00000  Uiso   1.00
H870   H     0.84864   0.14440   0.87770   0.00000  Uiso   1.00
H871   H     0.89903   0.11045   0.85859   0.00000  Uiso   1.00
H872   H     0.97920   0.20479   0.61149   0.00000  Uiso   1.00
H873   H     0.69687   0.16900   0.89290   0.00000  Uiso   1.00
H874   H     0.67127   0.16607   0.97494   0.00000  Uiso   1.00
H875   H     0.67616   0.21971   0.53117   0.00000  Uiso   1.00
H876   H     0.85314   0.17234   0.58522   0.00000  Uiso   1.00
H877   H     0.82425   0.19872   0.91998   0.00000  Uiso   1.00
H878   H     0.92338   0.03728   0.75295   0.00000  Uiso   1.00
N879   N     0.78403   0.16668   0.74999   0.00000  Uiso   1.00
N880   N     0.88264   0.16666   0.75001   0.00000  Uiso   1.00
O881   O     0.70625   0.10655   0.75000   0.00000  Uiso   1.00
O882   O     0.96042   0.22678   0.75000   0.00000  Uiso   1.00
O883   O     0.96039   0.10654   0.75001   0.00000  Uiso   1.00
O884   O     0.70628   0.22679   0.75000   0.00000  Uiso   1.00
O885   O     0.68519   0.16668   0.81492   0.00000  Uiso   1.00
O886   O     0.98148   0.16666   0.68509   0.00000  Uiso   1.00
O887   O     0.93933   0.16667   0.81492   0.00000  Uiso   1.00
O888   O     0.72733   0.16667   0.68508   0.00000  Uiso   1.00
C889   C     0.33332   0.42070   0.75000   0.00000  Uiso   1.00
C890   C     0.04301   0.35465   0.74827   0.00000  Uiso   1.00
C891   C     0.00004   0.62393   0.74988   0.00000  Uiso   1.00
C892   C     0.00001   0.37608   0.74995   0.00000  Uiso   1.00
C893   C     0.18367   0.47264   0.77587   0.00000  Uiso   1.00
C894   C     0.14973   0.52710   0.72376   0.00000  Uiso   1.00
C895   C     0.13405   0.47279   0.77605   0.00000  Uiso   1.00
C896   C     0.19932   0.52712   0.72381   0.00000  Uiso   1.00
C897   C     0.30587   0.49764   0.83615   0.00000  Uiso   1.00
C898   C     0.02742   0.50003   0.66392   0.00000  Uiso   1.00
C899   C     0.29064   0.49423   0.88567   0.00000  Uiso   1.00
C900   C     0.00003   0.57931   0.74994   0.00000  Uiso   1.00
C901   C     0.04304   0.50370   0.61482   0.00000  Uiso   1.00
C902   C     0.31060   0.49836   0.95682   0.00000  Uiso   1.00
C903   C     0.03243   0.53612   0.54764   0.00000  Uiso   1.00
C904   C     0.32516   0.49901   0.91000   0.00000  Uiso   1.00
C905   C     0.01480   0.52687   0.59314   0.00000  Uiso   1.00
C906   C     0.24130   0.48715   0.90927   0.00000  Uiso   1.00
C907   C     0.08911   0.48876   0.59034   0.00000  Uiso   1.00
C908   C     0.22596   0.49791   0.95528   0.00000  Uiso   1.00
C909   C     0.11066   0.50572   0.54709   0.00000  Uiso   1.00
C910   C     0.26102   0.49872   0.97978   0.00000  Uiso   1.00
C911   C     0.19643   0.50181   0.54921   0.00000  Uiso   1.00
C912   C     0.08010   0.52549   0.52428   0.00000  Uiso   1.00
C913   C     0.17697   0.50691   0.97791   0.00000  Uiso   1.00
C914   C     0.16111   0.50320   0.52519   0.00000  Uiso   1.00
C915   C     0.10912   0.44972   0.60686   0.00000  Uiso   1.00
C916   C     0.11820   0.41521   0.57201   0.00000  Uiso   1.00
C917   C     0.20946   0.45963   0.88874   0.00000  Uiso   1.00
C918   C     0.18472   0.42449   0.91988   0.00000  Uiso   1.00
C919   C     0.14502   0.52378   0.95513   0.00000  Uiso   1.00
C920   C     0.24588   0.50065   0.52669   0.00000  Uiso   1.00
C921   C     0.09779   0.53470   0.97853   0.00000  Uiso   1.00
C922   C     0.29036   0.35461   0.75157   0.00000  Uiso   1.00
C923   C     0.04303   0.64540   0.74824   0.00000  Uiso   1.00
C924   C     0.29038   0.64537   0.75151   0.00000  Uiso   1.00
Cu925  Cu    0.04689   0.50001   0.75000   0.00000  Uiso   1.00
Cu926  Cu    0.28645   0.49999   0.75000   0.00000  Uiso   1.00
H927   H     0.27219   0.50122   0.54602   0.00000  Uiso   1.00
H928   H     0.07666   0.62940   0.74689   0.00000  Uiso   1.00
H929   H     0.25677   0.62935   0.75281   0.00000  Uiso   1.00
H930   H     0.07663   0.37068   0.74694   0.00000  Uiso   1.00
H931   H     0.19614   0.45047   0.79629   0.00000  Uiso   1.00
H932   H     0.13737   0.54879   0.70271   0.00000  Uiso   1.00
H933   H     0.10911   0.45099   0.79695   0.00000  Uiso   1.00
H934   H     0.22430   0.54883   0.70281   0.00000  Uiso   1.00
H935   H     0.12682   0.38627   0.58740   0.00000  Uiso   1.00
H936   H     0.14944   0.42250   0.54266   0.00000  Uiso   1.00
H937   H     0.08520   0.41001   0.56039   0.00000  Uiso   1.00
H938   H     0.07487   0.54981   0.96064   0.00000  Uiso   1.00
H939   H     0.14235   0.45559   0.61752   0.00000  Uiso   1.00
H940   H     0.08239   0.43694   0.63706   0.00000  Uiso   1.00
H941   H     0.21154   0.40829   0.93392   0.00000  Uiso   1.00
H942   H     0.15422   0.43586   0.94776   0.00000  Uiso   1.00
H943   H     0.16937   0.40200   0.90051   0.00000  Uiso   1.00
H944   H     0.18198   0.47773   0.87770   0.00000  Uiso   1.00
H945   H     0.23236   0.44379   0.85859   0.00000  Uiso   1.00
H946   H     0.31253   0.53812   0.61149   0.00000  Uiso   1.00
H947   H     0.03020   0.50233   0.89290   0.00000  Uiso   1.00
H948   H     0.00460   0.49940   0.97494   0.00000  Uiso   1.00
H949   H     0.00950   0.55305   0.53117   0.00000  Uiso   1.00
H950   H     0.18647   0.50567   0.58522   0.00000  Uiso   1.00
H951   H     0.15758   0.53205   0.91998   0.00000  Uiso   1.00
H952   H     0.25672   0.37062   0.75295   0.00000  Uiso   1.00
N953   N     0.11736   0.50001   0.74999   0.00000  Uiso   1.00
N954   N     0.21597   0.49999   0.75001   0.00000  Uiso   1.00
O955   O     0.03958   0.43989   0.75000   0.00000  Uiso   1.00
O956   O     0.29375   0.56011   0.75000   0.00000  Uiso   1.00
O957   O     0.29372   0.43988   0.75001   0.00000  Uiso   1.00
O958   O     0.03961   0.56012   0.75000   0.00000  Uiso   1.00
O959   O     0.01852   0.50001   0.81492   0.00000  Uiso   1.00
O960   O     0.31481   0.49999   0.68509   0.00000  Uiso   1.00
O961   O     0.27267   0.50000   0.81492   0.00000  Uiso   1.00
O962   O     0.06067   0.50000   0.68508   0.00000  Uiso   1.00
C963   C     0.66665   0.42070   0.75000   0.00000  Uiso   1.00
C964   C     0.37634   0.35465   0.74827   0.00000  Uiso   1.00
C965   C     0.33337   0.62393   0.74988   0.00000  Uiso   1.00
C966   C     0.33334   0.37608   0.74995   0.00000  Uiso   1.00
C967   C     0.51701   0.47264   0.77587   0.00000  Uiso   1.00
C968   C     0.48307   0.52710   0.72376   0.00000  Uiso   1.00
C969   C     0.46738   0.47279   0.77605   0.00000  Uiso   1.00
C970   C     0.53265   0.52712   0.72381   0.00000  Uiso   1.00
C971   C     0.63920   0.49764   0.83615   0.00000  Uiso   1.00
C972   C     0.36076   0.50003   0.66392   0.00000  Uiso   1.00
C973   C     0.62397   0.49423   0.88567   0.00000  Uiso   1.00
C974   C     0.33336   0.57931   0.74994   0.00000  Uiso   1.00
C975   C     0.37637   0.50370   0.61482   0.00000  Uiso   1.00
C976   C     0.64393   0.49836   0.95682   0.00000  Uiso   1.00
C977   C     0.36576   0.53612   0.54764   0.00000  Uiso   1.00
C978   C     0.65850   0.49901   0.91000   0.00000  Uiso   1.00
C979   C     0.34813   0.52687   0.59314   0.00000  Uiso   1.00
C980   C     0.57463   0.48715   0.90927   0.00000  Uiso   1.00
C981   C     0.42245   0.48876   0.59034   0.00000  Uiso   1.00
C982   C     0.55930   0.49791   0.95528   0.00000  Uiso   1.00
C983   C     0.44400   0.50572   0.54709   0.00000  Uiso   1.00
C984   C     0.59435   0.49872   0.97978   0.00000  Uiso   1.00
C985   C     0.52976   0.50181   0.54921   0.00000  Uiso   1.00
C986   C     0.41343   0.52549   0.52428   0.00000  Uiso   1.00
C987   C     0.51031   0.50691   0.97791   0.00000  Uiso   1.00
C988   C     0.49444   0.50320   0.52519   0.00000  Uiso   1.00
C989   C     0.44245   0.44972   0.60686   0.00000  Uiso   1.00
C990   C     0.45153   0.41521   0.57201   0.00000  Uiso   1.00
C991   C     0.54280   0.45963   0.88874   0.00000  Uiso   1.00
C992   C     0.51806   0.42449   0.91988   0.00000  Uiso   1.00
C993   C     0.47835   0.52378   0.95513   0.00000  Uiso   1.00
C994   C     0.57921   0.50065   0.52669   0.00000  Uiso   1.00
C995   C     0.43112   0.53470   0.97853   0.00000  Uiso   1.00
C996   C     0.62369   0.35461   0.75157   0.00000  Uiso   1.00
C997   C     0.37636   0.64540   0.74824   0.00000  Uiso   1.00
C998   C     0.62372   0.64537   0.75151   0.00000  Uiso   1.00
Cu999  Cu    0.38022   0.50001   0.75000   0.00000  Uiso   1.00
Cu1000 Cu    0.61978   0.49999   0.75000   0.00000  Uiso   1.00
H1001  H     0.60552   0.50122   0.54602   0.00000  Uiso   1.00
H1002  H     0.40999   0.62940   0.74689   0.00000  Uiso   1.00
H1003  H     0.59010   0.62935   0.75281   0.00000  Uiso   1.00
H1004  H     0.40997   0.37068   0.74694   0.00000  Uiso   1.00
H1005  H     0.52947   0.45047   0.79629   0.00000  Uiso   1.00
H1006  H     0.47070   0.54879   0.70271   0.00000  Uiso   1.00
H1007  H     0.44244   0.45099   0.79695   0.00000  Uiso   1.00
H1008  H     0.55763   0.54883   0.70281   0.00000  Uiso   1.00
H1009  H     0.46016   0.38627   0.58740   0.00000  Uiso   1.00
H1010  H     0.48277   0.42250   0.54266   0.00000  Uiso   1.00
H1011  H     0.41853   0.41001   0.56039   0.00000  Uiso   1.00
H1012  H     0.40820   0.54981   0.96064   0.00000  Uiso   1.00
H1013  H     0.47568   0.45559   0.61752   0.00000  Uiso   1.00
H1014  H     0.41573   0.43694   0.63706   0.00000  Uiso   1.00
H1015  H     0.54487   0.40829   0.93392   0.00000  Uiso   1.00
H1016  H     0.48755   0.43586   0.94776   0.00000  Uiso   1.00
H1017  H     0.50270   0.40200   0.90051   0.00000  Uiso   1.00
H1018  H     0.51531   0.47773   0.87770   0.00000  Uiso   1.00
H1019  H     0.56570   0.44379   0.85859   0.00000  Uiso   1.00
H1020  H     0.64587   0.53812   0.61149   0.00000  Uiso   1.00
H1021  H     0.36354   0.50233   0.89290   0.00000  Uiso   1.00
H1022  H     0.33794   0.49940   0.97494   0.00000  Uiso   1.00
H1023  H     0.34283   0.55305   0.53117   0.00000  Uiso   1.00
H1024  H     0.51981   0.50567   0.58522   0.00000  Uiso   1.00
H1025  H     0.49092   0.53205   0.91998   0.00000  Uiso   1.00
H1026  H     0.59005   0.37062   0.75295   0.00000  Uiso   1.00
N1027  N     0.45069   0.50001   0.74999   0.00000  Uiso   1.00
N1028  N     0.54931   0.49999   0.75001   0.00000  Uiso   1.00
O1029  O     0.37291   0.43989   0.75000   0.00000  Uiso   1.00
O1030  O     0.62709   0.56011   0.75000   0.00000  Uiso   1.00
O1031  O     0.62706   0.43988   0.75001   0.00000  Uiso   1.00
O1032  O     0.37294   0.56012   0.75000   0.00000  Uiso   1.00
O1033  O     0.35186   0.50001   0.81492   0.00000  Uiso   1.00
O1034  O     0.64814   0.49999   0.68509   0.00000  Uiso   1.00
O1035  O     0.60600   0.50000   0.81492   0.00000  Uiso   1.00
O1036  O     0.39400   0.50000   0.68508   0.00000  Uiso   1.00
C1037  C     0.99999   0.42070   0.75000   0.00000  Uiso   1.00
C1038  C     0.70968   0.35465   0.74827   0.00000  Uiso   1.00
C1039  C     0.66671   0.62393   0.74988   0.00000  Uiso   1.00
C1040  C     0.66667   0.37608   0.74995   0.00000  Uiso   1.00
C1041  C     0.85034   0.47264   0.77587   0.00000  Uiso   1.00
C1042  C     0.81640   0.52710   0.72376   0.00000  Uiso   1.00
C1043  C     0.80071   0.47279   0.77605   0.00000  Uiso   1.00
C1044  C     0.86599   0.52712   0.72381   0.00000  Uiso   1.00
C1045  C     0.97254   0.49764   0.83615   0.00000  Uiso   1.00
C1046  C     0.69409   0.50003   0.66392   0.00000  Uiso   1.00
C1047  C     0.95731   0.49423   0.88567   0.00000  Uiso   1.00
C1048  C     0.66670   0.57931   0.74994   0.00000  Uiso   1.00
C1049  C     0.70970   0.50370   0.61482   0.00000  Uiso   1.00
C1050  C     0.97727   0.49836   0.95682   0.00000  Uiso   1.00
C1051  C     0.69909   0.53612   0.54764   0.00000  Uiso   1.00
C1052  C     0.99183   0.49901   0.91000   0.00000  Uiso   1.00
C1053  C     0.68147   0.52687   0.59314   0.00000  Uiso   1.00
C1054  C     0.90796   0.48715   0.90927   0.00000  Uiso   1.00
C1055  C     0.75578   0.48876   0.59034   0.00000  Uiso   1.00
C1056  C     0.89263   0.49791   0.95528   0.00000  Uiso   1.00
C1057  C     0.77733   0.50572   0.54709   0.00000  Uiso   1.00
C1058  C     0.92769   0.49872   0.97978   0.00000  Uiso   1.00
C1059  C     0.86309   0.50181   0.54921   0.00000  Uiso   1.00
C1060  C     0.74676   0.52549   0.52428   0.00000  Uiso   1.00
C1061  C     0.84364   0.50691   0.97791   0.00000  Uiso   1.00
C1062  C     0.82778   0.50320   0.52519   0.00000  Uiso   1.00
C1063  C     0.77578   0.44972   0.60686   0.00000  Uiso   1.00
C1064  C     0.78487   0.41521   0.57201   0.00000  Uiso   1.00
C1065  C     0.87613   0.45963   0.88874   0.00000  Uiso   1.00
C1066  C     0.85139   0.42449   0.91988   0.00000  Uiso   1.00
C1067  C     0.81168   0.52378   0.95513   0.00000  Uiso   1.00
C1068  C     0.91254   0.50065   0.52669   0.00000  Uiso   1.00
C1069  C     0.76445   0.53470   0.97853   0.00000  Uiso   1.00
C1070  C     0.95702   0.35461   0.75157   0.00000  Uiso   1.00
C1071  C     0.70969   0.64540   0.74824   0.00000  Uiso   1.00
C1072  C     0.95705   0.64537   0.75151   0.00000  Uiso   1.00
Cu1073 Cu    0.71355   0.50001   0.75000   0.00000  Uiso   1.00
Cu1074 Cu    0.95311   0.49999   0.75000   0.00000  Uiso   1.00
H1075  H     0.93886   0.50122   0.54602   0.00000  Uiso   1.00
H1076  H     0.74333   0.62940   0.74689   0.00000  Uiso   1.00
H1077  H     0.92343   0.62935   0.75281   0.00000  Uiso   1.00
H1078  H     0.74330   0.37068   0.74694   0.00000  Uiso   1.00
H1079  H     0.86280   0.45047   0.79629   0.00000  Uiso   1.00
H1080  H     0.80404   0.54879   0.70271   0.00000  Uiso   1.00
H1081  H     0.77578   0.45099   0.79695   0.00000  Uiso   1.00
H1082  H     0.89096   0.54883   0.70281   0.00000  Uiso   1.00
H1083  H     0.79349   0.38627   0.58740   0.00000  Uiso   1.00
H1084  H     0.81610   0.42250   0.54266   0.00000  Uiso   1.00
H1085  H     0.75187   0.41001   0.56039   0.00000  Uiso   1.00
H1086  H     0.74154   0.54981   0.96064   0.00000  Uiso   1.00
H1087  H     0.80901   0.45559   0.61752   0.00000  Uiso   1.00
H1088  H     0.74906   0.43694   0.63706   0.00000  Uiso   1.00
H1089  H     0.87820   0.40829   0.93392   0.00000  Uiso   1.00
H1090  H     0.82089   0.43586   0.94776   0.00000  Uiso   1.00
H1091  H     0.83603   0.40200   0.90051   0.00000  Uiso   1.00
H1092  H     0.84864   0.47773   0.87770   0.00000  Uiso   1.00
H1093  H     0.89903   0.44379   0.85859   0.00000  Uiso   1.00
H1094  H     0.97920   0.53812   0.61149   0.00000  Uiso   1.00
H1095  H     0.69687   0.50233   0.89290   0.00000  Uiso   1.00
H1096  H     0.67127   0.49940   0.97494   0.00000  Uiso   1.00
H1097  H     0.67616   0.55305   0.53117   0.00000  Uiso   1.00
H1098  H     0.85314   0.50567   0.58522   0.00000  Uiso   1.00
H1099  H     0.82425   0.53205   0.91998   0.00000  Uiso   1.00
H1100  H     0.92338   0.37062   0.75295   0.00000  Uiso   1.00
N1101  N     0.78403   0.50001   0.74999   0.00000  Uiso   1.00
N1102  N     0.88264   0.49999   0.75001   0.00000  Uiso   1.00
O1103  O     0.70625   0.43989   0.75000   0.00000  Uiso   1.00
O1104  O     0.96042   0.56011   0.75000   0.00000  Uiso   1.00
O1105  O     0.96039   0.43988   0.75001   0.00000  Uiso   1.00
O1106  O     0.70628   0.56012   0.75000   0.00000  Uiso   1.00
O1107  O     0.68519   0.50001   0.81492   0.00000  Uiso   1.00
O1108  O     0.98148   0.49999   0.68509   0.00000  Uiso   1.00
O1109  O     0.93933   0.50000   0.81492   0.00000  Uiso   1.00
O1110  O     0.72733   0.50000   0.68508   0.00000  Uiso   1.00
C1111  C     0.33332   0.75403   0.75000   0.00000  Uiso   1.00
C1112  C     0.04301   0.68798   0.74827   0.00000  Uiso   1.00
C1113  C     0.00004   0.95726   0.74988   0.00000  Uiso   1.00
C1114  C     0.00001   0.70942   0.74995   0.00000  Uiso   1.00
C1115  C     0.18367   0.80598   0.77587   0.00000  Uiso   1.00
C1116  C     0.14973   0.86043   0.72376   0.00000  Uiso   1.00
C1117  C     0.13405   0.80612   0.77605   0.00000  Uiso   1.00
C1118  C     0.19932   0.86045   0.72381   0.00000  Uiso   1.00
C1119  C     0.30587   0.83097   0.83615   0.00000  Uiso   1.00
C1120  C     0.02742   0.83337   0.66392   0.00000  Uiso   1.00
C1121  C     0.29064   0.82756   0.88567   0.00000  Uiso   1.00
C1122  C     0.00003   0.91264   0.74994   0.00000  Uiso   1.00
C1123  C     0.04304   0.83703   0.61482   0.00000  Uiso   1.00
C1124  C     0.31060   0.83169   0.95682   0.00000  Uiso   1.00
C1125  C     0.03243   0.86945   0.54764   0.00000  Uiso   1.00
C1126  C     0.32516   0.83234   0.91000   0.00000  Uiso   1.00
C1127  C     0.01480   0.86020   0.59314   0.00000  Uiso   1.00
C1128  C     0.24130   0.82048   0.90927   0.00000  Uiso   1.00
C1129  C     0.08911   0.82209   0.59034   0.00000  Uiso   1.00
C1130  C     0.22596   0.83124   0.95528   0.00000  Uiso   1.00
C1131  C     0.11066   0.83905   0.54709   0.00000  Uiso   1.00
C1132  C     0.26102   0.83205   0.97978   0.00000  Uiso   1.00
C1133  C     0.19643   0.83514   0.54921   0.00000  Uiso   1.00
C1134  C     0.08010   0.85883   0.52428   0.00000  Uiso   1.00
C1135  C     0.17697   0.84024   0.97791   0.00000  Uiso   1.00
C1136  C     0.16111   0.83654   0.52519   0.00000  Uiso   1.00
C1137  C     0.10912   0.78305   0.60686   0.00000  Uiso   1.00
C1138  C     0.11820   0.74854   0.57201   0.00000  Uiso   1.00
C1139  C     0.20946   0.79296   0.88874   0.00000  Uiso   1.00
C1140  C     0.18472   0.75782   0.91988   0.00000  Uiso   1.00
C1141  C     0.14502   0.85711   0.95513   0.00000  Uiso   1.00
C1142  C     0.24588   0.83398   0.52669   0.00000  Uiso   1.00
C1143  C     0.09779   0.86803   0.97853   0.00000  Uiso   1.00
C1144  C     0.29036   0.68795   0.75157   0.00000  Uiso   1.00
C1145  C     0.04303   0.97874   0.74824   0.00000  Uiso   1.00
C1146  C     0.29038   0.97870   0.75151   0.00000  Uiso   1.00
Cu1147 Cu    0.04689   0.83334   0.75000   0.00000  Uiso   1.00
Cu1148 Cu    0.28645   0.83333   0.75000   0.00000  Uiso   1.00
H1149  H     0.27219   0.83455   0.54602   0.00000  Uiso   1.00
H1150  H     0.07666   0.96274   0.74689   0.00000  Uiso   1.00
H1151  H     0.25677   0.96268   0.75281   0.00000  Uiso   1.00
H1152  H     0.07663   0.70401   0.74694   0.00000  Uiso   1.00
H1153  H     0.19614   0.78380   0.79629   0.00000  Uiso   1.00
H1154  H     0.13737   0.88213   0.70271   0.00000  Uiso   1.00
H1155  H     0.10911   0.78432   0.79695   0.00000  Uiso   1.00
H1156  H     0.22430   0.88216   0.70281   0.00000  Uiso   1.00
H1157  H     0.12682   0.71960   0.58740   0.00000  Uiso   1.00
H1158  H     0.14944   0.75583   0.54266   0.00000  Uiso   1.00
H1159  H     0.08520   0.74334   0.56039   0.00000  Uiso   1.00
H1160  H     0.07487   0.88315   0.96064   0.00000  Uiso   1.00
H1161  H     0.14235   0.78892   0.61752   0.00000  Uiso   1.00
H1162  H     0.08239   0.77027   0.63706   0.00000  Uiso   1.00
H1163  H     0.21154   0.74162   0.93392   0.00000  Uiso   1.00
H1164  H     0.15422   0.76919   0.94776   0.00000  Uiso   1.00
H1165  H     0.16937   0.73533   0.90051   0.00000  Uiso   1.00
H1166  H     0.18198   0.81106   0.87770   0.00000  Uiso   1.00
H1167  H     0.23236   0.77712   0.85859   0.00000  Uiso   1.00
H1168  H     0.31253   0.87146   0.61149   0.00000  Uiso   1.00
H1169  H     0.03020   0.83567   0.89290   0.00000  Uiso   1.00
H1170  H     0.00460   0.83273   0.97494   0.00000  Uiso   1.00
H1171  H     0.00950   0.88638   0.53117   0.00000  Uiso   1.00
H1172  H     0.18647   0.83900   0.58522   0.00000  Uiso   1.00
H1173  H     0.15758   0.86538   0.91998   0.00000  Uiso   1.00
H1174  H     0.25672   0.70395   0.75295   0.00000  Uiso   1.00
N1175  N     0.11736   0.83334   0.74999   0.00000  Uiso   1.00
N1176  N     0.21597   0.83332   0.75001   0.00000  Uiso   1.00
O1177  O     0.03958   0.77322   0.75000   0.00000  Uiso   1.00
O1178  O     0.29375   0.89345   0.75000   0.00000  Uiso   1.00
O1179  O     0.29372   0.77321   0.75001   0.00000  Uiso   1.00
O1180  O     0.03961   0.89346   0.75000   0.00000  Uiso   1.00
O1181  O     0.01852   0.83334   0.81492   0.00000  Uiso   1.00
O1182  O     0.31481   0.83332   0.68509   0.00000  Uiso   1.00
O1183  O     0.27267   0.83333   0.81492   0.00000  Uiso   1.00
O1184  O     0.06067   0.83333   0.68508   0.00000  Uiso   1.00
C1185  C     0.66665   0.75403   0.75000   0.00000  Uiso   1.00
C1186  C     0.37634   0.68798   0.74827   0.00000  Uiso   1.00
C1187  C     0.33337   0.95726   0.74988   0.00000  Uiso   1.00
C1188  C     0.33334   0.70942   0.74995   0.00000  Uiso   1.00
C1189  C     0.51701   0.80598   0.77587   0.00000  Uiso   1.00
C1190  C     0.48307   0.86043   0.72376   0.00000  Uiso   1.00
C1191  C     0.46738   0.80612   0.77605   0.00000  Uiso   1.00
C1192  C     0.53265   0.86045   0.72381   0.00000  Uiso   1.00
C1193  C     0.63920   0.83097   0.83615   0.00000  Uiso   1.00
C1194  C     0.36076   0.83337   0.66392   0.00000  Uiso   1.00
C1195  C     0.62397   0.82756   0.88567   0.00000  Uiso   1.00
C1196  C     0.33336   0.91264   0.74994   0.00000  Uiso   1.00
C1197  C     0.37637   0.83703   0.61482   0.00000  Uiso   1.00
C1198  C     0.64393   0.83169   0.95682   0.00000  Uiso   1.00
C1199  C     0.36576   0.86945   0.54764   0.00000  Uiso   1.00
C1200  C     0.65850   0.83234   0.91000   0.00000  Uiso   1.00
C1201  C     0.34813   0.86020   0.59314   0.00000  Uiso   1.00
C1202  C     0.57463   0.82048   0.90927   0.00000  Uiso   1.00
C1203  C     0.42245   0.82209   0.59034   0.00000  Uiso   1.00
C1204  C     0.55930   0.83124   0.95528   0.00000  Uiso   1.00
C1205  C     0.44400   0.83905   0.54709   0.00000  Uiso   1.00
C1206  C     0.59435   0.83205   0.97978   0.00000  Uiso   1.00
C1207  C     0.52976   0.83514   0.54921   0.00000  Uiso   1.00
C1208  C     0.41343   0.85883   0.52428   0.00000  Uiso   1.00
C1209  C     0.51031   0.84024   0.97791   0.00000  Uiso   1.00
C1210  C     0.49444   0.83654   0.52519   0.00000  Uiso   1.00
C1211  C     0.44245   0.78305   0.60686   0.00000  Uiso   1.00
C1212  C     0.45153   0.74854   0.57201   0.00000  Uiso   1.00
C1213  C     0.54280   0.79296   0.88874   0.00000  Uiso   1.00
C1214  C     0.51806   0.75782   0.91988   0.00000  Uiso   1.00
C1215  C     0.47835   0.85711   0.95513   0.00000  Uiso   1.00
C1216  C     0.57921   0.83398   0.52669   0.00000  Uiso   1.00
C1217  C     0.43112   0.86803   0.97853   0.00000  Uiso   1.00
C1218  C     0.62369   0.68795   0.75157   0.00000  Uiso   1.00
C1219  C     0.37636   0.97874   0.74824   0.00000  Uiso   1.00
C1220  C     0.62372   0.97870   0.75151   0.00000  Uiso   1.00
Cu1221 Cu    0.38022   0.83334   0.75000   0.00000  Uiso   1.00
Cu1222 Cu    0.61978   0.83333   0.75000   0.00000  Uiso   1.00
H1223  H     0.60552   0.83455   0.54602   0.00000  Uiso   1.00
H1224  H     0.40999   0.96274   0.74689   0.00000  Uiso   1.00
H1225  H     0.59010   0.96268   0.75281   0.00000  Uiso   1.00
H1226  H     0.40997   0.70401   0.74694   0.00000  Uiso   1.00
H1227  H     0.52947   0.78380   0.79629   0.00000  Uiso   1.00
H1228  H     0.47070   0.88213   0.70271   0.00000  Uiso   1.00
H1229  H     0.44244   0.78432   0.79695   0.00000  Uiso   1.00
H1230  H     0.55763   0.88216   0.70281   0.00000  Uiso   1.00
H1231  H     0.46016   0.71960   0.58740   0.00000  Uiso   1.00
H1232  H     0.48277   0.75583   0.54266   0.00000  Uiso   1.00
H1233  H     0.41853   0.74334   0.56039   0.00000  Uiso   1.00
H1234  H     0.40820   0.88315   0.96064   0.00000  Uiso   1.00
H1235  H     0.47568   0.78892   0.61752   0.00000  Uiso   1.00
H1236  H     0.41573   0.77027   0.63706   0.00000  Uiso   1.00
H1237  H     0.54487   0.74162   0.93392   0.00000  Uiso   1.00
H1238  H     0.48755   0.76919   0.94776   0.00000  Uiso   1.00
H1239  H     0.50270   0.73533   0.90051   0.00000  Uiso   1.00
H1240  H     0.51531   0.81106   0.87770   0.00000  Uiso   1.00
H1241  H     0.56570   0.77712   0.85859   0.00000  Uiso   1.00
H1242  H     0.64587   0.87146   0.61149   0.00000  Uiso   1.00
H1243  H     0.36354   0.83567   0.89290   0.00000  Uiso   1.00
H1244  H     0.33794   0.83273   0.97494   0.00000  Uiso   1.00
H1245  H     0.34283   0.88638   0.53117   0.00000  Uiso   1.00
H1246  H     0.51981   0.83900   0.58522   0.00000  Uiso   1.00
H1247  H     0.49092   0.86538   0.91998   0.00000  Uiso   1.00
H1248  H     0.59005   0.70395   0.75295   0.00000  Uiso   1.00
N1249  N     0.45069   0.83334   0.74999   0.00000  Uiso   1.00
N1250  N     0.54931   0.83332   0.75001   0.00000  Uiso   1.00
O1251  O     0.37291   0.77322   0.75000   0.00000  Uiso   1.00
O1252  O     0.62709   0.89345   0.75000   0.00000  Uiso   1.00
O1253  O     0.62706   0.77321   0.75001   0.00000  Uiso   1.00
O1254  O     0.37294   0.89346   0.75000   0.00000  Uiso   1.00
O1255  O     0.35186   0.83334   0.81492   0.00000  Uiso   1.00
O1256  O     0.64814   0.83332   0.68509   0.00000  Uiso   1.00
O1257  O     0.60600   0.83333   0.81492   0.00000  Uiso   1.00
O1258  O     0.39400   0.83333   0.68508   0.00000  Uiso   1.00
C1259  C     0.99999   0.75403   0.75000   0.00000  Uiso   1.00
C1260  C     0.70968   0.68798   0.74827   0.00000  Uiso   1.00
C1261  C     0.66671   0.95726   0.74988   0.00000  Uiso   1.00
C1262  C     0.66667   0.70942   0.74995   0.00000  Uiso   1.00
C1263  C     0.85034   0.80598   0.77587   0.00000  Uiso   1.00
C1264  C     0.81640   0.86043   0.72376   0.00000  Uiso   1.00
C1265  C     0.80071   0.80612   0.77605   0.00000  Uiso   1.00
C1266  C     0.86599   0.86045   0.72381   0.00000  Uiso   1.00
C1267  C     0.97254   0.83097   0.83615   0.00000  Uiso   1.00
C1268  C     0.69409   0.83337   0.66392   0.00000  Uiso   1.00
C1269  C     0.95731   0.82756   0.88567   0.00000  Uiso   1.00
C1270  C     0.66670   0.91264   0.74994   0.00000  Uiso   1.00
C1271  C     0.70970   0.83703   0.61482   0.00000  Uiso   1.00
C1272  C     0.97727   0.83169   0.95682   0.00000  Uiso   1.00
C1273  C     0.69909   0.86945   0.54764   0.00000  Uiso   1.00
C1274  C     0.99183   0.83234   0.91000   0.00000  Uiso   1.00
C1275  C     0.68147   0.86020   0.59314   0.00000  Uiso   1.00
C1276  C     0.90796   0.82048   0.90927   0.00000  Uiso   1.00
C1277  C     0.75578   0.82209   0.59034   0.00000  Uiso   1.00
C1278  C     0.89263   0.83124   0.95528   0.00000  Uiso   1.00
C1279  C     0.77733   0.83905   0.54709   0.00000  Uiso   1.00
C1280  C     0.92769   0.83205   0.97978   0.00000  Uiso   1.00
C1281  C     0.86309   0.83514   0.54921   0.00000  Uiso   1.00
C1282  C     0.74676   0.85883   0.52428   0.00000  Uiso   1.00
C1283  C     0.84364   0.84024   0.97791   0.00000  Uiso   1.00
C1284  C     0.82778   0.83654   0.52519   0.00000  Uiso   1.00
C1285  C     0.77578   0.78305   0.60686   0.00000  Uiso   1.00
C1286  C     0.78487   0.74854   0.57201   0.00000  Uiso   1.00
C1287  C     0.87613   0.79296   0.88874   0.00000  Uiso   1.00
C1288  C     0.85139   0.75782   0.91988   0.00000  Uiso   1.00
C1289  C     0.81168   0.85711   0.95513   0.00000  Uiso   1.00
C1290  C     0.91254   0.83398   0.52669   0.00000  Uiso   1.00
C1291  C     0.76445   0.86803   0.97853   0.00000  Uiso   1.00
C1292  C     0.95702   0.68795   0.75157   0.00000  Uiso   1.00
C1293  C     0.70969   0.97874   0.74824   0.00000  Uiso   1.00
C1294  C     0.95705   0.97870   0.75151   0.00000  Uiso   1.00
Cu1295 Cu    0.71355   0.83334   0.75000   0.00000  Uiso   1.00
Cu1296 Cu    0.95311   0.83333   0.75000   0.00000  Uiso   1.00
H1297  H     0.93886   0.83455   0.54602   0.00000  Uiso   1.00
H1298  H     0.74333   0.96274   0.74689   0.00000  Uiso   1.00
H1299  H     0.92343   0.96268   0.75281   0.00000  Uiso   1.00
H1300  H     0.74330   0.70401   0.74694   0.00000  Uiso   1.00
H1301  H     0.86280   0.78380   0.79629   0.00000  Uiso   1.00
H1302  H     0.80404   0.88213   0.70271   0.00000  Uiso   1.00
H1303  H     0.77578   0.78432   0.79695   0.00000  Uiso   1.00
H1304  H     0.89096   0.88216   0.70281   0.00000  Uiso   1.00
H1305  H     0.79349   0.71960   0.58740   0.00000  Uiso   1.00
H1306  H     0.81610   0.75583   0.54266   0.00000  Uiso   1.00
H1307  H     0.75187   0.74334   0.56039   0.00000  Uiso   1.00
H1308  H     0.74154   0.88315   0.96064   0.00000  Uiso   1.00
H1309  H     0.80901   0.78892   0.61752   0.00000  Uiso   1.00
H1310  H     0.74906   0.77027   0.63706   0.00000  Uiso   1.00
H1311  H     0.87820   0.74162   0.93392   0.00000  Uiso   1.00
H1312  H     0.82089   0.76919   0.94776   0.00000  Uiso   1.00
H1313  H     0.83603   0.73533   0.90051   0.00000  Uiso   1.00
H1314  H     0.84864   0.81106   0.87770   0.00000  Uiso   1.00
H1315  H     0.89903   0.77712   0.85859   0.00000  Uiso   1.00
H1316  H     0.97920   0.87146   0.61149   0.00000  Uiso   1.00
H1317  H     0.69687   0.83567   0.89290   0.00000  Uiso   1.00
H1318  H     0.67127   0.83273   0.97494   0.00000  Uiso   1.00
H1319  H     0.67616   0.88638   0.53117   0.00000  Uiso   1.00
H1320  H     0.85314   0.83900   0.58522   0.00000  Uiso   1.00
H1321  H     0.82425   0.86538   0.91998   0.00000  Uiso   1.00
H1322  H     0.92338   0.70395   0.75295   0.00000  Uiso   1.00
N1323  N     0.78403   0.83334   0.74999   0.00000  Uiso   1.00
N1324  N     0.88264   0.83332   0.75001   0.00000  Uiso   1.00
O1325  O     0.70625   0.77322   0.75000   0.00000  Uiso   1.00
O1326  O     0.96042   0.89345   0.75000   0.00000  Uiso   1.00
O1327  O     0.96039   0.77321   0.75001   0.00000  Uiso   1.00
O1328  O     0.70628   0.89346   0.75000   0.00000  Uiso   1.00
O1329  O     0.68519   0.83334   0.81492   0.00000  Uiso   1.00
O1330  O     0.98148   0.83332   0.68509   0.00000  Uiso   1.00
O1331  O     0.93933   0.83333   0.81492   0.00000  Uiso   1.00
O1332  O     0.72733   0.83333   0.68508   0.00000  Uiso   1.00
loop_
_geom_bond_atom_site_label_1
_geom_bond_atom_site_label_2
_geom_bond_distance
_geom_bond_site_symmetry_2
_ccdc_geom_bond_type
C1     O69     1.292   .     A
C1     C78     1.450   .     S
C1     O141    1.292   .     S
C2     C4      1.401   .     A
C2     H42     1.083   .     S
C2     C479    1.383   1_545 S
C3     C12     1.450   .     S
C3     C35     1.401   .     A
C3     C184    1.401   1_455 S
C4     C149    1.450   1_455 S
C4     C182    1.401   1_455 S
C5     H43     1.080   .     S
C5     C7      1.416   .     A
C5     N66     1.367   .     A
C6     H44     1.082   .     S
C6     N65     1.367   .     A
C6     C8      1.417   .     A
C7     H45     1.082   .     S
C7     N65     1.367   .     A
C8     N66     1.367   .     A
C8     H46     1.082   .     S
C9     O73     1.297   .     A
C9     C11     1.477   .     S
C9     O145    1.299   .     S
C10    C13     1.465   .     S
C10    O74     1.294   .     A
C10    O220    1.295   1_455 S
C11    C18     1.416   .     A
C11    C16     1.405   .     A
C12    O70     1.292   .     A
C12    O216    1.292   1_455 S
C13    C19     1.413   .     A
C13    C17     1.401   .     A
C14    C16     1.393   .     A
C14    C22     1.399   .     A
C14    H134    1.080   .     S
C15    H61     1.084   .     S
C15    C24     1.398   .     A
C15    C17     1.390   .     A
C16    H133    1.083   .     S
C17    H206    1.083   1_455 S
C18    C29     1.534   .     S
C18    C20     1.414   .     A
C19    C21     1.420   .     A
C19    C27     1.534   .     S
C20    C25     1.413   .     A
C20    C22     1.414   .     A
C21    C26     1.416   .     A
C21    C24     1.418   .     A
C22    C698    1.397   .     S
C23    C26     1.409   .     A
C23    H62     1.079   .     S
C23    C32     1.393   .     A
C24    C699    1.397   1_554 S
C25    C31     1.408   .     A
C25    C692    1.412   .     S
C26    C691    1.412   1_554 S
C27    H51     1.104   .     S
C27    H52     1.110   .     S
C27    C28     1.530   .     S
C28    H47     1.111   .     S
C28    H49     1.111   .     S
C28    H48     1.109   .     S
C29    C30     1.533   .     S
C29    H57     1.109   .     S
C29    H56     1.107   .     S
C30    H54     1.108   .     S
C30    H53     1.111   .     S
C30    H55     1.111   .     S
C31    C33     1.391   .     A
C31    H63     1.080   .     S
C32    H39     1.082   .     S
C32    C688    1.397   1_554 S
C33    H50     1.084   .     S
C33    C690    1.397   .     S
C34    H64     1.083   .     S
C34    C78     1.401   .     S
C34    C480    1.383   1_545 S
C35    H40     1.083   .     S
C35    C224    1.383   .     S
C36    H41     1.083   .     S
C36    C77     1.401   .     S
C36    C256    1.383   .     S
Cu37   O74     1.938   .     S
Cu37   N65     2.013   .     S
Cu37   O70     1.965   .     S
Cu37   O71     1.948   .     S
Cu37   O67     1.965   .     S
Cu37   Cu186   2.679   1_455 S
Cu38   O68     1.965   .     S
Cu38   N66     2.013   .     S
Cu38   O69     1.965   .     S
Cu38   O72     1.948   .     S
Cu38   O73     1.938   .     S
Cu38   Cu111   2.679   .     S
H58    C91     1.083   .     S
H59    C164    1.083   1_455 S
H60    C162    1.080   1_455 S
O67    C149    1.292   1_455 S
O68    C86     1.292   .     S
O71    C157    1.299   1_455 S
O72    C84     1.295   .     S
C75    O143    1.292   .     A
C75    C152    1.450   .     S
C75    O215    1.292   .     S
C76    C78     1.401   .     A
C76    H116    1.083   .     S
C76    C553    1.383   1_545 S
C77    C86     1.450   .     S
C77    C109    1.401   .     A
C79    H117    1.080   .     S
C79    C81     1.416   .     A
C79    N140    1.367   .     A
C80    H118    1.082   .     S
C80    N139    1.367   .     A
C80    C82     1.417   .     A
C81    H119    1.082   .     S
C81    N139    1.367   .     A
C82    N140    1.367   .     A
C82    H120    1.082   .     S
C83    O147    1.297   .     A
C83    C85     1.477   .     S
C83    O219    1.299   .     S
C84    C87     1.465   .     S
C84    O148    1.294   .     A
C85    C92     1.416   .     A
C85    C90     1.405   .     A
C86    O144    1.292   .     A
C87    C93     1.413   .     A
C87    C91     1.401   .     A
C88    C90     1.393   .     A
C88    C96     1.399   .     A
C88    H208    1.080   .     S
C89    H135    1.084   .     S
C89    C98     1.398   .     A
C89    C91     1.390   .     A
C90    H207    1.083   .     S
C92    C103    1.534   .     S
C92    C94     1.414   .     A
C93    C95     1.420   .     A
C93    C101    1.534   .     S
C94    C99     1.413   .     A
C94    C96     1.414   .     A
C95    C100    1.416   .     A
C95    C98     1.418   .     A
C96    C772    1.397   .     S
C97    C100    1.409   .     A
C97    H136    1.079   .     S
C97    C106    1.393   .     A
C98    C773    1.397   1_554 S
C99    C105    1.408   .     A
C99    C766    1.412   .     S
C100   C765    1.412   1_554 S
C101   H125    1.104   .     S
C101   H126    1.110   .     S
C101   C102    1.530   .     S
C102   H121    1.111   .     S
C102   H123    1.111   .     S
C102   H122    1.109   .     S
C103   C104    1.533   .     S
C103   H131    1.109   .     S
C103   H130    1.107   .     S
C104   H128    1.108   .     S
C104   H127    1.111   .     S
C104   H129    1.111   .     S
C105   C107    1.391   .     A
C105   H137    1.080   .     S
C106   H113    1.082   .     S
C106   C762    1.397   1_554 S
C107   H124    1.084   .     S
C107   C764    1.397   .     S
C108   H138    1.083   .     S
C108   C152    1.401   .     S
C108   C554    1.383   1_545 S
C109   H114    1.083   .     S
C109   C298    1.383   .     S
C110   H115    1.083   .     S
C110   C151    1.401   .     S
C110   C330    1.383   .     S
Cu111  O148    1.938   .     S
Cu111  N139    2.013   .     S
Cu111  O144    1.965   .     S
Cu111  O145    1.948   .     S
Cu111  O141    1.965   .     S
Cu112  O142    1.965   .     S
Cu112  N140    2.013   .     S
Cu112  O143    1.965   .     S
Cu112  O146    1.948   .     S
Cu112  O147    1.938   .     S
Cu112  Cu185   2.679   .     S
H132   C165    1.083   .     S
O142   C160    1.292   .     S
O146   C158    1.295   .     S
C149   O217    1.292   .     A
C149   C4      1.450   1_655 S
C149   O67     1.292   1_655 S
C150   C152    1.401   .     A
C150   H190    1.083   .     S
C150   C627    1.383   1_545 S
C151   C160    1.450   .     S
C151   C183    1.401   .     A
C153   H191    1.080   .     S
C153   C155    1.416   .     A
C153   N214    1.367   .     A
C154   H192    1.082   .     S
C154   N213    1.367   .     A
C154   C156    1.417   .     A
C155   H193    1.082   .     S
C155   N213    1.367   .     A
C156   N214    1.367   .     A
C156   H194    1.082   .     S
C157   O221    1.297   .     A
C157   C159    1.477   .     S
C157   O71     1.299   1_655 S
C158   C161    1.465   .     S
C158   O222    1.294   .     A
C159   C166    1.416   .     A
C159   C164    1.405   .     A
C160   O218    1.292   .     A
C161   C167    1.413   .     A
C161   C165    1.401   .     A
C162   C164    1.393   .     A
C162   C170    1.399   .     A
C162   H60     1.080   1_655 S
C163   H209    1.084   .     S
C163   C172    1.398   .     A
C163   C165    1.390   .     A
C164   H59     1.083   1_655 S
C166   C177    1.534   .     S
C166   C168    1.414   .     A
C167   C169    1.420   .     A
C167   C175    1.534   .     S
C168   C173    1.413   .     A
C168   C170    1.414   .     A
C169   C174    1.416   .     A
C169   C172    1.418   .     A
C170   C846    1.397   .     S
C171   C174    1.409   .     A
C171   H210    1.079   .     S
C171   C180    1.393   .     A
C172   C847    1.397   1_554 S
C173   C179    1.408   .     A
C173   C840    1.412   .     S
C174   C839    1.412   1_554 S
C175   H199    1.104   .     S
C175   H200    1.110   .     S
C175   C176    1.530   .     S
C176   H195    1.111   .     S
C176   H197    1.111   .     S
C176   H196    1.109   .     S
C177   C178    1.533   .     S
C177   H205    1.109   .     S
C177   H204    1.107   .     S
C178   H202    1.108   .     S
C178   H201    1.111   .     S
C178   H203    1.111   .     S
C179   C181    1.391   .     A
C179   H211    1.080   .     S
C180   H187    1.082   .     S
C180   C836    1.397   1_554 S
C181   H198    1.084   .     S
C181   C838    1.397   .     S
C182   H212    1.083   .     S
C182   C4      1.401   1_655 S
C182   C628    1.383   1_545 S
C183   H188    1.083   .     S
C183   C372    1.383   .     S
C184   H189    1.083   .     S
C184   C3      1.401   1_655 S
C184   C404    1.383   .     S
Cu185  O222    1.938   .     S
Cu185  N213    2.013   .     S
Cu185  O218    1.965   .     S
Cu185  O219    1.948   .     S
Cu185  O215    1.965   .     S
Cu186  O216    1.965   .     S
Cu186  N214    2.013   .     S
Cu186  O217    1.965   .     S
Cu186  O220    1.948   .     S
Cu186  O221    1.938   .     S
Cu186  Cu37    2.679   1_655 S
H206   C17     1.083   1_655 S
O216   C12     1.292   1_655 S
O220   C10     1.295   1_655 S
C223   O291    1.292   .     A
C223   C300    1.450   .     S
C223   O363    1.292   .     S
C224   C226    1.401   .     A
C224   H264    1.083   .     S
C225   C234    1.450   .     S
C225   C257    1.401   .     A
C225   C406    1.401   1_455 S
C226   C371    1.450   1_455 S
C226   C404    1.401   1_455 S
C227   H265    1.080   .     S
C227   C229    1.416   .     A
C227   N288    1.367   .     A
C228   H266    1.082   .     S
C228   N287    1.367   .     A
C228   C230    1.417   .     A
C229   H267    1.082   .     S
C229   N287    1.367   .     A
C230   N288    1.367   .     A
C230   H268    1.082   .     S
C231   O295    1.297   .     A
C231   C233    1.477   .     S
C231   O367    1.299   .     S
C232   C235    1.465   .     S
C232   O296    1.294   .     A
C232   O442    1.295   1_455 S
C233   C240    1.416   .     A
C233   C238    1.405   .     A
C234   O292    1.292   .     A
C234   O438    1.292   1_455 S
C235   C241    1.413   .     A
C235   C239    1.401   .     A
C236   C238    1.393   .     A
C236   C244    1.399   .     A
C236   H356    1.080   .     S
C237   H283    1.084   .     S
C237   C246    1.398   .     A
C237   C239    1.390   .     A
C238   H355    1.083   .     S
C239   H428    1.083   1_455 S
C240   C251    1.534   .     S
C240   C242    1.414   .     A
C241   C243    1.420   .     A
C241   C249    1.534   .     S
C242   C247    1.413   .     A
C242   C244    1.414   .     A
C243   C248    1.416   .     A
C243   C246    1.418   .     A
C244   C920    1.397   .     S
C245   C248    1.409   .     A
C245   H284    1.079   .     S
C245   C254    1.393   .     A
C246   C921    1.397   1_554 S
C247   C253    1.408   .     A
C247   C914    1.412   .     S
C248   C913    1.412   1_554 S
C249   H273    1.104   .     S
C249   H274    1.110   .     S
C249   C250    1.530   .     S
C250   H269    1.111   .     S
C250   H271    1.111   .     S
C250   H270    1.109   .     S
C251   C252    1.533   .     S
C251   H279    1.109   .     S
C251   H278    1.107   .     S
C252   H276    1.108   .     S
C252   H275    1.111   .     S
C252   H277    1.111   .     S
C253   C255    1.391   .     A
C253   H285    1.080   .     S
C254   H261    1.082   .     S
C254   C910    1.397   1_554 S
C255   H272    1.084   .     S
C255   C912    1.397   .     S
C256   H286    1.083   .     S
C256   C300    1.401   .     S
C257   H262    1.083   .     S
C257   C446    1.383   .     S
C258   H263    1.083   .     S
C258   C299    1.401   .     S
C258   C478    1.383   .     S
Cu259  O296    1.938   .     S
Cu259  N287    2.013   .     S
Cu259  O292    1.965   .     S
Cu259  O293    1.948   .     S
Cu259  O289    1.965   .     S
Cu259  Cu408   2.679   1_455 S
Cu260  O290    1.965   .     S
Cu260  N288    2.013   .     S
Cu260  O291    1.965   .     S
Cu260  O294    1.948   .     S
Cu260  O295    1.938   .     S
Cu260  Cu333   2.679   .     S
H280   C313    1.083   .     S
H281   C386    1.083   1_455 S
H282   C384    1.080   1_455 S
O289   C371    1.292   1_455 S
O290   C308    1.292   .     S
O293   C379    1.299   1_455 S
O294   C306    1.295   .     S
C297   O365    1.292   .     A
C297   C374    1.450   .     S
C297   O437    1.292   .     S
C298   C300    1.401   .     A
C298   H338    1.083   .     S
C299   C308    1.450   .     S
C299   C331    1.401   .     A
C301   H339    1.080   .     S
C301   C303    1.416   .     A
C301   N362    1.367   .     A
C302   H340    1.082   .     S
C302   N361    1.367   .     A
C302   C304    1.417   .     A
C303   H341    1.082   .     S
C303   N361    1.367   .     A
C304   N362    1.367   .     A
C304   H342    1.082   .     S
C305   O369    1.297   .     A
C305   C307    1.477   .     S
C305   O441    1.299   .     S
C306   C309    1.465   .     S
C306   O370    1.294   .     A
C307   C314    1.416   .     A
C307   C312    1.405   .     A
C308   O366    1.292   .     A
C309   C315    1.413   .     A
C309   C313    1.401   .     A
C310   C312    1.393   .     A
C310   C318    1.399   .     A
C310   H430    1.080   .     S
C311   H357    1.084   .     S
C311   C320    1.398   .     A
C311   C313    1.390   .     A
C312   H429    1.083   .     S
C314   C325    1.534   .     S
C314   C316    1.414   .     A
C315   C317    1.420   .     A
C315   C323    1.534   .     S
C316   C321    1.413   .     A
C316   C318    1.414   .     A
C317   C322    1.416   .     A
C317   C320    1.418   .     A
C318   C994    1.397   .     S
C319   C322    1.409   .     A
C319   H358    1.079   .     S
C319   C328    1.393   .     A
C320   C995    1.397   1_554 S
C321   C327    1.408   .     A
C321   C988    1.412   .     S
C322   C987    1.412   1_554 S
C323   H347    1.104   .     S
C323   H348    1.110   .     S
C323   C324    1.530   .     S
C324   H343    1.111   .     S
C324   H345    1.111   .     S
C324   H344    1.109   .     S
C325   C326    1.533   .     S
C325   H353    1.109   .     S
C325   H352    1.107   .     S
C326   H350    1.108   .     S
C326   H349    1.111   .     S
C326   H351    1.111   .     S
C327   C329    1.391   .     A
C327   H359    1.080   .     S
C328   H335    1.082   .     S
C328   C984    1.397   1_554 S
C329   H346    1.084   .     S
C329   C986    1.397   .     S
C330   H360    1.083   .     S
C330   C374    1.401   .     S
C331   H336    1.083   .     S
C331   C520    1.383   .     S
C332   H337    1.083   .     S
C332   C373    1.401   .     S
C332   C552    1.383   .     S
Cu333  O370    1.938   .     S
Cu333  N361    2.013   .     S
Cu333  O366    1.965   .     S
Cu333  O367    1.948   .     S
Cu333  O363    1.965   .     S
Cu334  O364    1.965   .     S
Cu334  N362    2.013   .     S
Cu334  O365    1.965   .     S
Cu334  O368    1.948   .     S
Cu334  O369    1.938   .     S
Cu334  Cu407   2.679   .     S
H354   C387    1.083   .     S
O364   C382    1.292   .     S
O368   C380    1.295   .     S
C371   O439    1.292   .     A
C371   C226    1.450   1_655 S
C371   O289    1.292   1_655 S
C372   C374    1.401   .     A
C372   H412    1.083   .     S
C373   C382    1.450   .     S
C373   C405    1.401   .     A
C375   H413    1.080   .     S
C375   C377    1.416   .     A
C375   N436    1.367   .     A
C376   H414    1.082   .     S
C376   N435    1.367   .     A
C376   C378    1.417   .     A
C377   H415    1.082   .     S
C377   N435    1.367   .     A
C378   N436    1.367   .     A
C378   H416    1.082   .     S
C379   O443    1.297   .     A
C379   C381    1.477   .     S
C379   O293    1.299   1_655 S
C380   C383    1.465   .     S
C380   O444    1.294   .     A
C381   C388    1.416   .     A
C381   C386    1.405   .     A
C382   O440    1.292   .     A
C383   C389    1.413   .     A
C383   C387    1.401   .     A
C384   C386    1.393   .     A
C384   C392    1.399   .     A
C384   H282    1.080   1_655 S
C385   H431    1.084   .     S
C385   C394    1.398   .     A
C385   C387    1.390   .     A
C386   H281    1.083   1_655 S
C388   C399    1.534   .     S
C388   C390    1.414   .     A
C389   C391    1.420   .     A
C389   C397    1.534   .     S
C390   C395    1.413   .     A
C390   C392    1.414   .     A
C391   C396    1.416   .     A
C391   C394    1.418   .     A
C392   C1068   1.397   .     S
C393   C396    1.409   .     A
C393   H432    1.079   .     S
C393   C402    1.393   .     A
C394   C1069   1.397   1_554 S
C395   C401    1.408   .     A
C395   C1062   1.412   .     S
C396   C1061   1.412   1_554 S
C397   H421    1.104   .     S
C397   H422    1.110   .     S
C397   C398    1.530   .     S
C398   H417    1.111   .     S
C398   H419    1.111   .     S
C398   H418    1.109   .     S
C399   C400    1.533   .     S
C399   H427    1.109   .     S
C399   H426    1.107   .     S
C400   H424    1.108   .     S
C400   H423    1.111   .     S
C400   H425    1.111   .     S
C401   C403    1.391   .     A
C401   H433    1.080   .     S
C402   H409    1.082   .     S
C402   C1058   1.397   1_554 S
C403   H420    1.084   .     S
C403   C1060   1.397   .     S
C404   H434    1.083   .     S
C404   C226    1.401   1_655 S
C405   H410    1.083   .     S
C405   C594    1.383   .     S
C406   H411    1.083   .     S
C406   C225    1.401   1_655 S
C406   C626    1.383   .     S
Cu407  O444    1.938   .     S
Cu407  N435    2.013   .     S
Cu407  O440    1.965   .     S
Cu407  O441    1.948   .     S
Cu407  O437    1.965   .     S
Cu408  O438    1.965   .     S
Cu408  N436    2.013   .     S
Cu408  O439    1.965   .     S
Cu408  O442    1.948   .     S
Cu408  O443    1.938   .     S
Cu408  Cu259   2.679   1_655 S
H428   C239    1.083   1_655 S
O438   C234    1.292   1_655 S
O442   C232    1.295   1_655 S
C445   O513    1.292   .     A
C445   C522    1.450   .     S
C445   O585    1.292   .     S
C446   C448    1.401   .     A
C446   H486    1.083   .     S
C447   C456    1.450   .     S
C447   C479    1.401   .     A
C447   C628    1.401   1_455 S
C448   C593    1.450   1_455 S
C448   C626    1.401   1_455 S
C449   H487    1.080   .     S
C449   C451    1.416   .     A
C449   N510    1.367   .     A
C450   H488    1.082   .     S
C450   N509    1.367   .     A
C450   C452    1.417   .     A
C451   H489    1.082   .     S
C451   N509    1.367   .     A
C452   N510    1.367   .     A
C452   H490    1.082   .     S
C453   O517    1.297   .     A
C453   C455    1.477   .     S
C453   O589    1.299   .     S
C454   C457    1.465   .     S
C454   O518    1.294   .     A
C454   O664    1.295   1_455 S
C455   C462    1.416   .     A
C455   C460    1.405   .     A
C456   O514    1.292   .     A
C456   O660    1.292   1_455 S
C457   C463    1.413   .     A
C457   C461    1.401   .     A
C458   C460    1.393   .     A
C458   C466    1.399   .     A
C458   H578    1.080   .     S
C459   H505    1.084   .     S
C459   C468    1.398   .     A
C459   C461    1.390   .     A
C460   H577    1.083   .     S
C461   H650    1.083   1_455 S
C462   C473    1.534   .     S
C462   C464    1.414   .     A
C463   C465    1.420   .     A
C463   C471    1.534   .     S
C464   C469    1.413   .     A
C464   C466    1.414   .     A
C465   C470    1.416   .     A
C465   C468    1.418   .     A
C466   C1142   1.397   .     S
C467   C470    1.409   .     A
C467   H506    1.079   .     S
C467   C476    1.393   .     A
C468   C1143   1.397   1_554 S
C469   C475    1.408   .     A
C469   C1136   1.412   .     S
C470   C1135   1.412   1_554 S
C471   H495    1.104   .     S
C471   H496    1.110   .     S
C471   C472    1.530   .     S
C472   H491    1.111   .     S
C472   H493    1.111   .     S
C472   H492    1.109   .     S
C473   C474    1.533   .     S
C473   H501    1.109   .     S
C473   H500    1.107   .     S
C474   H498    1.108   .     S
C474   H497    1.111   .     S
C474   H499    1.111   .     S
C475   C477    1.391   .     A
C475   H507    1.080   .     S
C476   H483    1.082   .     S
C476   C1132   1.397   1_554 S
C477   H494    1.084   .     S
C477   C1134   1.397   .     S
C478   H508    1.083   .     S
C478   C522    1.401   .     S
C479   H484    1.083   .     S
C479   C2      1.383   1_565 S
C480   H485    1.083   .     S
C480   C521    1.401   .     S
C480   C34     1.383   1_565 S
Cu481  O518    1.938   .     S
Cu481  N509    2.013   .     S
Cu481  O514    1.965   .     S
Cu481  O515    1.948   .     S
Cu481  O511    1.965   .     S
Cu481  Cu630   2.679   1_455 S
Cu482  O512    1.965   .     S
Cu482  N510    2.013   .     S
Cu482  O513    1.965   .     S
Cu482  O516    1.948   .     S
Cu482  O517    1.938   .     S
Cu482  Cu555   2.679   .     S
H502   C535    1.083   .     S
H503   C608    1.083   1_455 S
H504   C606    1.080   1_455 S
O511   C593    1.292   1_455 S
O512   C530    1.292   .     S
O515   C601    1.299   1_455 S
O516   C528    1.295   .     S
C519   O587    1.292   .     A
C519   C596    1.450   .     S
C519   O659    1.292   .     S
C520   C522    1.401   .     A
C520   H560    1.083   .     S
C521   C530    1.450   .     S
C521   C553    1.401   .     A
C523   H561    1.080   .     S
C523   C525    1.416   .     A
C523   N584    1.367   .     A
C524   H562    1.082   .     S
C524   N583    1.367   .     A
C524   C526    1.417   .     A
C525   H563    1.082   .     S
C525   N583    1.367   .     A
C526   N584    1.367   .     A
C526   H564    1.082   .     S
C527   O591    1.297   .     A
C527   C529    1.477   .     S
C527   O663    1.299   .     S
C528   C531    1.465   .     S
C528   O592    1.294   .     A
C529   C536    1.416   .     A
C529   C534    1.405   .     A
C530   O588    1.292   .     A
C531   C537    1.413   .     A
C531   C535    1.401   .     A
C532   C534    1.393   .     A
C532   C540    1.399   .     A
C532   H652    1.080   .     S
C533   H579    1.084   .     S
C533   C542    1.398   .     A
C533   C535    1.390   .     A
C534   H651    1.083   .     S
C536   C547    1.534   .     S
C536   C538    1.414   .     A
C537   C539    1.420   .     A
C537   C545    1.534   .     S
C538   C543    1.413   .     A
C538   C540    1.414   .     A
C539   C544    1.416   .     A
C539   C542    1.418   .     A
C540   C1216   1.397   .     S
C541   C544    1.409   .     A
C541   H580    1.079   .     S
C541   C550    1.393   .     A
C542   C1217   1.397   1_554 S
C543   C549    1.408   .     A
C543   C1210   1.412   .     S
C544   C1209   1.412   1_554 S
C545   H569    1.104   .     S
C545   H570    1.110   .     S
C545   C546    1.530   .     S
C546   H565    1.111   .     S
C546   H567    1.111   .     S
C546   H566    1.109   .     S
C547   C548    1.533   .     S
C547   H575    1.109   .     S
C547   H574    1.107   .     S
C548   H572    1.108   .     S
C548   H571    1.111   .     S
C548   H573    1.111   .     S
C549   C551    1.391   .     A
C549   H581    1.080   .     S
C550   H557    1.082   .     S
C550   C1206   1.397   1_554 S
C551   H568    1.084   .     S
C551   C1208   1.397   .     S
C552   H582    1.083   .     S
C552   C596    1.401   .     S
C553   H558    1.083   .     S
C553   C76     1.383   1_565 S
C554   H559    1.083   .     S
C554   C595    1.401   .     S
C554   C108    1.383   1_565 S
Cu555  O592    1.938   .     S
Cu555  N583    2.013   .     S
Cu555  O588    1.965   .     S
Cu555  O589    1.948   .     S
Cu555  O585    1.965   .     S
Cu556  O586    1.965   .     S
Cu556  N584    2.013   .     S
Cu556  O587    1.965   .     S
Cu556  O590    1.948   .     S
Cu556  O591    1.938   .     S
Cu556  Cu629   2.679   .     S
H576   C609    1.083   .     S
O586   C604    1.292   .     S
O590   C602    1.295   .     S
C593   O661    1.292   .     A
C593   C448    1.450   1_655 S
C593   O511    1.292   1_655 S
C594   C596    1.401   .     A
C594   H634    1.083   .     S
C595   C604    1.450   .     S
C595   C627    1.401   .     A
C597   H635    1.080   .     S
C597   C599    1.416   .     A
C597   N658    1.367   .     A
C598   H636    1.082   .     S
C598   N657    1.367   .     A
C598   C600    1.417   .     A
C599   H637    1.082   .     S
C599   N657    1.367   .     A
C600   N658    1.367   .     A
C600   H638    1.082   .     S
C601   O665    1.297   .     A
C601   C603    1.477   .     S
C601   O515    1.299   1_655 S
C602   C605    1.465   .     S
C602   O666    1.294   .     A
C603   C610    1.416   .     A
C603   C608    1.405   .     A
C604   O662    1.292   .     A
C605   C611    1.413   .     A
C605   C609    1.401   .     A
C606   C608    1.393   .     A
C606   C614    1.399   .     A
C606   H504    1.080   1_655 S
C607   H653    1.084   .     S
C607   C616    1.398   .     A
C607   C609    1.390   .     A
C608   H503    1.083   1_655 S
C610   C621    1.534   .     S
C610   C612    1.414   .     A
C611   C613    1.420   .     A
C611   C619    1.534   .     S
C612   C617    1.413   .     A
C612   C614    1.414   .     A
C613   C618    1.416   .     A
C613   C616    1.418   .     A
C614   C1290   1.397   .     S
C615   C618    1.409   .     A
C615   H654    1.079   .     S
C615   C624    1.393   .     A
C616   C1291   1.397   1_554 S
C617   C623    1.408   .     A
C617   C1284   1.412   .     S
C618   C1283   1.412   1_554 S
C619   H643    1.104   .     S
C619   H644    1.110   .     S
C619   C620    1.530   .     S
C620   H639    1.111   .     S
C620   H641    1.111   .     S
C620   H640    1.109   .     S
C621   C622    1.533   .     S
C621   H649    1.109   .     S
C621   H648    1.107   .     S
C622   H646    1.108   .     S
C622   H645    1.111   .     S
C622   H647    1.111   .     S
C623   C625    1.391   .     A
C623   H655    1.080   .     S
C624   H631    1.082   .     S
C624   C1280   1.397   1_554 S
C625   H642    1.084   .     S
C625   C1282   1.397   .     S
C626   H656    1.083   .     S
C626   C448    1.401   1_655 S
C627   H632    1.083   .     S
C627   C150    1.383   1_565 S
C628   H633    1.083   .     S
C628   C447    1.401   1_655 S
C628   C182    1.383   1_565 S
Cu629  O666    1.938   .     S
Cu629  N657    2.013   .     S
Cu629  O662    1.965   .     S
Cu629  O663    1.948   .     S
Cu629  O659    1.965   .     S
Cu630  O660    1.965   .     S
Cu630  N658    2.013   .     S
Cu630  O661    1.965   .     S
Cu630  O664    1.948   .     S
Cu630  O665    1.938   .     S
Cu630  Cu481   2.679   1_655 S
H650   C461    1.083   1_655 S
O660   C456    1.292   1_655 S
O664   C454    1.295   1_655 S
C667   O735    1.292   .     A
C667   C744    1.450   .     S
C667   O807    1.292   .     S
C668   C670    1.401   .     A
C668   H708    1.083   .     S
C668   C1145   1.383   1_545 S
C669   C678    1.450   .     S
C669   C701    1.401   .     A
C669   C850    1.401   1_455 S
C670   C815    1.450   1_455 S
C670   C848    1.401   1_455 S
C671   H709    1.080   .     S
C671   C673    1.416   .     A
C671   N732    1.367   .     A
C672   H710    1.082   .     S
C672   N731    1.367   .     A
C672   C674    1.417   .     A
C673   H711    1.082   .     S
C673   N731    1.367   .     A
C674   N732    1.367   .     A
C674   H712    1.082   .     S
C675   O739    1.297   .     A
C675   C677    1.477   .     S
C675   O811    1.299   .     S
C676   C679    1.465   .     S
C676   O740    1.294   .     A
C676   O886    1.295   1_455 S
C677   C684    1.416   .     A
C677   C682    1.405   .     A
C678   O736    1.292   .     A
C678   O882    1.292   1_455 S
C679   C685    1.413   .     A
C679   C683    1.401   .     A
C680   C682    1.393   .     A
C680   C688    1.399   .     A
C680   H800    1.080   .     S
C681   H727    1.084   .     S
C681   C690    1.398   .     A
C681   C683    1.390   .     A
C682   H799    1.083   .     S
C683   H872    1.083   1_455 S
C684   C695    1.534   .     S
C684   C686    1.414   .     A
C685   C687    1.420   .     A
C685   C693    1.534   .     S
C686   C691    1.413   .     A
C686   C688    1.414   .     A
C687   C692    1.416   .     A
C687   C690    1.418   .     A
C688   C32     1.397   1_556 S
C689   C692    1.409   .     A
C689   H728    1.079   .     S
C689   C698    1.393   .     A
C691   C697    1.408   .     A
C691   C26     1.412   1_556 S
C693   H717    1.104   .     S
C693   H718    1.110   .     S
C693   C694    1.530   .     S
C694   H713    1.111   .     S
C694   H715    1.111   .     S
C694   H714    1.109   .     S
C695   C696    1.533   .     S
C695   H723    1.109   .     S
C695   H722    1.107   .     S
C696   H720    1.108   .     S
C696   H719    1.111   .     S
C696   H721    1.111   .     S
C697   C699    1.391   .     A
C697   H729    1.080   .     S
C698   H705    1.082   .     S
C699   H716    1.084   .     S
C699   C24     1.397   1_556 S
C700   H730    1.083   .     S
C700   C744    1.401   .     S
C700   C1146   1.383   1_545 S
C701   H706    1.083   .     S
C701   C890    1.383   .     S
C702   H707    1.083   .     S
C702   C743    1.401   .     S
C702   C922    1.383   .     S
Cu703  O740    1.938   .     S
Cu703  N731    2.013   .     S
Cu703  O736    1.965   .     S
Cu703  O737    1.948   .     S
Cu703  O733    1.965   .     S
Cu703  Cu852   2.679   1_455 S
Cu704  O734    1.965   .     S
Cu704  N732    2.013   .     S
Cu704  O735    1.965   .     S
Cu704  O738    1.948   .     S
Cu704  O739    1.938   .     S
Cu704  Cu777   2.679   .     S
H724   C757    1.083   .     S
H725   C830    1.083   1_455 S
H726   C828    1.080   1_455 S
O733   C815    1.292   1_455 S
O734   C752    1.292   .     S
O737   C823    1.299   1_455 S
O738   C750    1.295   .     S
C741   O809    1.292   .     A
C741   C818    1.450   .     S
C741   O881    1.292   .     S
C742   C744    1.401   .     A
C742   H782    1.083   .     S
C742   C1219   1.383   1_545 S
C743   C752    1.450   .     S
C743   C775    1.401   .     A
C745   H783    1.080   .     S
C745   C747    1.416   .     A
C745   N806    1.367   .     A
C746   H784    1.082   .     S
C746   N805    1.367   .     A
C746   C748    1.417   .     A
C747   H785    1.082   .     S
C747   N805    1.367   .     A
C748   N806    1.367   .     A
C748   H786    1.082   .     S
C749   O813    1.297   .     A
C749   C751    1.477   .     S
C749   O885    1.299   .     S
C750   C753    1.465   .     S
C750   O814    1.294   .     A
C751   C758    1.416   .     A
C751   C756    1.405   .     A
C752   O810    1.292   .     A
C753   C759    1.413   .     A
C753   C757    1.401   .     A
C754   C756    1.393   .     A
C754   C762    1.399   .     A
C754   H874    1.080   .     S
C755   H801    1.084   .     S
C755   C764    1.398   .     A
C755   C757    1.390   .     A
C756   H873    1.083   .     S
C758   C769    1.534   .     S
C758   C760    1.414   .     A
C759   C761    1.420   .     A
C759   C767    1.534   .     S
C760   C765    1.413   .     A
C760   C762    1.414   .     A
C761   C766    1.416   .     A
C761   C764    1.418   .     A
C762   C106    1.397   1_556 S
C763   C766    1.409   .     A
C763   H802    1.079   .     S
C763   C772    1.393   .     A
C765   C771    1.408   .     A
C765   C100    1.412   1_556 S
C767   H791    1.104   .     S
C767   H792    1.110   .     S
C767   C768    1.530   .     S
C768   H787    1.111   .     S
C768   H789    1.111   .     S
C768   H788    1.109   .     S
C769   C770    1.533   .     S
C769   H797    1.109   .     S
C769   H796    1.107   .     S
C770   H794    1.108   .     S
C770   H793    1.111   .     S
C770   H795    1.111   .     S
C771   C773    1.391   .     A
C771   H803    1.080   .     S
C772   H779    1.082   .     S
C773   H790    1.084   .     S
C773   C98     1.397   1_556 S
C774   H804    1.083   .     S
C774   C818    1.401   .     S
C774   C1220   1.383   1_545 S
C775   H780    1.083   .     S
C775   C964    1.383   .     S
C776   H781    1.083   .     S
C776   C817    1.401   .     S
C776   C996    1.383   .     S
Cu777  O814    1.938   .     S
Cu777  N805    2.013   .     S
Cu777  O810    1.965   .     S
Cu777  O811    1.948   .     S
Cu777  O807    1.965   .     S
Cu778  O808    1.965   .     S
Cu778  N806    2.013   .     S
Cu778  O809    1.965   .     S
Cu778  O812    1.948   .     S
Cu778  O813    1.938   .     S
Cu778  Cu851   2.679   .     S
H798   C831    1.083   .     S
O808   C826    1.292   .     S
O812   C824    1.295   .     S
C815   O883    1.292   .     A
C815   C670    1.450   1_655 S
C815   O733    1.292   1_655 S
C816   C818    1.401   .     A
C816   H856    1.083   .     S
C816   C1293   1.383   1_545 S
C817   C826    1.450   .     S
C817   C849    1.401   .     A
C819   H857    1.080   .     S
C819   C821    1.416   .     A
C819   N880    1.367   .     A
C820   H858    1.082   .     S
C820   N879    1.367   .     A
C820   C822    1.417   .     A
C821   H859    1.082   .     S
C821   N879    1.367   .     A
C822   N880    1.367   .     A
C822   H860    1.082   .     S
C823   O887    1.297   .     A
C823   C825    1.477   .     S
C823   O737    1.299   1_655 S
C824   C827    1.465   .     S
C824   O888    1.294   .     A
C825   C832    1.416   .     A
C825   C830    1.405   .     A
C826   O884    1.292   .     A
C827   C833    1.413   .     A
C827   C831    1.401   .     A
C828   C830    1.393   .     A
C828   C836    1.399   .     A
C828   H726    1.080   1_655 S
C829   H875    1.084   .     S
C829   C838    1.398   .     A
C829   C831    1.390   .     A
C830   H725    1.083   1_655 S
C832   C843    1.534   .     S
C832   C834    1.414   .     A
C833   C835    1.420   .     A
C833   C841    1.534   .     S
C834   C839    1.413   .     A
C834   C836    1.414   .     A
C835   C840    1.416   .     A
C835   C838    1.418   .     A
C836   C180    1.397   1_556 S
C837   C840    1.409   .     A
C837   H876    1.079   .     S
C837   C846    1.393   .     A
C839   C845    1.408   .     A
C839   C174    1.412   1_556 S
C841   H865    1.104   .     S
C841   H866    1.110   .     S
C841   C842    1.530   .     S
C842   H861    1.111   .     S
C842   H863    1.111   .     S
C842   H862    1.109   .     S
C843   C844    1.533   .     S
C843   H871    1.109   .     S
C843   H870    1.107   .     S
C844   H868    1.108   .     S
C844   H867    1.111   .     S
C844   H869    1.111   .     S
C845   C847    1.391   .     A
C845   H877    1.080   .     S
C846   H853    1.082   .     S
C847   H864    1.084   .     S
C847   C172    1.397   1_556 S
C848   H878    1.083   .     S
C848   C670    1.401   1_655 S
C848   C1294   1.383   1_545 S
C849   H854    1.083   .     S
C849   C1038   1.383   .     S
C850   H855    1.083   .     S
C850   C669    1.401   1_655 S
C850   C1070   1.383   .     S
Cu851  O888    1.938   .     S
Cu851  N879    2.013   .     S
Cu851  O884    1.965   .     S
Cu851  O885    1.948   .     S
Cu851  O881    1.965   .     S
Cu852  O882    1.965   .     S
Cu852  N880    2.013   .     S
Cu852  O883    1.965   .     S
Cu852  O886    1.948   .     S
Cu852  O887    1.938   .     S
Cu852  Cu703   2.679   1_655 S
H872   C683    1.083   1_655 S
O882   C678    1.292   1_655 S
O886   C676    1.295   1_655 S
C889   O957    1.292   .     A
C889   C966    1.450   .     S
C889   O1029   1.292   .     S
C890   C892    1.401   .     A
C890   H930    1.083   .     S
C891   C900    1.450   .     S
C891   C923    1.401   .     A
C891   C1072   1.401   1_455 S
C892   C1037   1.450   1_455 S
C892   C1070   1.401   1_455 S
C893   H931    1.080   .     S
C893   C895    1.416   .     A
C893   N954    1.367   .     A
C894   H932    1.082   .     S
C894   N953    1.367   .     A
C894   C896    1.417   .     A
C895   H933    1.082   .     S
C895   N953    1.367   .     A
C896   N954    1.367   .     A
C896   H934    1.082   .     S
C897   O961    1.297   .     A
C897   C899    1.477   .     S
C897   O1033   1.299   .     S
C898   C901    1.465   .     S
C898   O962    1.294   .     A
C898   O1108   1.295   1_455 S
C899   C906    1.416   .     A
C899   C904    1.405   .     A
C900   O958    1.292   .     A
C900   O1104   1.292   1_455 S
C901   C907    1.413   .     A
C901   C905    1.401   .     A
C902   C904    1.393   .     A
C902   C910    1.399   .     A
C902   H1022   1.080   .     S
C903   H949    1.084   .     S
C903   C912    1.398   .     A
C903   C905    1.390   .     A
C904   H1021   1.083   .     S
C905   H1094   1.083   1_455 S
C906   C917    1.534   .     S
C906   C908    1.414   .     A
C907   C909    1.420   .     A
C907   C915    1.534   .     S
C908   C913    1.413   .     A
C908   C910    1.414   .     A
C909   C914    1.416   .     A
C909   C912    1.418   .     A
C910   C254    1.397   1_556 S
C911   C914    1.409   .     A
C911   H950    1.079   .     S
C911   C920    1.393   .     A
C913   C919    1.408   .     A
C913   C248    1.412   1_556 S
C915   H939    1.104   .     S
C915   H940    1.110   .     S
C915   C916    1.530   .     S
C916   H935    1.111   .     S
C916   H937    1.111   .     S
C916   H936    1.109   .     S
C917   C918    1.533   .     S
C917   H945    1.109   .     S
C917   H944    1.107   .     S
C918   H942    1.108   .     S
C918   H941    1.111   .     S
C918   H943    1.111   .     S
C919   C921    1.391   .     A
C919   H951    1.080   .     S
C920   H927    1.082   .     S
C921   H938    1.084   .     S
C921   C246    1.397   1_556 S
C922   H952    1.083   .     S
C922   C966    1.401   .     S
C923   H928    1.083   .     S
C923   C1112   1.383   .     S
C924   H929    1.083   .     S
C924   C965    1.401   .     S
C924   C1144   1.383   .     S
Cu925  O962    1.938   .     S
Cu925  N953    2.013   .     S
Cu925  O958    1.965   .     S
Cu925  O959    1.948   .     S
Cu925  O955    1.965   .     S
Cu925  Cu1074  2.679   1_455 S
Cu926  O956    1.965   .     S
Cu926  N954    2.013   .     S
Cu926  O957    1.965   .     S
Cu926  O960    1.948   .     S
Cu926  O961    1.938   .     S
Cu926  Cu999   2.679   .     S
H946   C979    1.083   .     S
H947   C1052   1.083   1_455 S
H948   C1050   1.080   1_455 S
O955   C1037   1.292   1_455 S
O956   C974    1.292   .     S
O959   C1045   1.299   1_455 S
O960   C972    1.295   .     S
C963   O1031   1.292   .     A
C963   C1040   1.450   .     S
C963   O1103   1.292   .     S
C964   C966    1.401   .     A
C964   H1004   1.083   .     S
C965   C974    1.450   .     S
C965   C997    1.401   .     A
C967   H1005   1.080   .     S
C967   C969    1.416   .     A
C967   N1028   1.367   .     A
C968   H1006   1.082   .     S
C968   N1027   1.367   .     A
C968   C970    1.417   .     A
C969   H1007   1.082   .     S
C969   N1027   1.367   .     A
C970   N1028   1.367   .     A
C970   H1008   1.082   .     S
C971   O1035   1.297   .     A
C971   C973    1.477   .     S
C971   O1107   1.299   .     S
C972   C975    1.465   .     S
C972   O1036   1.294   .     A
C973   C980    1.416   .     A
C973   C978    1.405   .     A
C974   O1032   1.292   .     A
C975   C981    1.413   .     A
C975   C979    1.401   .     A
C976   C978    1.393   .     A
C976   C984    1.399   .     A
C976   H1096   1.080   .     S
C977   H1023   1.084   .     S
C977   C986    1.398   .     A
C977   C979    1.390   .     A
C978   H1095   1.083   .     S
C980   C991    1.534   .     S
C980   C982    1.414   .     A
C981   C983    1.420   .     A
C981   C989    1.534   .     S
C982   C987    1.413   .     A
C982   C984    1.414   .     A
C983   C988    1.416   .     A
C983   C986    1.418   .     A
C984   C328    1.397   1_556 S
C985   C988    1.409   .     A
C985   H1024   1.079   .     S
C985   C994    1.393   .     A
C987   C993    1.408   .     A
C987   C322    1.412   1_556 S
C989   H1013   1.104   .     S
C989   H1014   1.110   .     S
C989   C990    1.530   .     S
C990   H1009   1.111   .     S
C990   H1011   1.111   .     S
C990   H1010   1.109   .     S
C991   C992    1.533   .     S
C991   H1019   1.109   .     S
C991   H1018   1.107   .     S
C992   H1016   1.108   .     S
C992   H1015   1.111   .     S
C992   H1017   1.111   .     S
C993   C995    1.391   .     A
C993   H1025   1.080   .     S
C994   H1001   1.082   .     S
C995   H1012   1.084   .     S
C995   C320    1.397   1_556 S
C996   H1026   1.083   .     S
C996   C1040   1.401   .     S
C997   H1002   1.083   .     S
C997   C1186   1.383   .     S
C998   H1003   1.083   .     S
C998   C1039   1.401   .     S
C998   C1218   1.383   .     S
Cu999  O1036   1.938   .     S
Cu999  N1027   2.013   .     S
Cu999  O1032   1.965   .     S
Cu999  O1033   1.948   .     S
Cu999  O1029   1.965   .     S
Cu1000 O1030   1.965   .     S
Cu1000 N1028   2.013   .     S
Cu1000 O1031   1.965   .     S
Cu1000 O1034   1.948   .     S
Cu1000 O1035   1.938   .     S
Cu1000 Cu1073  2.679   .     S
H1020  C1053   1.083   .     S
O1030  C1048   1.292   .     S
O1034  C1046   1.295   .     S
C1037  O1105   1.292   .     A
C1037  C892    1.450   1_655 S
C1037  O955    1.292   1_655 S
C1038  C1040   1.401   .     A
C1038  H1078   1.083   .     S
C1039  C1048   1.450   .     S
C1039  C1071   1.401   .     A
C1041  H1079   1.080   .     S
C1041  C1043   1.416   .     A
C1041  N1102   1.367   .     A
C1042  H1080   1.082   .     S
C1042  N1101   1.367   .     A
C1042  C1044   1.417   .     A
C1043  H1081   1.082   .     S
C1043  N1101   1.367   .     A
C1044  N1102   1.367   .     A
C1044  H1082   1.082   .     S
C1045  O1109   1.297   .     A
C1045  C1047   1.477   .     S
C1045  O959    1.299   1_655 S
C1046  C1049   1.465   .     S
C1046  O1110   1.294   .     A
C1047  C1054   1.416   .     A
C1047  C1052   1.405   .     A
C1048  O1106   1.292   .     A
C1049  C1055   1.413   .     A
C1049  C1053   1.401   .     A
C1050  C1052   1.393   .     A
C1050  C1058   1.399   .     A
C1050  H948    1.080   1_655 S
C1051  H1097   1.084   .     S
C1051  C1060   1.398   .     A
C1051  C1053   1.390   .     A
C1052  H947    1.083   1_655 S
C1054  C1065   1.534   .     S
C1054  C1056   1.414   .     A
C1055  C1057   1.420   .     A
C1055  C1063   1.534   .     S
C1056  C1061   1.413   .     A
C1056  C1058   1.414   .     A
C1057  C1062   1.416   .     A
C1057  C1060   1.418   .     A
C1058  C402    1.397   1_556 S
C1059  C1062   1.409   .     A
C1059  H1098   1.079   .     S
C1059  C1068   1.393   .     A
C1061  C1067   1.408   .     A
C1061  C396    1.412   1_556 S
C1063  H1087   1.104   .     S
C1063  H1088   1.110   .     S
C1063  C1064   1.530   .     S
C1064  H1083   1.111   .     S
C1064  H1085   1.111   .     S
C1064  H1084   1.109   .     S
C1065  C1066   1.533   .     S
C1065  H1093   1.109   .     S
C1065  H1092   1.107   .     S
C1066  H1090   1.108   .     S
C1066  H1089   1.111   .     S
C1066  H1091   1.111   .     S
C1067  C1069   1.391   .     A
C1067  H1099   1.080   .     S
C1068  H1075   1.082   .     S
C1069  H1086   1.084   .     S
C1069  C394    1.397   1_556 S
C1070  H1100   1.083   .     S
C1070  C892    1.401   1_655 S
C1071  H1076   1.083   .     S
C1071  C1260   1.383   .     S
C1072  H1077   1.083   .     S
C1072  C891    1.401   1_655 S
C1072  C1292   1.383   .     S
Cu1073 O1110   1.938   .     S
Cu1073 N1101   2.013   .     S
Cu1073 O1106   1.965   .     S
Cu1073 O1107   1.948   .     S
Cu1073 O1103   1.965   .     S
Cu1074 O1104   1.965   .     S
Cu1074 N1102   2.013   .     S
Cu1074 O1105   1.965   .     S
Cu1074 O1108   1.948   .     S
Cu1074 O1109   1.938   .     S
Cu1074 Cu925   2.679   1_655 S
H1094  C905    1.083   1_655 S
O1104  C900    1.292   1_655 S
O1108  C898    1.295   1_655 S
C1111  O1179   1.292   .     A
C1111  C1188   1.450   .     S
C1111  O1251   1.292   .     S
C1112  C1114   1.401   .     A
C1112  H1152   1.083   .     S
C1113  C1122   1.450   .     S
C1113  C1145   1.401   .     A
C1113  C1294   1.401   1_455 S
C1114  C1259   1.450   1_455 S
C1114  C1292   1.401   1_455 S
C1115  H1153   1.080   .     S
C1115  C1117   1.416   .     A
C1115  N1176   1.367   .     A
C1116  H1154   1.082   .     S
C1116  N1175   1.367   .     A
C1116  C1118   1.417   .     A
C1117  H1155   1.082   .     S
C1117  N1175   1.367   .     A
C1118  N1176   1.367   .     A
C1118  H1156   1.082   .     S
C1119  O1183   1.297   .     A
C1119  C1121   1.477   .     S
C1119  O1255   1.299   .     S
C1120  C1123   1.465   .     S
C1120  O1184   1.294   .     A
C1120  O1330   1.295   1_455 S
C1121  C1128   1.416   .     A
C1121  C1126   1.405   .     A
C1122  O1180   1.292   .     A
C1122  O1326   1.292   1_455 S
C1123  C1129   1.413   .     A
C1123  C1127   1.401   .     A
C1124  C1126   1.393   .     A
C1124  C1132   1.399   .     A
C1124  H1244   1.080   .     S
C1125  H1171   1.084   .     S
C1125  C1134   1.398   .     A
C1125  C1127   1.390   .     A
C1126  H1243   1.083   .     S
C1127  H1316   1.083   1_455 S
C1128  C1139   1.534   .     S
C1128  C1130   1.414   .     A
C1129  C1131   1.420   .     A
C1129  C1137   1.534   .     S
C1130  C1135   1.413   .     A
C1130  C1132   1.414   .     A
C1131  C1136   1.416   .     A
C1131  C1134   1.418   .     A
C1132  C476    1.397   1_556 S
C1133  C1136   1.409   .     A
C1133  H1172   1.079   .     S
C1133  C1142   1.393   .     A
C1135  C1141   1.408   .     A
C1135  C470    1.412   1_556 S
C1137  H1161   1.104   .     S
C1137  H1162   1.110   .     S
C1137  C1138   1.530   .     S
C1138  H1157   1.111   .     S
C1138  H1159   1.111   .     S
C1138  H1158   1.109   .     S
C1139  C1140   1.533   .     S
C1139  H1167   1.109   .     S
C1139  H1166   1.107   .     S
C1140  H1164   1.108   .     S
C1140  H1163   1.111   .     S
C1140  H1165   1.111   .     S
C1141  C1143   1.391   .     A
C1141  H1173   1.080   .     S
C1142  H1149   1.082   .     S
C1143  H1160   1.084   .     S
C1143  C468    1.397   1_556 S
C1144  H1174   1.083   .     S
C1144  C1188   1.401   .     S
C1145  H1150   1.083   .     S
C1145  C668    1.383   1_565 S
C1146  H1151   1.083   .     S
C1146  C1187   1.401   .     S
C1146  C700    1.383   1_565 S
Cu1147 O1184   1.938   .     S
Cu1147 N1175   2.013   .     S
Cu1147 O1180   1.965   .     S
Cu1147 O1181   1.948   .     S
Cu1147 O1177   1.965   .     S
Cu1147 Cu1296  2.679   1_455 S
Cu1148 O1178   1.965   .     S
Cu1148 N1176   2.013   .     S
Cu1148 O1179   1.965   .     S
Cu1148 O1182   1.948   .     S
Cu1148 O1183   1.938   .     S
Cu1148 Cu1221  2.679   .     S
H1168  C1201   1.083   .     S
H1169  C1274   1.083   1_455 S
H1170  C1272   1.080   1_455 S
O1177  C1259   1.292   1_455 S
O1178  C1196   1.292   .     S
O1181  C1267   1.299   1_455 S
O1182  C1194   1.295   .     S
C1185  O1253   1.292   .     A
C1185  C1262   1.450   .     S
C1185  O1325   1.292   .     S
C1186  C1188   1.401   .     A
C1186  H1226   1.083   .     S
C1187  C1196   1.450   .     S
C1187  C1219   1.401   .     A
C1189  H1227   1.080   .     S
C1189  C1191   1.416   .     A
C1189  N1250   1.367   .     A
C1190  H1228   1.082   .     S
C1190  N1249   1.367   .     A
C1190  C1192   1.417   .     A
C1191  H1229   1.082   .     S
C1191  N1249   1.367   .     A
C1192  N1250   1.367   .     A
C1192  H1230   1.082   .     S
C1193  O1257   1.297   .     A
C1193  C1195   1.477   .     S
C1193  O1329   1.299   .     S
C1194  C1197   1.465   .     S
C1194  O1258   1.294   .     A
C1195  C1202   1.416   .     A
C1195  C1200   1.405   .     A
C1196  O1254   1.292   .     A
C1197  C1203   1.413   .     A
C1197  C1201   1.401   .     A
C1198  C1200   1.393   .     A
C1198  C1206   1.399   .     A
C1198  H1318   1.080   .     S
C1199  H1245   1.084   .     S
C1199  C1208   1.398   .     A
C1199  C1201   1.390   .     A
C1200  H1317   1.083   .     S
C1202  C1213   1.534   .     S
C1202  C1204   1.414   .     A
C1203  C1205   1.420   .     A
C1203  C1211   1.534   .     S
C1204  C1209   1.413   .     A
C1204  C1206   1.414   .     A
C1205  C1210   1.416   .     A
C1205  C1208   1.418   .     A
C1206  C550    1.397   1_556 S
C1207  C1210   1.409   .     A
C1207  H1246   1.079   .     S
C1207  C1216   1.393   .     A
C1209  C1215   1.408   .     A
C1209  C544    1.412   1_556 S
C1211  H1235   1.104   .     S
C1211  H1236   1.110   .     S
C1211  C1212   1.530   .     S
C1212  H1231   1.111   .     S
C1212  H1233   1.111   .     S
C1212  H1232   1.109   .     S
C1213  C1214   1.533   .     S
C1213  H1241   1.109   .     S
C1213  H1240   1.107   .     S
C1214  H1238   1.108   .     S
C1214  H1237   1.111   .     S
C1214  H1239   1.111   .     S
C1215  C1217   1.391   .     A
C1215  H1247   1.080   .     S
C1216  H1223   1.082   .     S
C1217  H1234   1.084   .     S
C1217  C542    1.397   1_556 S
C1218  H1248   1.083   .     S
C1218  C1262   1.401   .     S
C1219  H1224   1.083   .     S
C1219  C742    1.383   1_565 S
C1220  H1225   1.083   .     S
C1220  C1261   1.401   .     S
C1220  C774    1.383   1_565 S
Cu1221 O1258   1.938   .     S
Cu1221 N1249   2.013   .     S
Cu1221 O1254   1.965   .     S
Cu1221 O1255   1.948   .     S
Cu1221 O1251   1.965   .     S
Cu1222 O1252   1.965   .     S
Cu1222 N1250   2.013   .     S
Cu1222 O1253   1.965   .     S
Cu1222 O1256   1.948   .     S
Cu1222 O1257   1.938   .     S
Cu1222 Cu1295  2.679   .     S
H1242  C1275   1.083   .     S
O1252  C1270   1.292   .     S
O1256  C1268   1.295   .     S
C1259  O1327   1.292   .     A
C1259  C1114   1.450   1_655 S
C1259  O1177   1.292   1_655 S
C1260  C1262   1.401   .     A
C1260  H1300   1.083   .     S
C1261  C1270   1.450   .     S
C1261  C1293   1.401   .     A
C1263  H1301   1.080   .     S
C1263  C1265   1.416   .     A
C1263  N1324   1.367   .     A
C1264  H1302   1.082   .     S
C1264  N1323   1.367   .     A
C1264  C1266   1.417   .     A
C1265  H1303   1.082   .     S
C1265  N1323   1.367   .     A
C1266  N1324   1.367   .     A
C1266  H1304   1.082   .     S
C1267  O1331   1.297   .     A
C1267  C1269   1.477   .     S
C1267  O1181   1.299   1_655 S
C1268  C1271   1.465   .     S
C1268  O1332   1.294   .     A
C1269  C1276   1.416   .     A
C1269  C1274   1.405   .     A
C1270  O1328   1.292   .     A
C1271  C1277   1.413   .     A
C1271  C1275   1.401   .     A
C1272  C1274   1.393   .     A
C1272  C1280   1.399   .     A
C1272  H1170   1.080   1_655 S
C1273  H1319   1.084   .     S
C1273  C1282   1.398   .     A
C1273  C1275   1.390   .     A
C1274  H1169   1.083   1_655 S
C1276  C1287   1.534   .     S
C1276  C1278   1.414   .     A
C1277  C1279   1.420   .     A
C1277  C1285   1.534   .     S
C1278  C1283   1.413   .     A
C1278  C1280   1.414   .     A
C1279  C1284   1.416   .     A
C1279  C1282   1.418   .     A
C1280  C624    1.397   1_556 S
C1281  C1284   1.409   .     A
C1281  H1320   1.079   .     S
C1281  C1290   1.393   .     A
C1283  C1289   1.408   .     A
C1283  C618    1.412   1_556 S
C1285  H1309   1.104   .     S
C1285  H1310   1.110   .     S
C1285  C1286   1.530   .     S
C1286  H1305   1.111   .     S
C1286  H1307   1.111   .     S
C1286  H1306   1.109   .     S
C1287  C1288   1.533   .     S
C1287  H1315   1.109   .     S
C1287  H1314   1.107   .     S
C1288  H1312   1.108   .     S
C1288  H1311   1.111   .     S
C1288  H1313   1.111   .     S
C1289  C1291   1.391   .     A
C1289  H1321   1.080   .     S
C1290  H1297   1.082   .     S
C1291  H1308   1.084   .     S
C1291  C616    1.397   1_556 S
C1292  H1322   1.083   .     S
C1292  C1114   1.401   1_655 S
C1293  H1298   1.083   .     S
C1293  C816    1.383   1_565 S
C1294  H1299   1.083   .     S
C1294  C1113   1.401   1_655 S
C1294  C848    1.383   1_565 S
Cu1295 O1332   1.938   .     S
Cu1295 N1323   2.013   .     S
Cu1295 O1328   1.965   .     S
Cu1295 O1329   1.948   .     S
Cu1295 O1325   1.965   .     S
Cu1296 O1326   1.965   .     S
Cu1296 N1324   2.013   .     S
Cu1296 O1327   1.965   .     S
Cu1296 O1330   1.948   .     S
Cu1296 O1331   1.938   .     S
Cu1296 Cu1147  2.679   1_655 S
H1316  C1127   1.083   1_655 S
O1326  C1122   1.292   1_655 S
O1330  C1120   1.295   1_655 S
