data_str_m2_o10_o16_pcu_sym.18
_audit_creation_date              2020-01-03
_audit_creation_method            'Materials Studio'
_symmetry_space_group_name_H-M    'P1'
_symmetry_Int_Tables_number       1
_symmetry_cell_setting            triclinic
loop_
_symmetry_equiv_pos_as_xyz
  x,y,z
_cell_length_a                    22.5085
_cell_length_b                    26.0524
_cell_length_c                    26.7128
_cell_angle_alpha                 93.9904
_cell_angle_beta                  78.3526
_cell_angle_gamma                 103.1149
loop_
_atom_site_label
_atom_site_type_symbol
_atom_site_fract_x
_atom_site_fract_y
_atom_site_fract_z
_atom_site_U_iso_or_equiv
_atom_site_adp_type
_atom_site_occupancy
C1     C     0.18165   0.26665   0.25176   0.00000  Uiso   1.00
C2     C     0.11499   0.13404   0.39846   0.00000  Uiso   1.00
C3     C     0.18994   0.32269   0.25285   0.00000  Uiso   1.00
C4     C     0.13325   0.15493   0.34560   0.00000  Uiso   1.00
C5     C     0.14314   0.01067   0.24798   0.00000  Uiso   1.00
C6     C     0.15160   0.06668   0.24849   0.00000  Uiso   1.00
C7     C     0.19980   0.17012   0.15302   0.00000  Uiso   1.00
C8     C     0.29477   0.19099   0.01971   0.00000  Uiso   1.00
C9     C     0.21794   0.17144   0.09717   0.00000  Uiso   1.00
C10    C     0.05367   0.11021   0.41821   0.00000  Uiso   1.00
C11    C     0.03461   0.09993   0.47026   0.00000  Uiso   1.00
C12    C     0.14008   0.13546   0.48368   0.00000  Uiso   1.00
C13    C     0.07637   0.11556   0.00337   0.00000  Uiso   1.00
C14    C     0.23859   0.09535   0.37011   0.00000  Uiso   1.00
C15    C     0.23258   0.04299   0.39529   0.00000  Uiso   1.00
C16    C     0.15937   0.13665   0.42998   0.00000  Uiso   1.00
C17    C     0.18604   0.15283   0.01446   0.00000  Uiso   1.00
C18    C     0.24908   0.17070   0.49041   0.00000  Uiso   1.00
C19    C     0.26645   0.16319   0.43774   0.00000  Uiso   1.00
C20    C     0.22216   0.13728   0.40969   0.00000  Uiso   1.00
C21    C     0.17164   0.15375   0.06794   0.00000  Uiso   1.00
C22    C     0.27945   0.19065   0.07289   0.00000  Uiso   1.00
Cu23   Cu    0.10710   0.16105   0.24436   0.00000  Uiso   1.00
Cu24   Cu    0.22623   0.17228   0.25564   0.00000  Uiso   1.00
H25    H     0.31555   0.20518   0.09494   0.00000  Uiso   1.00
H26    H     0.31993   0.08238   0.48567   0.00000  Uiso   1.00
H27    H     0.23497   0.01317   0.25752   0.00000  Uiso   1.00
H28    H     0.25825   0.04809   0.42709   0.00000  Uiso   1.00
H29    H     0.18289   0.02581   0.41085   0.00000  Uiso   1.00
H30    H     0.25094   0.01482   0.36645   0.00000  Uiso   1.00
H31    H     0.20603   0.08582   0.34340   0.00000  Uiso   1.00
H32    H     0.28578   0.10892   0.34697   0.00000  Uiso   1.00
H33    H     0.09806   0.32019   0.24343   0.00000  Uiso   1.00
H34    H     0.00356   0.20616   0.28978   0.00000  Uiso   1.00
H35    H     0.32970   0.12705   0.21034   0.00000  Uiso   1.00
H36    H     0.31472   0.17320   0.41939   0.00000  Uiso   1.00
H37    H     0.00949   0.20513   0.00144   0.00000  Uiso   1.00
H38    H     0.12457   0.14016   0.08773   0.00000  Uiso   1.00
H39    H     0.02097   0.09994   0.39310   0.00000  Uiso   1.00
H40    H     0.05772   0.10989   0.04352   0.00000  Uiso   1.00
N41    N     0.31574   0.18074   0.26416   0.00000  Uiso   1.00
N42    N     0.01759   0.15259   0.23584   0.00000  Uiso   1.00
O43    O     0.12797   0.23807   0.24633   0.00000  Uiso   1.00
O44    O     0.22858   0.24755   0.25586   0.00000  Uiso   1.00
O45    O     0.09181   0.15960   0.31840   0.00000  Uiso   1.00
O46    O     0.19242   0.16908   0.32793   0.00000  Uiso   1.00
O47    O     0.10476   0.08578   0.24414   0.00000  Uiso   1.00
O48    O     0.20536   0.09526   0.25367   0.00000  Uiso   1.00
O49    O     0.14092   0.16425   0.17207   0.00000  Uiso   1.00
O50    O     0.24152   0.17373   0.18160   0.00000  Uiso   1.00
C51    C     0.51498   0.26665   0.25176   0.00000  Uiso   1.00
C52    C     0.44832   0.13404   0.39846   0.00000  Uiso   1.00
C53    C     0.52327   0.32269   0.25285   0.00000  Uiso   1.00
C54    C     0.46658   0.15493   0.34560   0.00000  Uiso   1.00
C55    C     0.47647   0.01067   0.24798   0.00000  Uiso   1.00
C56    C     0.48493   0.06668   0.24849   0.00000  Uiso   1.00
C57    C     0.53314   0.17012   0.15302   0.00000  Uiso   1.00
C58    C     0.62811   0.19099   0.01971   0.00000  Uiso   1.00
C59    C     0.55128   0.17144   0.09717   0.00000  Uiso   1.00
C60    C     0.38700   0.11021   0.41821   0.00000  Uiso   1.00
C61    C     0.36794   0.09993   0.47026   0.00000  Uiso   1.00
C62    C     0.47342   0.13546   0.48368   0.00000  Uiso   1.00
C63    C     0.40970   0.11556   0.00337   0.00000  Uiso   1.00
C64    C     0.57193   0.09535   0.37011   0.00000  Uiso   1.00
C65    C     0.56591   0.04299   0.39529   0.00000  Uiso   1.00
C66    C     0.49270   0.13665   0.42998   0.00000  Uiso   1.00
C67    C     0.51938   0.15283   0.01446   0.00000  Uiso   1.00
C68    C     0.58241   0.17070   0.49041   0.00000  Uiso   1.00
C69    C     0.59979   0.16319   0.43774   0.00000  Uiso   1.00
C70    C     0.55549   0.13728   0.40969   0.00000  Uiso   1.00
C71    C     0.50498   0.15375   0.06794   0.00000  Uiso   1.00
C72    C     0.61278   0.19065   0.07289   0.00000  Uiso   1.00
Cu73   Cu    0.44043   0.16105   0.24436   0.00000  Uiso   1.00
Cu74   Cu    0.55957   0.17228   0.25564   0.00000  Uiso   1.00
H75    H     0.64889   0.20518   0.09494   0.00000  Uiso   1.00
H76    H     0.65326   0.08238   0.48567   0.00000  Uiso   1.00
H77    H     0.56831   0.01317   0.25752   0.00000  Uiso   1.00
H78    H     0.59158   0.04809   0.42709   0.00000  Uiso   1.00
H79    H     0.51622   0.02581   0.41085   0.00000  Uiso   1.00
H80    H     0.58427   0.01482   0.36645   0.00000  Uiso   1.00
H81    H     0.53937   0.08582   0.34340   0.00000  Uiso   1.00
H82    H     0.61911   0.10892   0.34697   0.00000  Uiso   1.00
H83    H     0.43140   0.32019   0.24343   0.00000  Uiso   1.00
H84    H     0.33690   0.20616   0.28978   0.00000  Uiso   1.00
H85    H     0.66303   0.12705   0.21034   0.00000  Uiso   1.00
H86    H     0.64805   0.17320   0.41939   0.00000  Uiso   1.00
H87    H     0.34282   0.20513   0.00144   0.00000  Uiso   1.00
H88    H     0.45790   0.14016   0.08773   0.00000  Uiso   1.00
H89    H     0.35430   0.09994   0.39310   0.00000  Uiso   1.00
H90    H     0.39105   0.10989   0.04352   0.00000  Uiso   1.00
N91    N     0.64908   0.18074   0.26416   0.00000  Uiso   1.00
N92    N     0.35092   0.15259   0.23584   0.00000  Uiso   1.00
O93    O     0.46131   0.23807   0.24633   0.00000  Uiso   1.00
O94    O     0.56191   0.24755   0.25586   0.00000  Uiso   1.00
O95    O     0.42515   0.15960   0.31840   0.00000  Uiso   1.00
O96    O     0.52575   0.16908   0.32793   0.00000  Uiso   1.00
O97    O     0.43809   0.08578   0.24414   0.00000  Uiso   1.00
O98    O     0.53869   0.09526   0.25367   0.00000  Uiso   1.00
O99    O     0.47425   0.16425   0.17207   0.00000  Uiso   1.00
O100   O     0.57485   0.17373   0.18160   0.00000  Uiso   1.00
C101   C     0.84832   0.26665   0.25176   0.00000  Uiso   1.00
C102   C     0.78166   0.13404   0.39846   0.00000  Uiso   1.00
C103   C     0.85660   0.32269   0.25285   0.00000  Uiso   1.00
C104   C     0.79991   0.15493   0.34560   0.00000  Uiso   1.00
C105   C     0.80981   0.01067   0.24798   0.00000  Uiso   1.00
C106   C     0.81827   0.06668   0.24849   0.00000  Uiso   1.00
C107   C     0.86647   0.17012   0.15302   0.00000  Uiso   1.00
C108   C     0.96144   0.19099   0.01971   0.00000  Uiso   1.00
C109   C     0.88461   0.17144   0.09717   0.00000  Uiso   1.00
C110   C     0.72034   0.11021   0.41821   0.00000  Uiso   1.00
C111   C     0.70128   0.09993   0.47026   0.00000  Uiso   1.00
C112   C     0.80675   0.13546   0.48368   0.00000  Uiso   1.00
C113   C     0.74303   0.11556   0.00337   0.00000  Uiso   1.00
C114   C     0.90526   0.09535   0.37011   0.00000  Uiso   1.00
C115   C     0.89924   0.04299   0.39529   0.00000  Uiso   1.00
C116   C     0.82604   0.13665   0.42998   0.00000  Uiso   1.00
C117   C     0.85271   0.15283   0.01446   0.00000  Uiso   1.00
C118   C     0.91574   0.17070   0.49041   0.00000  Uiso   1.00
C119   C     0.93312   0.16319   0.43774   0.00000  Uiso   1.00
C120   C     0.88883   0.13728   0.40969   0.00000  Uiso   1.00
C121   C     0.83831   0.15375   0.06794   0.00000  Uiso   1.00
C122   C     0.94612   0.19065   0.07289   0.00000  Uiso   1.00
Cu123  Cu    0.77377   0.16105   0.24436   0.00000  Uiso   1.00
Cu124  Cu    0.89290   0.17228   0.25564   0.00000  Uiso   1.00
H125   H     0.98222   0.20518   0.09494   0.00000  Uiso   1.00
H126   H     0.98660   0.08238   0.48567   0.00000  Uiso   1.00
H127   H     0.90164   0.01317   0.25752   0.00000  Uiso   1.00
H128   H     0.92492   0.04809   0.42709   0.00000  Uiso   1.00
H129   H     0.84955   0.02581   0.41085   0.00000  Uiso   1.00
H130   H     0.91761   0.01482   0.36645   0.00000  Uiso   1.00
H131   H     0.87270   0.08582   0.34340   0.00000  Uiso   1.00
H132   H     0.95244   0.10892   0.34697   0.00000  Uiso   1.00
H133   H     0.76473   0.32019   0.24343   0.00000  Uiso   1.00
H134   H     0.67023   0.20616   0.28978   0.00000  Uiso   1.00
H135   H     0.99636   0.12705   0.21034   0.00000  Uiso   1.00
H136   H     0.98138   0.17320   0.41939   0.00000  Uiso   1.00
H137   H     0.67615   0.20513   0.00144   0.00000  Uiso   1.00
H138   H     0.79123   0.14016   0.08773   0.00000  Uiso   1.00
H139   H     0.68764   0.09994   0.39310   0.00000  Uiso   1.00
H140   H     0.72439   0.10989   0.04352   0.00000  Uiso   1.00
N141   N     0.98241   0.18074   0.26416   0.00000  Uiso   1.00
N142   N     0.68426   0.15259   0.23584   0.00000  Uiso   1.00
O143   O     0.79464   0.23807   0.24633   0.00000  Uiso   1.00
O144   O     0.89524   0.24755   0.25586   0.00000  Uiso   1.00
O145   O     0.75848   0.15960   0.31840   0.00000  Uiso   1.00
O146   O     0.85908   0.16908   0.32793   0.00000  Uiso   1.00
O147   O     0.77142   0.08578   0.24414   0.00000  Uiso   1.00
O148   O     0.87203   0.09526   0.25367   0.00000  Uiso   1.00
O149   O     0.80758   0.16425   0.17207   0.00000  Uiso   1.00
O150   O     0.90819   0.17373   0.18160   0.00000  Uiso   1.00
C151   C     0.18165   0.59998   0.25176   0.00000  Uiso   1.00
C152   C     0.11499   0.46738   0.39846   0.00000  Uiso   1.00
C153   C     0.18994   0.65602   0.25285   0.00000  Uiso   1.00
C154   C     0.13325   0.48826   0.34560   0.00000  Uiso   1.00
C155   C     0.14314   0.34400   0.24798   0.00000  Uiso   1.00
C156   C     0.15160   0.40001   0.24849   0.00000  Uiso   1.00
C157   C     0.19980   0.50346   0.15302   0.00000  Uiso   1.00
C158   C     0.29477   0.52432   0.01971   0.00000  Uiso   1.00
C159   C     0.21794   0.50477   0.09717   0.00000  Uiso   1.00
C160   C     0.05367   0.44355   0.41821   0.00000  Uiso   1.00
C161   C     0.03461   0.43326   0.47026   0.00000  Uiso   1.00
C162   C     0.14008   0.46879   0.48368   0.00000  Uiso   1.00
C163   C     0.07637   0.44889   0.00337   0.00000  Uiso   1.00
C164   C     0.23859   0.42868   0.37011   0.00000  Uiso   1.00
C165   C     0.23258   0.37633   0.39529   0.00000  Uiso   1.00
C166   C     0.15937   0.46998   0.42998   0.00000  Uiso   1.00
C167   C     0.18604   0.48617   0.01446   0.00000  Uiso   1.00
C168   C     0.24908   0.50403   0.49041   0.00000  Uiso   1.00
C169   C     0.26645   0.49652   0.43774   0.00000  Uiso   1.00
C170   C     0.22216   0.47061   0.40969   0.00000  Uiso   1.00
C171   C     0.17164   0.48708   0.06794   0.00000  Uiso   1.00
C172   C     0.27945   0.52399   0.07289   0.00000  Uiso   1.00
Cu173  Cu    0.10710   0.49439   0.24436   0.00000  Uiso   1.00
Cu174  Cu    0.22623   0.50561   0.25564   0.00000  Uiso   1.00
H175   H     0.31555   0.53852   0.09494   0.00000  Uiso   1.00
H176   H     0.31993   0.41572   0.48567   0.00000  Uiso   1.00
H177   H     0.23497   0.34651   0.25752   0.00000  Uiso   1.00
H178   H     0.25825   0.38143   0.42709   0.00000  Uiso   1.00
H179   H     0.18289   0.35914   0.41085   0.00000  Uiso   1.00
H180   H     0.25094   0.34816   0.36645   0.00000  Uiso   1.00
H181   H     0.20603   0.41915   0.34340   0.00000  Uiso   1.00
H182   H     0.28578   0.44225   0.34697   0.00000  Uiso   1.00
H183   H     0.09806   0.65352   0.24343   0.00000  Uiso   1.00
H184   H     0.00356   0.53950   0.28978   0.00000  Uiso   1.00
H185   H     0.32970   0.46039   0.21034   0.00000  Uiso   1.00
H186   H     0.31472   0.50653   0.41939   0.00000  Uiso   1.00
H187   H     0.00949   0.53846   0.00144   0.00000  Uiso   1.00
H188   H     0.12457   0.47349   0.08773   0.00000  Uiso   1.00
H189   H     0.02097   0.43327   0.39310   0.00000  Uiso   1.00
H190   H     0.05772   0.44322   0.04352   0.00000  Uiso   1.00
N191   N     0.31574   0.51407   0.26416   0.00000  Uiso   1.00
N192   N     0.01759   0.48593   0.23584   0.00000  Uiso   1.00
O193   O     0.12797   0.57141   0.24633   0.00000  Uiso   1.00
O194   O     0.22858   0.58089   0.25586   0.00000  Uiso   1.00
O195   O     0.09181   0.49293   0.31840   0.00000  Uiso   1.00
O196   O     0.19242   0.50241   0.32793   0.00000  Uiso   1.00
O197   O     0.10476   0.41911   0.24414   0.00000  Uiso   1.00
O198   O     0.20536   0.42859   0.25367   0.00000  Uiso   1.00
O199   O     0.14092   0.49759   0.17207   0.00000  Uiso   1.00
O200   O     0.24152   0.50707   0.18160   0.00000  Uiso   1.00
C201   C     0.51498   0.59998   0.25176   0.00000  Uiso   1.00
C202   C     0.44832   0.46738   0.39846   0.00000  Uiso   1.00
C203   C     0.52327   0.65602   0.25285   0.00000  Uiso   1.00
C204   C     0.46658   0.48826   0.34560   0.00000  Uiso   1.00
C205   C     0.47647   0.34400   0.24798   0.00000  Uiso   1.00
C206   C     0.48493   0.40001   0.24849   0.00000  Uiso   1.00
C207   C     0.53314   0.50346   0.15302   0.00000  Uiso   1.00
C208   C     0.62811   0.52432   0.01971   0.00000  Uiso   1.00
C209   C     0.55128   0.50477   0.09717   0.00000  Uiso   1.00
C210   C     0.38700   0.44355   0.41821   0.00000  Uiso   1.00
C211   C     0.36794   0.43326   0.47026   0.00000  Uiso   1.00
C212   C     0.47342   0.46879   0.48368   0.00000  Uiso   1.00
C213   C     0.40970   0.44889   0.00337   0.00000  Uiso   1.00
C214   C     0.57193   0.42868   0.37011   0.00000  Uiso   1.00
C215   C     0.56591   0.37633   0.39529   0.00000  Uiso   1.00
C216   C     0.49270   0.46998   0.42998   0.00000  Uiso   1.00
C217   C     0.51938   0.48617   0.01446   0.00000  Uiso   1.00
C218   C     0.58241   0.50403   0.49041   0.00000  Uiso   1.00
C219   C     0.59979   0.49652   0.43774   0.00000  Uiso   1.00
C220   C     0.55549   0.47061   0.40969   0.00000  Uiso   1.00
C221   C     0.50498   0.48708   0.06794   0.00000  Uiso   1.00
C222   C     0.61278   0.52399   0.07289   0.00000  Uiso   1.00
Cu223  Cu    0.44043   0.49439   0.24436   0.00000  Uiso   1.00
Cu224  Cu    0.55957   0.50561   0.25564   0.00000  Uiso   1.00
H225   H     0.64889   0.53852   0.09494   0.00000  Uiso   1.00
H226   H     0.65326   0.41572   0.48567   0.00000  Uiso   1.00
H227   H     0.56831   0.34651   0.25752   0.00000  Uiso   1.00
H228   H     0.59158   0.38143   0.42709   0.00000  Uiso   1.00
H229   H     0.51622   0.35914   0.41085   0.00000  Uiso   1.00
H230   H     0.58427   0.34816   0.36645   0.00000  Uiso   1.00
H231   H     0.53937   0.41915   0.34340   0.00000  Uiso   1.00
H232   H     0.61911   0.44225   0.34697   0.00000  Uiso   1.00
H233   H     0.43140   0.65352   0.24343   0.00000  Uiso   1.00
H234   H     0.33690   0.53950   0.28978   0.00000  Uiso   1.00
H235   H     0.66303   0.46039   0.21034   0.00000  Uiso   1.00
H236   H     0.64805   0.50653   0.41939   0.00000  Uiso   1.00
H237   H     0.34282   0.53846   0.00144   0.00000  Uiso   1.00
H238   H     0.45790   0.47349   0.08773   0.00000  Uiso   1.00
H239   H     0.35430   0.43327   0.39310   0.00000  Uiso   1.00
H240   H     0.39105   0.44322   0.04352   0.00000  Uiso   1.00
N241   N     0.64908   0.51407   0.26416   0.00000  Uiso   1.00
N242   N     0.35092   0.48593   0.23584   0.00000  Uiso   1.00
O243   O     0.46131   0.57141   0.24633   0.00000  Uiso   1.00
O244   O     0.56191   0.58089   0.25586   0.00000  Uiso   1.00
O245   O     0.42515   0.49293   0.31840   0.00000  Uiso   1.00
O246   O     0.52575   0.50241   0.32793   0.00000  Uiso   1.00
O247   O     0.43809   0.41911   0.24414   0.00000  Uiso   1.00
O248   O     0.53869   0.42859   0.25367   0.00000  Uiso   1.00
O249   O     0.47425   0.49759   0.17207   0.00000  Uiso   1.00
O250   O     0.57485   0.50707   0.18160   0.00000  Uiso   1.00
C251   C     0.84832   0.59998   0.25176   0.00000  Uiso   1.00
C252   C     0.78166   0.46738   0.39846   0.00000  Uiso   1.00
C253   C     0.85660   0.65602   0.25285   0.00000  Uiso   1.00
C254   C     0.79991   0.48826   0.34560   0.00000  Uiso   1.00
C255   C     0.80981   0.34400   0.24798   0.00000  Uiso   1.00
C256   C     0.81827   0.40001   0.24849   0.00000  Uiso   1.00
C257   C     0.86647   0.50346   0.15302   0.00000  Uiso   1.00
C258   C     0.96144   0.52432   0.01971   0.00000  Uiso   1.00
C259   C     0.88461   0.50477   0.09717   0.00000  Uiso   1.00
C260   C     0.72034   0.44355   0.41821   0.00000  Uiso   1.00
C261   C     0.70128   0.43326   0.47026   0.00000  Uiso   1.00
C262   C     0.80675   0.46879   0.48368   0.00000  Uiso   1.00
C263   C     0.74303   0.44889   0.00337   0.00000  Uiso   1.00
C264   C     0.90526   0.42868   0.37011   0.00000  Uiso   1.00
C265   C     0.89924   0.37633   0.39529   0.00000  Uiso   1.00
C266   C     0.82604   0.46998   0.42998   0.00000  Uiso   1.00
C267   C     0.85271   0.48617   0.01446   0.00000  Uiso   1.00
C268   C     0.91574   0.50403   0.49041   0.00000  Uiso   1.00
C269   C     0.93312   0.49652   0.43774   0.00000  Uiso   1.00
C270   C     0.88883   0.47061   0.40969   0.00000  Uiso   1.00
C271   C     0.83831   0.48708   0.06794   0.00000  Uiso   1.00
C272   C     0.94612   0.52399   0.07289   0.00000  Uiso   1.00
Cu273  Cu    0.77377   0.49439   0.24436   0.00000  Uiso   1.00
Cu274  Cu    0.89290   0.50561   0.25564   0.00000  Uiso   1.00
H275   H     0.98222   0.53852   0.09494   0.00000  Uiso   1.00
H276   H     0.98660   0.41572   0.48567   0.00000  Uiso   1.00
H277   H     0.90164   0.34651   0.25752   0.00000  Uiso   1.00
H278   H     0.92492   0.38143   0.42709   0.00000  Uiso   1.00
H279   H     0.84955   0.35914   0.41085   0.00000  Uiso   1.00
H280   H     0.91761   0.34816   0.36645   0.00000  Uiso   1.00
H281   H     0.87270   0.41915   0.34340   0.00000  Uiso   1.00
H282   H     0.95244   0.44225   0.34697   0.00000  Uiso   1.00
H283   H     0.76473   0.65352   0.24343   0.00000  Uiso   1.00
H284   H     0.67023   0.53950   0.28978   0.00000  Uiso   1.00
H285   H     0.99636   0.46039   0.21034   0.00000  Uiso   1.00
H286   H     0.98138   0.50653   0.41939   0.00000  Uiso   1.00
H287   H     0.67615   0.53846   0.00144   0.00000  Uiso   1.00
H288   H     0.79123   0.47349   0.08773   0.00000  Uiso   1.00
H289   H     0.68764   0.43327   0.39310   0.00000  Uiso   1.00
H290   H     0.72439   0.44322   0.04352   0.00000  Uiso   1.00
N291   N     0.98241   0.51407   0.26416   0.00000  Uiso   1.00
N292   N     0.68426   0.48593   0.23584   0.00000  Uiso   1.00
O293   O     0.79464   0.57141   0.24633   0.00000  Uiso   1.00
O294   O     0.89524   0.58089   0.25586   0.00000  Uiso   1.00
O295   O     0.75848   0.49293   0.31840   0.00000  Uiso   1.00
O296   O     0.85908   0.50241   0.32793   0.00000  Uiso   1.00
O297   O     0.77142   0.41911   0.24414   0.00000  Uiso   1.00
O298   O     0.87203   0.42859   0.25367   0.00000  Uiso   1.00
O299   O     0.80758   0.49759   0.17207   0.00000  Uiso   1.00
O300   O     0.90819   0.50707   0.18160   0.00000  Uiso   1.00
C301   C     0.18165   0.93332   0.25176   0.00000  Uiso   1.00
C302   C     0.11499   0.80071   0.39846   0.00000  Uiso   1.00
C303   C     0.18994   0.98935   0.25285   0.00000  Uiso   1.00
C304   C     0.13325   0.82160   0.34560   0.00000  Uiso   1.00
C305   C     0.14314   0.67733   0.24798   0.00000  Uiso   1.00
C306   C     0.15160   0.73335   0.24849   0.00000  Uiso   1.00
C307   C     0.19980   0.83679   0.15302   0.00000  Uiso   1.00
C308   C     0.29477   0.85765   0.01971   0.00000  Uiso   1.00
C309   C     0.21794   0.83810   0.09717   0.00000  Uiso   1.00
C310   C     0.05367   0.77688   0.41821   0.00000  Uiso   1.00
C311   C     0.03461   0.76660   0.47026   0.00000  Uiso   1.00
C312   C     0.14008   0.80212   0.48368   0.00000  Uiso   1.00
C313   C     0.07637   0.78223   0.00337   0.00000  Uiso   1.00
C314   C     0.23859   0.76202   0.37011   0.00000  Uiso   1.00
C315   C     0.23258   0.70966   0.39529   0.00000  Uiso   1.00
C316   C     0.15937   0.80332   0.42998   0.00000  Uiso   1.00
C317   C     0.18604   0.81950   0.01446   0.00000  Uiso   1.00
C318   C     0.24908   0.83737   0.49041   0.00000  Uiso   1.00
C319   C     0.26645   0.82986   0.43774   0.00000  Uiso   1.00
C320   C     0.22216   0.80394   0.40969   0.00000  Uiso   1.00
C321   C     0.17164   0.82042   0.06794   0.00000  Uiso   1.00
C322   C     0.27945   0.85732   0.07289   0.00000  Uiso   1.00
Cu323  Cu    0.10710   0.82772   0.24436   0.00000  Uiso   1.00
Cu324  Cu    0.22623   0.83895   0.25564   0.00000  Uiso   1.00
H325   H     0.31555   0.87185   0.09494   0.00000  Uiso   1.00
H326   H     0.31993   0.74905   0.48567   0.00000  Uiso   1.00
H327   H     0.23497   0.67984   0.25752   0.00000  Uiso   1.00
H328   H     0.25825   0.71476   0.42709   0.00000  Uiso   1.00
H329   H     0.18289   0.69248   0.41085   0.00000  Uiso   1.00
H330   H     0.25094   0.68149   0.36645   0.00000  Uiso   1.00
H331   H     0.20603   0.75249   0.34340   0.00000  Uiso   1.00
H332   H     0.28578   0.77558   0.34697   0.00000  Uiso   1.00
H333   H     0.09806   0.98685   0.24343   0.00000  Uiso   1.00
H334   H     0.00356   0.87283   0.28978   0.00000  Uiso   1.00
H335   H     0.32970   0.79372   0.21034   0.00000  Uiso   1.00
H336   H     0.31472   0.83987   0.41939   0.00000  Uiso   1.00
H337   H     0.00949   0.87180   0.00144   0.00000  Uiso   1.00
H338   H     0.12457   0.80683   0.08773   0.00000  Uiso   1.00
H339   H     0.02097   0.76661   0.39310   0.00000  Uiso   1.00
H340   H     0.05772   0.77656   0.04352   0.00000  Uiso   1.00
N341   N     0.31574   0.84741   0.26416   0.00000  Uiso   1.00
N342   N     0.01759   0.81926   0.23584   0.00000  Uiso   1.00
O343   O     0.12797   0.90474   0.24633   0.00000  Uiso   1.00
O344   O     0.22858   0.91422   0.25586   0.00000  Uiso   1.00
O345   O     0.09181   0.82627   0.31840   0.00000  Uiso   1.00
O346   O     0.19242   0.83575   0.32793   0.00000  Uiso   1.00
O347   O     0.10476   0.75245   0.24414   0.00000  Uiso   1.00
O348   O     0.20536   0.76193   0.25367   0.00000  Uiso   1.00
O349   O     0.14092   0.83092   0.17207   0.00000  Uiso   1.00
O350   O     0.24152   0.84040   0.18160   0.00000  Uiso   1.00
C351   C     0.51498   0.93332   0.25176   0.00000  Uiso   1.00
C352   C     0.44832   0.80071   0.39846   0.00000  Uiso   1.00
C353   C     0.52327   0.98935   0.25285   0.00000  Uiso   1.00
C354   C     0.46658   0.82160   0.34560   0.00000  Uiso   1.00
C355   C     0.47647   0.67733   0.24798   0.00000  Uiso   1.00
C356   C     0.48493   0.73335   0.24849   0.00000  Uiso   1.00
C357   C     0.53314   0.83679   0.15302   0.00000  Uiso   1.00
C358   C     0.62811   0.85765   0.01971   0.00000  Uiso   1.00
C359   C     0.55128   0.83810   0.09717   0.00000  Uiso   1.00
C360   C     0.38700   0.77688   0.41821   0.00000  Uiso   1.00
C361   C     0.36794   0.76660   0.47026   0.00000  Uiso   1.00
C362   C     0.47342   0.80212   0.48368   0.00000  Uiso   1.00
C363   C     0.40970   0.78223   0.00337   0.00000  Uiso   1.00
C364   C     0.57193   0.76202   0.37011   0.00000  Uiso   1.00
C365   C     0.56591   0.70966   0.39529   0.00000  Uiso   1.00
C366   C     0.49270   0.80332   0.42998   0.00000  Uiso   1.00
C367   C     0.51938   0.81950   0.01446   0.00000  Uiso   1.00
C368   C     0.58241   0.83737   0.49041   0.00000  Uiso   1.00
C369   C     0.59979   0.82986   0.43774   0.00000  Uiso   1.00
C370   C     0.55549   0.80394   0.40969   0.00000  Uiso   1.00
C371   C     0.50498   0.82042   0.06794   0.00000  Uiso   1.00
C372   C     0.61278   0.85732   0.07289   0.00000  Uiso   1.00
Cu373  Cu    0.44043   0.82772   0.24436   0.00000  Uiso   1.00
Cu374  Cu    0.55957   0.83895   0.25564   0.00000  Uiso   1.00
H375   H     0.64889   0.87185   0.09494   0.00000  Uiso   1.00
H376   H     0.65326   0.74905   0.48567   0.00000  Uiso   1.00
H377   H     0.56831   0.67984   0.25752   0.00000  Uiso   1.00
H378   H     0.59158   0.71476   0.42709   0.00000  Uiso   1.00
H379   H     0.51622   0.69248   0.41085   0.00000  Uiso   1.00
H380   H     0.58427   0.68149   0.36645   0.00000  Uiso   1.00
H381   H     0.53937   0.75249   0.34340   0.00000  Uiso   1.00
H382   H     0.61911   0.77558   0.34697   0.00000  Uiso   1.00
H383   H     0.43140   0.98685   0.24343   0.00000  Uiso   1.00
H384   H     0.33690   0.87283   0.28978   0.00000  Uiso   1.00
H385   H     0.66303   0.79372   0.21034   0.00000  Uiso   1.00
H386   H     0.64805   0.83987   0.41939   0.00000  Uiso   1.00
H387   H     0.34282   0.87180   0.00144   0.00000  Uiso   1.00
H388   H     0.45790   0.80683   0.08773   0.00000  Uiso   1.00
H389   H     0.35430   0.76661   0.39310   0.00000  Uiso   1.00
H390   H     0.39105   0.77656   0.04352   0.00000  Uiso   1.00
N391   N     0.64908   0.84741   0.26416   0.00000  Uiso   1.00
N392   N     0.35092   0.81926   0.23584   0.00000  Uiso   1.00
O393   O     0.46131   0.90474   0.24633   0.00000  Uiso   1.00
O394   O     0.56191   0.91422   0.25586   0.00000  Uiso   1.00
O395   O     0.42515   0.82627   0.31840   0.00000  Uiso   1.00
O396   O     0.52575   0.83575   0.32793   0.00000  Uiso   1.00
O397   O     0.43809   0.75245   0.24414   0.00000  Uiso   1.00
O398   O     0.53869   0.76193   0.25367   0.00000  Uiso   1.00
O399   O     0.47425   0.83092   0.17207   0.00000  Uiso   1.00
O400   O     0.57485   0.84040   0.18160   0.00000  Uiso   1.00
C401   C     0.84832   0.93332   0.25176   0.00000  Uiso   1.00
C402   C     0.78166   0.80071   0.39846   0.00000  Uiso   1.00
C403   C     0.85660   0.98935   0.25285   0.00000  Uiso   1.00
C404   C     0.79991   0.82160   0.34560   0.00000  Uiso   1.00
C405   C     0.80981   0.67733   0.24798   0.00000  Uiso   1.00
C406   C     0.81827   0.73335   0.24849   0.00000  Uiso   1.00
C407   C     0.86647   0.83679   0.15302   0.00000  Uiso   1.00
C408   C     0.96144   0.85765   0.01971   0.00000  Uiso   1.00
C409   C     0.88461   0.83810   0.09717   0.00000  Uiso   1.00
C410   C     0.72034   0.77688   0.41821   0.00000  Uiso   1.00
C411   C     0.70128   0.76660   0.47026   0.00000  Uiso   1.00
C412   C     0.80675   0.80212   0.48368   0.00000  Uiso   1.00
C413   C     0.74303   0.78223   0.00337   0.00000  Uiso   1.00
C414   C     0.90526   0.76202   0.37011   0.00000  Uiso   1.00
C415   C     0.89924   0.70966   0.39529   0.00000  Uiso   1.00
C416   C     0.82604   0.80332   0.42998   0.00000  Uiso   1.00
C417   C     0.85271   0.81950   0.01446   0.00000  Uiso   1.00
C418   C     0.91574   0.83737   0.49041   0.00000  Uiso   1.00
C419   C     0.93312   0.82986   0.43774   0.00000  Uiso   1.00
C420   C     0.88883   0.80394   0.40969   0.00000  Uiso   1.00
C421   C     0.83831   0.82042   0.06794   0.00000  Uiso   1.00
C422   C     0.94612   0.85732   0.07289   0.00000  Uiso   1.00
Cu423  Cu    0.77377   0.82772   0.24436   0.00000  Uiso   1.00
Cu424  Cu    0.89290   0.83895   0.25564   0.00000  Uiso   1.00
H425   H     0.98222   0.87185   0.09494   0.00000  Uiso   1.00
H426   H     0.98660   0.74905   0.48567   0.00000  Uiso   1.00
H427   H     0.90164   0.67984   0.25752   0.00000  Uiso   1.00
H428   H     0.92492   0.71476   0.42709   0.00000  Uiso   1.00
H429   H     0.84955   0.69248   0.41085   0.00000  Uiso   1.00
H430   H     0.91761   0.68149   0.36645   0.00000  Uiso   1.00
H431   H     0.87270   0.75249   0.34340   0.00000  Uiso   1.00
H432   H     0.95244   0.77558   0.34697   0.00000  Uiso   1.00
H433   H     0.76473   0.98685   0.24343   0.00000  Uiso   1.00
H434   H     0.67023   0.87283   0.28978   0.00000  Uiso   1.00
H435   H     0.99636   0.79372   0.21034   0.00000  Uiso   1.00
H436   H     0.98138   0.83987   0.41939   0.00000  Uiso   1.00
H437   H     0.67615   0.87180   0.00144   0.00000  Uiso   1.00
H438   H     0.79123   0.80683   0.08773   0.00000  Uiso   1.00
H439   H     0.68764   0.76661   0.39310   0.00000  Uiso   1.00
H440   H     0.72439   0.77656   0.04352   0.00000  Uiso   1.00
N441   N     0.98241   0.84741   0.26416   0.00000  Uiso   1.00
N442   N     0.68426   0.81926   0.23584   0.00000  Uiso   1.00
O443   O     0.79464   0.90474   0.24633   0.00000  Uiso   1.00
O444   O     0.89524   0.91422   0.25586   0.00000  Uiso   1.00
O445   O     0.75848   0.82627   0.31840   0.00000  Uiso   1.00
O446   O     0.85908   0.83575   0.32793   0.00000  Uiso   1.00
O447   O     0.77142   0.75245   0.24414   0.00000  Uiso   1.00
O448   O     0.87203   0.76193   0.25367   0.00000  Uiso   1.00
O449   O     0.80758   0.83092   0.17207   0.00000  Uiso   1.00
O450   O     0.90819   0.84040   0.18160   0.00000  Uiso   1.00
C451   C     0.18165   0.26665   0.75176   0.00000  Uiso   1.00
C452   C     0.11499   0.13404   0.89846   0.00000  Uiso   1.00
C453   C     0.18994   0.32269   0.75285   0.00000  Uiso   1.00
C454   C     0.13325   0.15493   0.84560   0.00000  Uiso   1.00
C455   C     0.14314   0.01067   0.74798   0.00000  Uiso   1.00
C456   C     0.15160   0.06668   0.74849   0.00000  Uiso   1.00
C457   C     0.19980   0.17012   0.65302   0.00000  Uiso   1.00
C458   C     0.29477   0.19099   0.51971   0.00000  Uiso   1.00
C459   C     0.21794   0.17144   0.59717   0.00000  Uiso   1.00
C460   C     0.05367   0.11021   0.91821   0.00000  Uiso   1.00
C461   C     0.03461   0.09993   0.97026   0.00000  Uiso   1.00
C462   C     0.14008   0.13546   0.98368   0.00000  Uiso   1.00
C463   C     0.07637   0.11556   0.50337   0.00000  Uiso   1.00
C464   C     0.23859   0.09535   0.87011   0.00000  Uiso   1.00
C465   C     0.23258   0.04299   0.89529   0.00000  Uiso   1.00
C466   C     0.15937   0.13665   0.92998   0.00000  Uiso   1.00
C467   C     0.18604   0.15283   0.51446   0.00000  Uiso   1.00
C468   C     0.24908   0.17070   0.99041   0.00000  Uiso   1.00
C469   C     0.26645   0.16319   0.93774   0.00000  Uiso   1.00
C470   C     0.22216   0.13728   0.90969   0.00000  Uiso   1.00
C471   C     0.17164   0.15375   0.56794   0.00000  Uiso   1.00
C472   C     0.27945   0.19065   0.57289   0.00000  Uiso   1.00
Cu473  Cu    0.10710   0.16105   0.74436   0.00000  Uiso   1.00
Cu474  Cu    0.22623   0.17228   0.75564   0.00000  Uiso   1.00
H475   H     0.31555   0.20518   0.59494   0.00000  Uiso   1.00
H476   H     0.31993   0.08238   0.98567   0.00000  Uiso   1.00
H477   H     0.23497   0.01317   0.75752   0.00000  Uiso   1.00
H478   H     0.25825   0.04809   0.92709   0.00000  Uiso   1.00
H479   H     0.18289   0.02581   0.91085   0.00000  Uiso   1.00
H480   H     0.25094   0.01482   0.86645   0.00000  Uiso   1.00
H481   H     0.20603   0.08582   0.84340   0.00000  Uiso   1.00
H482   H     0.28578   0.10892   0.84697   0.00000  Uiso   1.00
H483   H     0.09806   0.32019   0.74343   0.00000  Uiso   1.00
H484   H     0.00356   0.20616   0.78978   0.00000  Uiso   1.00
H485   H     0.32970   0.12705   0.71034   0.00000  Uiso   1.00
H486   H     0.31472   0.17320   0.91939   0.00000  Uiso   1.00
H487   H     0.00949   0.20513   0.50144   0.00000  Uiso   1.00
H488   H     0.12457   0.14016   0.58773   0.00000  Uiso   1.00
H489   H     0.02097   0.09994   0.89310   0.00000  Uiso   1.00
H490   H     0.05772   0.10989   0.54352   0.00000  Uiso   1.00
N491   N     0.31574   0.18074   0.76416   0.00000  Uiso   1.00
N492   N     0.01759   0.15259   0.73584   0.00000  Uiso   1.00
O493   O     0.12797   0.23807   0.74633   0.00000  Uiso   1.00
O494   O     0.22858   0.24755   0.75586   0.00000  Uiso   1.00
O495   O     0.09181   0.15960   0.81840   0.00000  Uiso   1.00
O496   O     0.19242   0.16908   0.82793   0.00000  Uiso   1.00
O497   O     0.10476   0.08578   0.74414   0.00000  Uiso   1.00
O498   O     0.20536   0.09526   0.75367   0.00000  Uiso   1.00
O499   O     0.14092   0.16425   0.67207   0.00000  Uiso   1.00
O500   O     0.24152   0.17373   0.68160   0.00000  Uiso   1.00
C501   C     0.51498   0.26665   0.75176   0.00000  Uiso   1.00
C502   C     0.44832   0.13404   0.89846   0.00000  Uiso   1.00
C503   C     0.52327   0.32269   0.75285   0.00000  Uiso   1.00
C504   C     0.46658   0.15493   0.84560   0.00000  Uiso   1.00
C505   C     0.47647   0.01067   0.74798   0.00000  Uiso   1.00
C506   C     0.48493   0.06668   0.74849   0.00000  Uiso   1.00
C507   C     0.53314   0.17012   0.65302   0.00000  Uiso   1.00
C508   C     0.62811   0.19099   0.51971   0.00000  Uiso   1.00
C509   C     0.55128   0.17144   0.59717   0.00000  Uiso   1.00
C510   C     0.38700   0.11021   0.91821   0.00000  Uiso   1.00
C511   C     0.36794   0.09993   0.97026   0.00000  Uiso   1.00
C512   C     0.47342   0.13546   0.98368   0.00000  Uiso   1.00
C513   C     0.40970   0.11556   0.50337   0.00000  Uiso   1.00
C514   C     0.57193   0.09535   0.87011   0.00000  Uiso   1.00
C515   C     0.56591   0.04299   0.89529   0.00000  Uiso   1.00
C516   C     0.49270   0.13665   0.92998   0.00000  Uiso   1.00
C517   C     0.51938   0.15283   0.51446   0.00000  Uiso   1.00
C518   C     0.58241   0.17070   0.99041   0.00000  Uiso   1.00
C519   C     0.59979   0.16319   0.93774   0.00000  Uiso   1.00
C520   C     0.55549   0.13728   0.90969   0.00000  Uiso   1.00
C521   C     0.50498   0.15375   0.56794   0.00000  Uiso   1.00
C522   C     0.61278   0.19065   0.57289   0.00000  Uiso   1.00
Cu523  Cu    0.44043   0.16105   0.74436   0.00000  Uiso   1.00
Cu524  Cu    0.55957   0.17228   0.75564   0.00000  Uiso   1.00
H525   H     0.64889   0.20518   0.59494   0.00000  Uiso   1.00
H526   H     0.65326   0.08238   0.98567   0.00000  Uiso   1.00
H527   H     0.56831   0.01317   0.75752   0.00000  Uiso   1.00
H528   H     0.59158   0.04809   0.92709   0.00000  Uiso   1.00
H529   H     0.51622   0.02581   0.91085   0.00000  Uiso   1.00
H530   H     0.58427   0.01482   0.86645   0.00000  Uiso   1.00
H531   H     0.53937   0.08582   0.84340   0.00000  Uiso   1.00
H532   H     0.61911   0.10892   0.84697   0.00000  Uiso   1.00
H533   H     0.43140   0.32019   0.74343   0.00000  Uiso   1.00
H534   H     0.33690   0.20616   0.78978   0.00000  Uiso   1.00
H535   H     0.66303   0.12705   0.71034   0.00000  Uiso   1.00
H536   H     0.64805   0.17320   0.91939   0.00000  Uiso   1.00
H537   H     0.34282   0.20513   0.50144   0.00000  Uiso   1.00
H538   H     0.45790   0.14016   0.58773   0.00000  Uiso   1.00
H539   H     0.35430   0.09994   0.89310   0.00000  Uiso   1.00
H540   H     0.39105   0.10989   0.54352   0.00000  Uiso   1.00
N541   N     0.64908   0.18074   0.76416   0.00000  Uiso   1.00
N542   N     0.35092   0.15259   0.73584   0.00000  Uiso   1.00
O543   O     0.46131   0.23807   0.74633   0.00000  Uiso   1.00
O544   O     0.56191   0.24755   0.75586   0.00000  Uiso   1.00
O545   O     0.42515   0.15960   0.81840   0.00000  Uiso   1.00
O546   O     0.52575   0.16908   0.82793   0.00000  Uiso   1.00
O547   O     0.43809   0.08578   0.74414   0.00000  Uiso   1.00
O548   O     0.53869   0.09526   0.75367   0.00000  Uiso   1.00
O549   O     0.47425   0.16425   0.67207   0.00000  Uiso   1.00
O550   O     0.57485   0.17373   0.68160   0.00000  Uiso   1.00
C551   C     0.84832   0.26665   0.75176   0.00000  Uiso   1.00
C552   C     0.78166   0.13404   0.89846   0.00000  Uiso   1.00
C553   C     0.85660   0.32269   0.75285   0.00000  Uiso   1.00
C554   C     0.79991   0.15493   0.84560   0.00000  Uiso   1.00
C555   C     0.80981   0.01067   0.74798   0.00000  Uiso   1.00
C556   C     0.81827   0.06668   0.74849   0.00000  Uiso   1.00
C557   C     0.86647   0.17012   0.65302   0.00000  Uiso   1.00
C558   C     0.96144   0.19099   0.51971   0.00000  Uiso   1.00
C559   C     0.88461   0.17144   0.59717   0.00000  Uiso   1.00
C560   C     0.72034   0.11021   0.91821   0.00000  Uiso   1.00
C561   C     0.70128   0.09993   0.97026   0.00000  Uiso   1.00
C562   C     0.80675   0.13546   0.98368   0.00000  Uiso   1.00
C563   C     0.74303   0.11556   0.50337   0.00000  Uiso   1.00
C564   C     0.90526   0.09535   0.87011   0.00000  Uiso   1.00
C565   C     0.89924   0.04299   0.89529   0.00000  Uiso   1.00
C566   C     0.82604   0.13665   0.92998   0.00000  Uiso   1.00
C567   C     0.85271   0.15283   0.51446   0.00000  Uiso   1.00
C568   C     0.91574   0.17070   0.99041   0.00000  Uiso   1.00
C569   C     0.93312   0.16319   0.93774   0.00000  Uiso   1.00
C570   C     0.88883   0.13728   0.90969   0.00000  Uiso   1.00
C571   C     0.83831   0.15375   0.56794   0.00000  Uiso   1.00
C572   C     0.94612   0.19065   0.57289   0.00000  Uiso   1.00
Cu573  Cu    0.77377   0.16105   0.74436   0.00000  Uiso   1.00
Cu574  Cu    0.89290   0.17228   0.75564   0.00000  Uiso   1.00
H575   H     0.98222   0.20518   0.59494   0.00000  Uiso   1.00
H576   H     0.98660   0.08238   0.98567   0.00000  Uiso   1.00
H577   H     0.90164   0.01317   0.75752   0.00000  Uiso   1.00
H578   H     0.92492   0.04809   0.92709   0.00000  Uiso   1.00
H579   H     0.84955   0.02581   0.91085   0.00000  Uiso   1.00
H580   H     0.91761   0.01482   0.86645   0.00000  Uiso   1.00
H581   H     0.87270   0.08582   0.84340   0.00000  Uiso   1.00
H582   H     0.95244   0.10892   0.84697   0.00000  Uiso   1.00
H583   H     0.76473   0.32019   0.74343   0.00000  Uiso   1.00
H584   H     0.67023   0.20616   0.78978   0.00000  Uiso   1.00
H585   H     0.99636   0.12705   0.71034   0.00000  Uiso   1.00
H586   H     0.98138   0.17320   0.91939   0.00000  Uiso   1.00
H587   H     0.67615   0.20513   0.50144   0.00000  Uiso   1.00
H588   H     0.79123   0.14016   0.58773   0.00000  Uiso   1.00
H589   H     0.68764   0.09994   0.89310   0.00000  Uiso   1.00
H590   H     0.72439   0.10989   0.54352   0.00000  Uiso   1.00
N591   N     0.98241   0.18074   0.76416   0.00000  Uiso   1.00
N592   N     0.68426   0.15259   0.73584   0.00000  Uiso   1.00
O593   O     0.79464   0.23807   0.74633   0.00000  Uiso   1.00
O594   O     0.89524   0.24755   0.75586   0.00000  Uiso   1.00
O595   O     0.75848   0.15960   0.81840   0.00000  Uiso   1.00
O596   O     0.85908   0.16908   0.82793   0.00000  Uiso   1.00
O597   O     0.77142   0.08578   0.74414   0.00000  Uiso   1.00
O598   O     0.87203   0.09526   0.75367   0.00000  Uiso   1.00
O599   O     0.80758   0.16425   0.67207   0.00000  Uiso   1.00
O600   O     0.90819   0.17373   0.68160   0.00000  Uiso   1.00
C601   C     0.18165   0.59998   0.75176   0.00000  Uiso   1.00
C602   C     0.11499   0.46738   0.89846   0.00000  Uiso   1.00
C603   C     0.18994   0.65602   0.75285   0.00000  Uiso   1.00
C604   C     0.13325   0.48826   0.84560   0.00000  Uiso   1.00
C605   C     0.14314   0.34400   0.74798   0.00000  Uiso   1.00
C606   C     0.15160   0.40001   0.74849   0.00000  Uiso   1.00
C607   C     0.19980   0.50346   0.65302   0.00000  Uiso   1.00
C608   C     0.29477   0.52432   0.51971   0.00000  Uiso   1.00
C609   C     0.21794   0.50477   0.59717   0.00000  Uiso   1.00
C610   C     0.05367   0.44355   0.91821   0.00000  Uiso   1.00
C611   C     0.03461   0.43326   0.97026   0.00000  Uiso   1.00
C612   C     0.14008   0.46879   0.98368   0.00000  Uiso   1.00
C613   C     0.07637   0.44889   0.50337   0.00000  Uiso   1.00
C614   C     0.23859   0.42868   0.87011   0.00000  Uiso   1.00
C615   C     0.23258   0.37633   0.89529   0.00000  Uiso   1.00
C616   C     0.15937   0.46998   0.92998   0.00000  Uiso   1.00
C617   C     0.18604   0.48617   0.51446   0.00000  Uiso   1.00
C618   C     0.24908   0.50403   0.99041   0.00000  Uiso   1.00
C619   C     0.26645   0.49652   0.93774   0.00000  Uiso   1.00
C620   C     0.22216   0.47061   0.90969   0.00000  Uiso   1.00
C621   C     0.17164   0.48708   0.56794   0.00000  Uiso   1.00
C622   C     0.27945   0.52399   0.57289   0.00000  Uiso   1.00
Cu623  Cu    0.10710   0.49439   0.74436   0.00000  Uiso   1.00
Cu624  Cu    0.22623   0.50561   0.75564   0.00000  Uiso   1.00
H625   H     0.31555   0.53852   0.59494   0.00000  Uiso   1.00
H626   H     0.31993   0.41572   0.98567   0.00000  Uiso   1.00
H627   H     0.23497   0.34651   0.75752   0.00000  Uiso   1.00
H628   H     0.25825   0.38143   0.92709   0.00000  Uiso   1.00
H629   H     0.18289   0.35914   0.91085   0.00000  Uiso   1.00
H630   H     0.25094   0.34816   0.86645   0.00000  Uiso   1.00
H631   H     0.20603   0.41915   0.84340   0.00000  Uiso   1.00
H632   H     0.28578   0.44225   0.84697   0.00000  Uiso   1.00
H633   H     0.09806   0.65352   0.74343   0.00000  Uiso   1.00
H634   H     0.00356   0.53950   0.78978   0.00000  Uiso   1.00
H635   H     0.32970   0.46039   0.71034   0.00000  Uiso   1.00
H636   H     0.31472   0.50653   0.91939   0.00000  Uiso   1.00
H637   H     0.00949   0.53846   0.50144   0.00000  Uiso   1.00
H638   H     0.12457   0.47349   0.58773   0.00000  Uiso   1.00
H639   H     0.02097   0.43327   0.89310   0.00000  Uiso   1.00
H640   H     0.05772   0.44322   0.54352   0.00000  Uiso   1.00
N641   N     0.31574   0.51407   0.76416   0.00000  Uiso   1.00
N642   N     0.01759   0.48593   0.73584   0.00000  Uiso   1.00
O643   O     0.12797   0.57141   0.74633   0.00000  Uiso   1.00
O644   O     0.22858   0.58089   0.75586   0.00000  Uiso   1.00
O645   O     0.09181   0.49293   0.81840   0.00000  Uiso   1.00
O646   O     0.19242   0.50241   0.82793   0.00000  Uiso   1.00
O647   O     0.10476   0.41911   0.74414   0.00000  Uiso   1.00
O648   O     0.20536   0.42859   0.75367   0.00000  Uiso   1.00
O649   O     0.14092   0.49759   0.67207   0.00000  Uiso   1.00
O650   O     0.24152   0.50707   0.68160   0.00000  Uiso   1.00
C651   C     0.51498   0.59998   0.75176   0.00000  Uiso   1.00
C652   C     0.44832   0.46738   0.89846   0.00000  Uiso   1.00
C653   C     0.52327   0.65602   0.75285   0.00000  Uiso   1.00
C654   C     0.46658   0.48826   0.84560   0.00000  Uiso   1.00
C655   C     0.47647   0.34400   0.74798   0.00000  Uiso   1.00
C656   C     0.48493   0.40001   0.74849   0.00000  Uiso   1.00
C657   C     0.53314   0.50346   0.65302   0.00000  Uiso   1.00
C658   C     0.62811   0.52432   0.51971   0.00000  Uiso   1.00
C659   C     0.55128   0.50477   0.59717   0.00000  Uiso   1.00
C660   C     0.38700   0.44355   0.91821   0.00000  Uiso   1.00
C661   C     0.36794   0.43326   0.97026   0.00000  Uiso   1.00
C662   C     0.47342   0.46879   0.98368   0.00000  Uiso   1.00
C663   C     0.40970   0.44889   0.50337   0.00000  Uiso   1.00
C664   C     0.57193   0.42868   0.87011   0.00000  Uiso   1.00
C665   C     0.56591   0.37633   0.89529   0.00000  Uiso   1.00
C666   C     0.49270   0.46998   0.92998   0.00000  Uiso   1.00
C667   C     0.51938   0.48617   0.51446   0.00000  Uiso   1.00
C668   C     0.58241   0.50403   0.99041   0.00000  Uiso   1.00
C669   C     0.59979   0.49652   0.93774   0.00000  Uiso   1.00
C670   C     0.55549   0.47061   0.90969   0.00000  Uiso   1.00
C671   C     0.50498   0.48708   0.56794   0.00000  Uiso   1.00
C672   C     0.61278   0.52399   0.57289   0.00000  Uiso   1.00
Cu673  Cu    0.44043   0.49439   0.74436   0.00000  Uiso   1.00
Cu674  Cu    0.55957   0.50561   0.75564   0.00000  Uiso   1.00
H675   H     0.64889   0.53852   0.59494   0.00000  Uiso   1.00
H676   H     0.65326   0.41572   0.98567   0.00000  Uiso   1.00
H677   H     0.56831   0.34651   0.75752   0.00000  Uiso   1.00
H678   H     0.59158   0.38143   0.92709   0.00000  Uiso   1.00
H679   H     0.51622   0.35914   0.91085   0.00000  Uiso   1.00
H680   H     0.58427   0.34816   0.86645   0.00000  Uiso   1.00
H681   H     0.53937   0.41915   0.84340   0.00000  Uiso   1.00
H682   H     0.61911   0.44225   0.84697   0.00000  Uiso   1.00
H683   H     0.43140   0.65352   0.74343   0.00000  Uiso   1.00
H684   H     0.33690   0.53950   0.78978   0.00000  Uiso   1.00
H685   H     0.66303   0.46039   0.71034   0.00000  Uiso   1.00
H686   H     0.64805   0.50653   0.91939   0.00000  Uiso   1.00
H687   H     0.34282   0.53846   0.50144   0.00000  Uiso   1.00
H688   H     0.45790   0.47349   0.58773   0.00000  Uiso   1.00
H689   H     0.35430   0.43327   0.89310   0.00000  Uiso   1.00
H690   H     0.39105   0.44322   0.54352   0.00000  Uiso   1.00
N691   N     0.64908   0.51407   0.76416   0.00000  Uiso   1.00
N692   N     0.35092   0.48593   0.73584   0.00000  Uiso   1.00
O693   O     0.46131   0.57141   0.74633   0.00000  Uiso   1.00
O694   O     0.56191   0.58089   0.75586   0.00000  Uiso   1.00
O695   O     0.42515   0.49293   0.81840   0.00000  Uiso   1.00
O696   O     0.52575   0.50241   0.82793   0.00000  Uiso   1.00
O697   O     0.43809   0.41911   0.74414   0.00000  Uiso   1.00
O698   O     0.53869   0.42859   0.75367   0.00000  Uiso   1.00
O699   O     0.47425   0.49759   0.67207   0.00000  Uiso   1.00
O700   O     0.57485   0.50707   0.68160   0.00000  Uiso   1.00
C701   C     0.84832   0.59998   0.75176   0.00000  Uiso   1.00
C702   C     0.78166   0.46738   0.89846   0.00000  Uiso   1.00
C703   C     0.85660   0.65602   0.75285   0.00000  Uiso   1.00
C704   C     0.79991   0.48826   0.84560   0.00000  Uiso   1.00
C705   C     0.80981   0.34400   0.74798   0.00000  Uiso   1.00
C706   C     0.81827   0.40001   0.74849   0.00000  Uiso   1.00
C707   C     0.86647   0.50346   0.65302   0.00000  Uiso   1.00
C708   C     0.96144   0.52432   0.51971   0.00000  Uiso   1.00
C709   C     0.88461   0.50477   0.59717   0.00000  Uiso   1.00
C710   C     0.72034   0.44355   0.91821   0.00000  Uiso   1.00
C711   C     0.70128   0.43326   0.97026   0.00000  Uiso   1.00
C712   C     0.80675   0.46879   0.98368   0.00000  Uiso   1.00
C713   C     0.74303   0.44889   0.50337   0.00000  Uiso   1.00
C714   C     0.90526   0.42868   0.87011   0.00000  Uiso   1.00
C715   C     0.89924   0.37633   0.89529   0.00000  Uiso   1.00
C716   C     0.82604   0.46998   0.92998   0.00000  Uiso   1.00
C717   C     0.85271   0.48617   0.51446   0.00000  Uiso   1.00
C718   C     0.91574   0.50403   0.99041   0.00000  Uiso   1.00
C719   C     0.93312   0.49652   0.93774   0.00000  Uiso   1.00
C720   C     0.88883   0.47061   0.90969   0.00000  Uiso   1.00
C721   C     0.83831   0.48708   0.56794   0.00000  Uiso   1.00
C722   C     0.94612   0.52399   0.57289   0.00000  Uiso   1.00
Cu723  Cu    0.77377   0.49439   0.74436   0.00000  Uiso   1.00
Cu724  Cu    0.89290   0.50561   0.75564   0.00000  Uiso   1.00
H725   H     0.98222   0.53852   0.59494   0.00000  Uiso   1.00
H726   H     0.98660   0.41572   0.98567   0.00000  Uiso   1.00
H727   H     0.90164   0.34651   0.75752   0.00000  Uiso   1.00
H728   H     0.92492   0.38143   0.92709   0.00000  Uiso   1.00
H729   H     0.84955   0.35914   0.91085   0.00000  Uiso   1.00
H730   H     0.91761   0.34816   0.86645   0.00000  Uiso   1.00
H731   H     0.87270   0.41915   0.84340   0.00000  Uiso   1.00
H732   H     0.95244   0.44225   0.84697   0.00000  Uiso   1.00
H733   H     0.76473   0.65352   0.74343   0.00000  Uiso   1.00
H734   H     0.67023   0.53950   0.78978   0.00000  Uiso   1.00
H735   H     0.99636   0.46039   0.71034   0.00000  Uiso   1.00
H736   H     0.98138   0.50653   0.91939   0.00000  Uiso   1.00
H737   H     0.67615   0.53846   0.50144   0.00000  Uiso   1.00
H738   H     0.79123   0.47349   0.58773   0.00000  Uiso   1.00
H739   H     0.68764   0.43327   0.89310   0.00000  Uiso   1.00
H740   H     0.72439   0.44322   0.54352   0.00000  Uiso   1.00
N741   N     0.98241   0.51407   0.76416   0.00000  Uiso   1.00
N742   N     0.68426   0.48593   0.73584   0.00000  Uiso   1.00
O743   O     0.79464   0.57141   0.74633   0.00000  Uiso   1.00
O744   O     0.89524   0.58089   0.75586   0.00000  Uiso   1.00
O745   O     0.75848   0.49293   0.81840   0.00000  Uiso   1.00
O746   O     0.85908   0.50241   0.82793   0.00000  Uiso   1.00
O747   O     0.77142   0.41911   0.74414   0.00000  Uiso   1.00
O748   O     0.87203   0.42859   0.75367   0.00000  Uiso   1.00
O749   O     0.80758   0.49759   0.67207   0.00000  Uiso   1.00
O750   O     0.90819   0.50707   0.68160   0.00000  Uiso   1.00
C751   C     0.18165   0.93332   0.75176   0.00000  Uiso   1.00
C752   C     0.11499   0.80071   0.89846   0.00000  Uiso   1.00
C753   C     0.18994   0.98935   0.75285   0.00000  Uiso   1.00
C754   C     0.13325   0.82160   0.84560   0.00000  Uiso   1.00
C755   C     0.14314   0.67733   0.74798   0.00000  Uiso   1.00
C756   C     0.15160   0.73335   0.74849   0.00000  Uiso   1.00
C757   C     0.19980   0.83679   0.65302   0.00000  Uiso   1.00
C758   C     0.29477   0.85765   0.51971   0.00000  Uiso   1.00
C759   C     0.21794   0.83810   0.59717   0.00000  Uiso   1.00
C760   C     0.05367   0.77688   0.91821   0.00000  Uiso   1.00
C761   C     0.03461   0.76660   0.97026   0.00000  Uiso   1.00
C762   C     0.14008   0.80212   0.98368   0.00000  Uiso   1.00
C763   C     0.07637   0.78223   0.50337   0.00000  Uiso   1.00
C764   C     0.23859   0.76202   0.87011   0.00000  Uiso   1.00
C765   C     0.23258   0.70966   0.89529   0.00000  Uiso   1.00
C766   C     0.15937   0.80332   0.92998   0.00000  Uiso   1.00
C767   C     0.18604   0.81950   0.51446   0.00000  Uiso   1.00
C768   C     0.24908   0.83737   0.99041   0.00000  Uiso   1.00
C769   C     0.26645   0.82986   0.93774   0.00000  Uiso   1.00
C770   C     0.22216   0.80394   0.90969   0.00000  Uiso   1.00
C771   C     0.17164   0.82042   0.56794   0.00000  Uiso   1.00
C772   C     0.27945   0.85732   0.57289   0.00000  Uiso   1.00
Cu773  Cu    0.10710   0.82772   0.74436   0.00000  Uiso   1.00
Cu774  Cu    0.22623   0.83895   0.75564   0.00000  Uiso   1.00
H775   H     0.31555   0.87185   0.59494   0.00000  Uiso   1.00
H776   H     0.31993   0.74905   0.98567   0.00000  Uiso   1.00
H777   H     0.23497   0.67984   0.75752   0.00000  Uiso   1.00
H778   H     0.25825   0.71476   0.92709   0.00000  Uiso   1.00
H779   H     0.18289   0.69248   0.91085   0.00000  Uiso   1.00
H780   H     0.25094   0.68149   0.86645   0.00000  Uiso   1.00
H781   H     0.20603   0.75249   0.84340   0.00000  Uiso   1.00
H782   H     0.28578   0.77558   0.84697   0.00000  Uiso   1.00
H783   H     0.09806   0.98685   0.74343   0.00000  Uiso   1.00
H784   H     0.00356   0.87283   0.78978   0.00000  Uiso   1.00
H785   H     0.32970   0.79372   0.71034   0.00000  Uiso   1.00
H786   H     0.31472   0.83987   0.91939   0.00000  Uiso   1.00
H787   H     0.00949   0.87180   0.50144   0.00000  Uiso   1.00
H788   H     0.12457   0.80683   0.58773   0.00000  Uiso   1.00
H789   H     0.02097   0.76661   0.89310   0.00000  Uiso   1.00
H790   H     0.05772   0.77656   0.54352   0.00000  Uiso   1.00
N791   N     0.31574   0.84741   0.76416   0.00000  Uiso   1.00
N792   N     0.01759   0.81926   0.73584   0.00000  Uiso   1.00
O793   O     0.12797   0.90474   0.74633   0.00000  Uiso   1.00
O794   O     0.22858   0.91422   0.75586   0.00000  Uiso   1.00
O795   O     0.09181   0.82627   0.81840   0.00000  Uiso   1.00
O796   O     0.19242   0.83575   0.82793   0.00000  Uiso   1.00
O797   O     0.10476   0.75245   0.74414   0.00000  Uiso   1.00
O798   O     0.20536   0.76193   0.75367   0.00000  Uiso   1.00
O799   O     0.14092   0.83092   0.67207   0.00000  Uiso   1.00
O800   O     0.24152   0.84040   0.68160   0.00000  Uiso   1.00
C801   C     0.51498   0.93332   0.75176   0.00000  Uiso   1.00
C802   C     0.44832   0.80071   0.89846   0.00000  Uiso   1.00
C803   C     0.52327   0.98935   0.75285   0.00000  Uiso   1.00
C804   C     0.46658   0.82160   0.84560   0.00000  Uiso   1.00
C805   C     0.47647   0.67733   0.74798   0.00000  Uiso   1.00
C806   C     0.48493   0.73335   0.74849   0.00000  Uiso   1.00
C807   C     0.53314   0.83679   0.65302   0.00000  Uiso   1.00
C808   C     0.62811   0.85765   0.51971   0.00000  Uiso   1.00
C809   C     0.55128   0.83810   0.59717   0.00000  Uiso   1.00
C810   C     0.38700   0.77688   0.91821   0.00000  Uiso   1.00
C811   C     0.36794   0.76660   0.97026   0.00000  Uiso   1.00
C812   C     0.47342   0.80212   0.98368   0.00000  Uiso   1.00
C813   C     0.40970   0.78223   0.50337   0.00000  Uiso   1.00
C814   C     0.57193   0.76202   0.87011   0.00000  Uiso   1.00
C815   C     0.56591   0.70966   0.89529   0.00000  Uiso   1.00
C816   C     0.49270   0.80332   0.92998   0.00000  Uiso   1.00
C817   C     0.51938   0.81950   0.51446   0.00000  Uiso   1.00
C818   C     0.58241   0.83737   0.99041   0.00000  Uiso   1.00
C819   C     0.59979   0.82986   0.93774   0.00000  Uiso   1.00
C820   C     0.55549   0.80394   0.90969   0.00000  Uiso   1.00
C821   C     0.50498   0.82042   0.56794   0.00000  Uiso   1.00
C822   C     0.61278   0.85732   0.57289   0.00000  Uiso   1.00
Cu823  Cu    0.44043   0.82772   0.74436   0.00000  Uiso   1.00
Cu824  Cu    0.55957   0.83895   0.75564   0.00000  Uiso   1.00
H825   H     0.64889   0.87185   0.59494   0.00000  Uiso   1.00
H826   H     0.65326   0.74905   0.98567   0.00000  Uiso   1.00
H827   H     0.56831   0.67984   0.75752   0.00000  Uiso   1.00
H828   H     0.59158   0.71476   0.92709   0.00000  Uiso   1.00
H829   H     0.51622   0.69248   0.91085   0.00000  Uiso   1.00
H830   H     0.58427   0.68149   0.86645   0.00000  Uiso   1.00
H831   H     0.53937   0.75249   0.84340   0.00000  Uiso   1.00
H832   H     0.61911   0.77558   0.84697   0.00000  Uiso   1.00
H833   H     0.43140   0.98685   0.74343   0.00000  Uiso   1.00
H834   H     0.33690   0.87283   0.78978   0.00000  Uiso   1.00
H835   H     0.66303   0.79372   0.71034   0.00000  Uiso   1.00
H836   H     0.64805   0.83987   0.91939   0.00000  Uiso   1.00
H837   H     0.34282   0.87180   0.50144   0.00000  Uiso   1.00
H838   H     0.45790   0.80683   0.58773   0.00000  Uiso   1.00
H839   H     0.35430   0.76661   0.89310   0.00000  Uiso   1.00
H840   H     0.39105   0.77656   0.54352   0.00000  Uiso   1.00
N841   N     0.64908   0.84741   0.76416   0.00000  Uiso   1.00
N842   N     0.35092   0.81926   0.73584   0.00000  Uiso   1.00
O843   O     0.46131   0.90474   0.74633   0.00000  Uiso   1.00
O844   O     0.56191   0.91422   0.75586   0.00000  Uiso   1.00
O845   O     0.42515   0.82627   0.81840   0.00000  Uiso   1.00
O846   O     0.52575   0.83575   0.82793   0.00000  Uiso   1.00
O847   O     0.43809   0.75245   0.74414   0.00000  Uiso   1.00
O848   O     0.53869   0.76193   0.75367   0.00000  Uiso   1.00
O849   O     0.47425   0.83092   0.67207   0.00000  Uiso   1.00
O850   O     0.57485   0.84040   0.68160   0.00000  Uiso   1.00
C851   C     0.84832   0.93332   0.75176   0.00000  Uiso   1.00
C852   C     0.78166   0.80071   0.89846   0.00000  Uiso   1.00
C853   C     0.85660   0.98935   0.75285   0.00000  Uiso   1.00
C854   C     0.79991   0.82160   0.84560   0.00000  Uiso   1.00
C855   C     0.80981   0.67733   0.74798   0.00000  Uiso   1.00
C856   C     0.81827   0.73335   0.74849   0.00000  Uiso   1.00
C857   C     0.86647   0.83679   0.65302   0.00000  Uiso   1.00
C858   C     0.96144   0.85765   0.51971   0.00000  Uiso   1.00
C859   C     0.88461   0.83810   0.59717   0.00000  Uiso   1.00
C860   C     0.72034   0.77688   0.91821   0.00000  Uiso   1.00
C861   C     0.70128   0.76660   0.97026   0.00000  Uiso   1.00
C862   C     0.80675   0.80212   0.98368   0.00000  Uiso   1.00
C863   C     0.74303   0.78223   0.50337   0.00000  Uiso   1.00
C864   C     0.90526   0.76202   0.87011   0.00000  Uiso   1.00
C865   C     0.89924   0.70966   0.89529   0.00000  Uiso   1.00
C866   C     0.82604   0.80332   0.92998   0.00000  Uiso   1.00
C867   C     0.85271   0.81950   0.51446   0.00000  Uiso   1.00
C868   C     0.91574   0.83737   0.99041   0.00000  Uiso   1.00
C869   C     0.93312   0.82986   0.93774   0.00000  Uiso   1.00
C870   C     0.88883   0.80394   0.90969   0.00000  Uiso   1.00
C871   C     0.83831   0.82042   0.56794   0.00000  Uiso   1.00
C872   C     0.94612   0.85732   0.57289   0.00000  Uiso   1.00
Cu873  Cu    0.77377   0.82772   0.74436   0.00000  Uiso   1.00
Cu874  Cu    0.89290   0.83895   0.75564   0.00000  Uiso   1.00
H875   H     0.98222   0.87185   0.59494   0.00000  Uiso   1.00
H876   H     0.98660   0.74905   0.98567   0.00000  Uiso   1.00
H877   H     0.90164   0.67984   0.75752   0.00000  Uiso   1.00
H878   H     0.92492   0.71476   0.92709   0.00000  Uiso   1.00
H879   H     0.84955   0.69248   0.91085   0.00000  Uiso   1.00
H880   H     0.91761   0.68149   0.86645   0.00000  Uiso   1.00
H881   H     0.87270   0.75249   0.84340   0.00000  Uiso   1.00
H882   H     0.95244   0.77558   0.84697   0.00000  Uiso   1.00
H883   H     0.76473   0.98685   0.74343   0.00000  Uiso   1.00
H884   H     0.67023   0.87283   0.78978   0.00000  Uiso   1.00
H885   H     0.99636   0.79372   0.71034   0.00000  Uiso   1.00
H886   H     0.98138   0.83987   0.91939   0.00000  Uiso   1.00
H887   H     0.67615   0.87180   0.50144   0.00000  Uiso   1.00
H888   H     0.79123   0.80683   0.58773   0.00000  Uiso   1.00
H889   H     0.68764   0.76661   0.89310   0.00000  Uiso   1.00
H890   H     0.72439   0.77656   0.54352   0.00000  Uiso   1.00
N891   N     0.98241   0.84741   0.76416   0.00000  Uiso   1.00
N892   N     0.68426   0.81926   0.73584   0.00000  Uiso   1.00
O893   O     0.79464   0.90474   0.74633   0.00000  Uiso   1.00
O894   O     0.89524   0.91422   0.75586   0.00000  Uiso   1.00
O895   O     0.75848   0.82627   0.81840   0.00000  Uiso   1.00
O896   O     0.85908   0.83575   0.82793   0.00000  Uiso   1.00
O897   O     0.77142   0.75245   0.74414   0.00000  Uiso   1.00
O898   O     0.87203   0.76193   0.75367   0.00000  Uiso   1.00
O899   O     0.80758   0.83092   0.67207   0.00000  Uiso   1.00
O900   O     0.90819   0.84040   0.68160   0.00000  Uiso   1.00
loop_
_geom_bond_atom_site_label_1
_geom_bond_atom_site_label_2
_geom_bond_distance
_geom_bond_site_symmetry_2
_ccdc_geom_bond_type
C1     O44     1.292   .     A
C1     O43     1.297   .     A
C1     C3      1.428   .     S
C2     C16     1.419   .     A
C2     C4      1.493   .     S
C2     C10     1.390   .     A
C3     C155    1.329   .     S
C3     H177    1.088   .     S
C4     O46     1.296   .     A
C4     O45     1.323   .     A
C5     C6      1.428   .     S
C5     C303    1.329   1_545 S
C5     H333    1.088   1_545 S
C6     O48     1.297   .     A
C6     O47     1.292   .     A
C7     O49     1.298   .     A
C7     C9      1.466   .     S
C7     O50     1.309   .     A
C8     C22     1.393   .     A
C8     C468    1.404   1_554 S
C8     H87     1.084   .     S
C9     C21     1.403   .     A
C9     C22     1.399   .     A
C10    C11     1.396   .     A
C10    H39     1.072   .     S
C11    C463    1.394   .     S
C11    H126    1.081   1_455 S
C12    C16     1.413   .     A
C12    C463    1.414   .     S
C12    C467    1.425   .     S
C13    H40     1.077   .     S
C13    C462    1.414   1_554 S
C13    C461    1.394   1_554 S
C14    H31     1.101   .     S
C14    C20     1.521   .     S
C14    C15     1.529   .     S
C14    H32     1.109   .     S
C15    H28     1.105   .     S
C15    H29     1.111   .     S
C15    H30     1.111   .     S
C16    C20     1.405   .     A
C17    C21     1.399   .     A
C17    C462    1.425   1_554 S
C17    C468    1.420   1_554 S
C18    C19     1.395   .     A
C18    C467    1.420   .     S
C18    C458    1.404   .     S
C19    C20     1.392   .     A
C19    H36     1.078   .     S
C21    H38     1.076   .     S
C22    H25     1.083   .     S
Cu23   Cu24    2.707   .     S
Cu23   O45     1.939   .     S
Cu23   O49     1.927   .     S
Cu23   O47     1.949   .     S
Cu23   O43     1.954   .     S
Cu23   N42     2.034   .     S
Cu24   O46     1.927   .     S
Cu24   N41     2.034   .     S
Cu24   O50     1.939   .     S
Cu24   O44     1.949   .     S
Cu24   O48     1.954   .     S
H26    C61     1.081   .     S
H27    C303    1.088   1_545 S
H33    C155    1.088   .     S
H34    N141    1.029   1_455 S
H35    N92     1.029   .     S
H37    C108    1.084   1_455 S
N41    H84     1.029   .     S
N41    N92     1.297   .     S
N42    N141    1.297   1_455 S
N42    H135    1.029   1_455 S
C51    O94     1.292   .     A
C51    O93     1.297   .     A
C51    C53     1.428   .     S
C52    C66     1.419   .     A
C52    C54     1.493   .     S
C52    C60     1.390   .     A
C53    C205    1.329   .     S
C53    H227    1.088   .     S
C54    O96     1.296   .     A
C54    O95     1.323   .     A
C55    C56     1.428   .     S
C55    C353    1.329   1_545 S
C55    H383    1.088   1_545 S
C56    O98     1.297   .     A
C56    O97     1.292   .     A
C57    O99     1.298   .     A
C57    C59     1.466   .     S
C57    O100    1.309   .     A
C58    C72     1.393   .     A
C58    C518    1.404   1_554 S
C58    H137    1.084   .     S
C59    C71     1.403   .     A
C59    C72     1.399   .     A
C60    C61     1.396   .     A
C60    H89     1.072   .     S
C61    C513    1.394   .     S
C62    C66     1.413   .     A
C62    C513    1.414   .     S
C62    C517    1.425   .     S
C63    H90     1.077   .     S
C63    C512    1.414   1_554 S
C63    C511    1.394   1_554 S
C64    H81     1.101   .     S
C64    C70     1.521   .     S
C64    C65     1.529   .     S
C64    H82     1.109   .     S
C65    H78     1.105   .     S
C65    H79     1.111   .     S
C65    H80     1.111   .     S
C66    C70     1.405   .     A
C67    C71     1.399   .     A
C67    C512    1.425   1_554 S
C67    C518    1.420   1_554 S
C68    C69     1.395   .     A
C68    C517    1.420   .     S
C68    C508    1.404   .     S
C69    C70     1.392   .     A
C69    H86     1.078   .     S
C71    H88     1.076   .     S
C72    H75     1.083   .     S
Cu73   Cu74    2.707   .     S
Cu73   O95     1.939   .     S
Cu73   O99     1.927   .     S
Cu73   O97     1.949   .     S
Cu73   O93     1.954   .     S
Cu73   N92     2.034   .     S
Cu74   O96     1.927   .     S
Cu74   N91     2.034   .     S
Cu74   O100    1.939   .     S
Cu74   O94     1.949   .     S
Cu74   O98     1.954   .     S
H76    C111    1.081   .     S
H77    C353    1.088   1_545 S
H83    C205    1.088   .     S
H85    N142    1.029   .     S
N91    H134    1.029   .     S
N91    N142    1.297   .     S
C101   O144    1.292   .     A
C101   O143    1.297   .     A
C101   C103    1.428   .     S
C102   C116    1.419   .     A
C102   C104    1.493   .     S
C102   C110    1.390   .     A
C103   C255    1.329   .     S
C103   H277    1.088   .     S
C104   O146    1.296   .     A
C104   O145    1.323   .     A
C105   C106    1.428   .     S
C105   C403    1.329   1_545 S
C105   H433    1.088   1_545 S
C106   O148    1.297   .     A
C106   O147    1.292   .     A
C107   O149    1.298   .     A
C107   C109    1.466   .     S
C107   O150    1.309   .     A
C108   C122    1.393   .     A
C108   C568    1.404   1_554 S
C108   H37     1.084   1_655 S
C109   C121    1.403   .     A
C109   C122    1.399   .     A
C110   C111    1.396   .     A
C110   H139    1.072   .     S
C111   C563    1.394   .     S
C112   C116    1.413   .     A
C112   C563    1.414   .     S
C112   C567    1.425   .     S
C113   H140    1.077   .     S
C113   C562    1.414   1_554 S
C113   C561    1.394   1_554 S
C114   H131    1.101   .     S
C114   C120    1.521   .     S
C114   C115    1.529   .     S
C114   H132    1.109   .     S
C115   H128    1.105   .     S
C115   H129    1.111   .     S
C115   H130    1.111   .     S
C116   C120    1.405   .     A
C117   C121    1.399   .     A
C117   C562    1.425   1_554 S
C117   C568    1.420   1_554 S
C118   C119    1.395   .     A
C118   C567    1.420   .     S
C118   C558    1.404   .     S
C119   C120    1.392   .     A
C119   H136    1.078   .     S
C121   H138    1.076   .     S
C122   H125    1.083   .     S
Cu123  Cu124   2.707   .     S
Cu123  O145    1.939   .     S
Cu123  O149    1.927   .     S
Cu123  O147    1.949   .     S
Cu123  O143    1.954   .     S
Cu123  N142    2.034   .     S
Cu124  O146    1.927   .     S
Cu124  N141    2.034   .     S
Cu124  O150    1.939   .     S
Cu124  O144    1.949   .     S
Cu124  O148    1.954   .     S
H126   C11     1.081   1_655 S
H127   C403    1.088   1_545 S
H133   C255    1.088   .     S
H135   N42     1.029   1_655 S
N141   H34     1.029   1_655 S
N141   N42     1.297   1_655 S
C151   O194    1.292   .     A
C151   O193    1.297   .     A
C151   C153    1.428   .     S
C152   C166    1.419   .     A
C152   C154    1.493   .     S
C152   C160    1.390   .     A
C153   C305    1.329   .     S
C153   H327    1.088   .     S
C154   O196    1.296   .     A
C154   O195    1.323   .     A
C155   C156    1.428   .     S
C156   O198    1.297   .     A
C156   O197    1.292   .     A
C157   O199    1.298   .     A
C157   C159    1.466   .     S
C157   O200    1.309   .     A
C158   C172    1.393   .     A
C158   C618    1.404   1_554 S
C158   H237    1.084   .     S
C159   C171    1.403   .     A
C159   C172    1.399   .     A
C160   C161    1.396   .     A
C160   H189    1.072   .     S
C161   C613    1.394   .     S
C161   H276    1.081   1_455 S
C162   C166    1.413   .     A
C162   C613    1.414   .     S
C162   C617    1.425   .     S
C163   H190    1.077   .     S
C163   C612    1.414   1_554 S
C163   C611    1.394   1_554 S
C164   H181    1.101   .     S
C164   C170    1.521   .     S
C164   C165    1.529   .     S
C164   H182    1.109   .     S
C165   H178    1.105   .     S
C165   H179    1.111   .     S
C165   H180    1.111   .     S
C166   C170    1.405   .     A
C167   C171    1.399   .     A
C167   C612    1.425   1_554 S
C167   C618    1.420   1_554 S
C168   C169    1.395   .     A
C168   C617    1.420   .     S
C168   C608    1.404   .     S
C169   C170    1.392   .     A
C169   H186    1.078   .     S
C171   H188    1.076   .     S
C172   H175    1.083   .     S
Cu173  Cu174   2.707   .     S
Cu173  O195    1.939   .     S
Cu173  O199    1.927   .     S
Cu173  O197    1.949   .     S
Cu173  O193    1.954   .     S
Cu173  N192    2.034   .     S
Cu174  O196    1.927   .     S
Cu174  N191    2.034   .     S
Cu174  O200    1.939   .     S
Cu174  O194    1.949   .     S
Cu174  O198    1.954   .     S
H176   C211    1.081   .     S
H183   C305    1.088   .     S
H184   N291    1.029   1_455 S
H185   N242    1.029   .     S
H187   C258    1.084   1_455 S
N191   H234    1.029   .     S
N191   N242    1.297   .     S
N192   N291    1.297   1_455 S
N192   H285    1.029   1_455 S
C201   O244    1.292   .     A
C201   O243    1.297   .     A
C201   C203    1.428   .     S
C202   C216    1.419   .     A
C202   C204    1.493   .     S
C202   C210    1.390   .     A
C203   C355    1.329   .     S
C203   H377    1.088   .     S
C204   O246    1.296   .     A
C204   O245    1.323   .     A
C205   C206    1.428   .     S
C206   O248    1.297   .     A
C206   O247    1.292   .     A
C207   O249    1.298   .     A
C207   C209    1.466   .     S
C207   O250    1.309   .     A
C208   C222    1.393   .     A
C208   C668    1.404   1_554 S
C208   H287    1.084   .     S
C209   C221    1.403   .     A
C209   C222    1.399   .     A
C210   C211    1.396   .     A
C210   H239    1.072   .     S
C211   C663    1.394   .     S
C212   C216    1.413   .     A
C212   C663    1.414   .     S
C212   C667    1.425   .     S
C213   H240    1.077   .     S
C213   C662    1.414   1_554 S
C213   C661    1.394   1_554 S
C214   H231    1.101   .     S
C214   C220    1.521   .     S
C214   C215    1.529   .     S
C214   H232    1.109   .     S
C215   H228    1.105   .     S
C215   H229    1.111   .     S
C215   H230    1.111   .     S
C216   C220    1.405   .     A
C217   C221    1.399   .     A
C217   C662    1.425   1_554 S
C217   C668    1.420   1_554 S
C218   C219    1.395   .     A
C218   C667    1.420   .     S
C218   C658    1.404   .     S
C219   C220    1.392   .     A
C219   H236    1.078   .     S
C221   H238    1.076   .     S
C222   H225    1.083   .     S
Cu223  Cu224   2.707   .     S
Cu223  O245    1.939   .     S
Cu223  O249    1.927   .     S
Cu223  O247    1.949   .     S
Cu223  O243    1.954   .     S
Cu223  N242    2.034   .     S
Cu224  O246    1.927   .     S
Cu224  N241    2.034   .     S
Cu224  O250    1.939   .     S
Cu224  O244    1.949   .     S
Cu224  O248    1.954   .     S
H226   C261    1.081   .     S
H233   C355    1.088   .     S
H235   N292    1.029   .     S
N241   H284    1.029   .     S
N241   N292    1.297   .     S
C251   O294    1.292   .     A
C251   O293    1.297   .     A
C251   C253    1.428   .     S
C252   C266    1.419   .     A
C252   C254    1.493   .     S
C252   C260    1.390   .     A
C253   C405    1.329   .     S
C253   H427    1.088   .     S
C254   O296    1.296   .     A
C254   O295    1.323   .     A
C255   C256    1.428   .     S
C256   O298    1.297   .     A
C256   O297    1.292   .     A
C257   O299    1.298   .     A
C257   C259    1.466   .     S
C257   O300    1.309   .     A
C258   C272    1.393   .     A
C258   C718    1.404   1_554 S
C258   H187    1.084   1_655 S
C259   C271    1.403   .     A
C259   C272    1.399   .     A
C260   C261    1.396   .     A
C260   H289    1.072   .     S
C261   C713    1.394   .     S
C262   C266    1.413   .     A
C262   C713    1.414   .     S
C262   C717    1.425   .     S
C263   H290    1.077   .     S
C263   C712    1.414   1_554 S
C263   C711    1.394   1_554 S
C264   H281    1.101   .     S
C264   C270    1.521   .     S
C264   C265    1.529   .     S
C264   H282    1.109   .     S
C265   H278    1.105   .     S
C265   H279    1.111   .     S
C265   H280    1.111   .     S
C266   C270    1.405   .     A
C267   C271    1.399   .     A
C267   C712    1.425   1_554 S
C267   C718    1.420   1_554 S
C268   C269    1.395   .     A
C268   C717    1.420   .     S
C268   C708    1.404   .     S
C269   C270    1.392   .     A
C269   H286    1.078   .     S
C271   H288    1.076   .     S
C272   H275    1.083   .     S
Cu273  Cu274   2.707   .     S
Cu273  O295    1.939   .     S
Cu273  O299    1.927   .     S
Cu273  O297    1.949   .     S
Cu273  O293    1.954   .     S
Cu273  N292    2.034   .     S
Cu274  O296    1.927   .     S
Cu274  N291    2.034   .     S
Cu274  O300    1.939   .     S
Cu274  O294    1.949   .     S
Cu274  O298    1.954   .     S
H276   C161    1.081   1_655 S
H283   C405    1.088   .     S
H285   N192    1.029   1_655 S
N291   H184    1.029   1_655 S
N291   N192    1.297   1_655 S
C301   O344    1.292   .     A
C301   O343    1.297   .     A
C301   C303    1.428   .     S
C302   C316    1.419   .     A
C302   C304    1.493   .     S
C302   C310    1.390   .     A
C303   C5      1.329   1_565 S
C303   H27     1.088   1_565 S
C304   O346    1.296   .     A
C304   O345    1.323   .     A
C305   C306    1.428   .     S
C306   O348    1.297   .     A
C306   O347    1.292   .     A
C307   O349    1.298   .     A
C307   C309    1.466   .     S
C307   O350    1.309   .     A
C308   C322    1.393   .     A
C308   C768    1.404   1_554 S
C308   H387    1.084   .     S
C309   C321    1.403   .     A
C309   C322    1.399   .     A
C310   C311    1.396   .     A
C310   H339    1.072   .     S
C311   C763    1.394   .     S
C311   H426    1.081   1_455 S
C312   C316    1.413   .     A
C312   C763    1.414   .     S
C312   C767    1.425   .     S
C313   H340    1.077   .     S
C313   C762    1.414   1_554 S
C313   C761    1.394   1_554 S
C314   H331    1.101   .     S
C314   C320    1.521   .     S
C314   C315    1.529   .     S
C314   H332    1.109   .     S
C315   H328    1.105   .     S
C315   H329    1.111   .     S
C315   H330    1.111   .     S
C316   C320    1.405   .     A
C317   C321    1.399   .     A
C317   C762    1.425   1_554 S
C317   C768    1.420   1_554 S
C318   C319    1.395   .     A
C318   C767    1.420   .     S
C318   C758    1.404   .     S
C319   C320    1.392   .     A
C319   H336    1.078   .     S
C321   H338    1.076   .     S
C322   H325    1.083   .     S
Cu323  Cu324   2.707   .     S
Cu323  O345    1.939   .     S
Cu323  O349    1.927   .     S
Cu323  O347    1.949   .     S
Cu323  O343    1.954   .     S
Cu323  N342    2.034   .     S
Cu324  O346    1.927   .     S
Cu324  N341    2.034   .     S
Cu324  O350    1.939   .     S
Cu324  O344    1.949   .     S
Cu324  O348    1.954   .     S
H326   C361    1.081   .     S
H333   C5      1.088   1_565 S
H334   N441    1.029   1_455 S
H335   N392    1.029   .     S
H337   C408    1.084   1_455 S
N341   H384    1.029   .     S
N341   N392    1.297   .     S
N342   N441    1.297   1_455 S
N342   H435    1.029   1_455 S
C351   O394    1.292   .     A
C351   O393    1.297   .     A
C351   C353    1.428   .     S
C352   C366    1.419   .     A
C352   C354    1.493   .     S
C352   C360    1.390   .     A
C353   C55     1.329   1_565 S
C353   H77     1.088   1_565 S
C354   O396    1.296   .     A
C354   O395    1.323   .     A
C355   C356    1.428   .     S
C356   O398    1.297   .     A
C356   O397    1.292   .     A
C357   O399    1.298   .     A
C357   C359    1.466   .     S
C357   O400    1.309   .     A
C358   C372    1.393   .     A
C358   C818    1.404   1_554 S
C358   H437    1.084   .     S
C359   C371    1.403   .     A
C359   C372    1.399   .     A
C360   C361    1.396   .     A
C360   H389    1.072   .     S
C361   C813    1.394   .     S
C362   C366    1.413   .     A
C362   C813    1.414   .     S
C362   C817    1.425   .     S
C363   H390    1.077   .     S
C363   C812    1.414   1_554 S
C363   C811    1.394   1_554 S
C364   H381    1.101   .     S
C364   C370    1.521   .     S
C364   C365    1.529   .     S
C364   H382    1.109   .     S
C365   H378    1.105   .     S
C365   H379    1.111   .     S
C365   H380    1.111   .     S
C366   C370    1.405   .     A
C367   C371    1.399   .     A
C367   C812    1.425   1_554 S
C367   C818    1.420   1_554 S
C368   C369    1.395   .     A
C368   C817    1.420   .     S
C368   C808    1.404   .     S
C369   C370    1.392   .     A
C369   H386    1.078   .     S
C371   H388    1.076   .     S
C372   H375    1.083   .     S
Cu373  Cu374   2.707   .     S
Cu373  O395    1.939   .     S
Cu373  O399    1.927   .     S
Cu373  O397    1.949   .     S
Cu373  O393    1.954   .     S
Cu373  N392    2.034   .     S
Cu374  O396    1.927   .     S
Cu374  N391    2.034   .     S
Cu374  O400    1.939   .     S
Cu374  O394    1.949   .     S
Cu374  O398    1.954   .     S
H376   C411    1.081   .     S
H383   C55     1.088   1_565 S
H385   N442    1.029   .     S
N391   H434    1.029   .     S
N391   N442    1.297   .     S
C401   O444    1.292   .     A
C401   O443    1.297   .     A
C401   C403    1.428   .     S
C402   C416    1.419   .     A
C402   C404    1.493   .     S
C402   C410    1.390   .     A
C403   C105    1.329   1_565 S
C403   H127    1.088   1_565 S
C404   O446    1.296   .     A
C404   O445    1.323   .     A
C405   C406    1.428   .     S
C406   O448    1.297   .     A
C406   O447    1.292   .     A
C407   O449    1.298   .     A
C407   C409    1.466   .     S
C407   O450    1.309   .     A
C408   C422    1.393   .     A
C408   C868    1.404   1_554 S
C408   H337    1.084   1_655 S
C409   C421    1.403   .     A
C409   C422    1.399   .     A
C410   C411    1.396   .     A
C410   H439    1.072   .     S
C411   C863    1.394   .     S
C412   C416    1.413   .     A
C412   C863    1.414   .     S
C412   C867    1.425   .     S
C413   H440    1.077   .     S
C413   C862    1.414   1_554 S
C413   C861    1.394   1_554 S
C414   H431    1.101   .     S
C414   C420    1.521   .     S
C414   C415    1.529   .     S
C414   H432    1.109   .     S
C415   H428    1.105   .     S
C415   H429    1.111   .     S
C415   H430    1.111   .     S
C416   C420    1.405   .     A
C417   C421    1.399   .     A
C417   C862    1.425   1_554 S
C417   C868    1.420   1_554 S
C418   C419    1.395   .     A
C418   C867    1.420   .     S
C418   C858    1.404   .     S
C419   C420    1.392   .     A
C419   H436    1.078   .     S
C421   H438    1.076   .     S
C422   H425    1.083   .     S
Cu423  Cu424   2.707   .     S
Cu423  O445    1.939   .     S
Cu423  O449    1.927   .     S
Cu423  O447    1.949   .     S
Cu423  O443    1.954   .     S
Cu423  N442    2.034   .     S
Cu424  O446    1.927   .     S
Cu424  N441    2.034   .     S
Cu424  O450    1.939   .     S
Cu424  O444    1.949   .     S
Cu424  O448    1.954   .     S
H426   C311    1.081   1_655 S
H433   C105    1.088   1_565 S
H435   N342    1.029   1_655 S
N441   H334    1.029   1_655 S
N441   N342    1.297   1_655 S
C451   O494    1.292   .     A
C451   O493    1.297   .     A
C451   C453    1.428   .     S
C452   C466    1.419   .     A
C452   C454    1.493   .     S
C452   C460    1.390   .     A
C453   C605    1.329   .     S
C453   H627    1.088   .     S
C454   O496    1.296   .     A
C454   O495    1.323   .     A
C455   C456    1.428   .     S
C455   C753    1.329   1_545 S
C455   H783    1.088   1_545 S
C456   O498    1.297   .     A
C456   O497    1.292   .     A
C457   O499    1.298   .     A
C457   C459    1.466   .     S
C457   O500    1.309   .     A
C458   C472    1.393   .     A
C458   H537    1.084   .     S
C459   C471    1.403   .     A
C459   C472    1.399   .     A
C460   C461    1.396   .     A
C460   H489    1.072   .     S
C461   C13     1.394   1_556 S
C461   H576    1.081   1_455 S
C462   C466    1.413   .     A
C462   C13     1.414   1_556 S
C462   C17     1.425   1_556 S
C463   H490    1.077   .     S
C464   H481    1.101   .     S
C464   C470    1.521   .     S
C464   C465    1.529   .     S
C464   H482    1.109   .     S
C465   H478    1.105   .     S
C465   H479    1.111   .     S
C465   H480    1.111   .     S
C466   C470    1.405   .     A
C467   C471    1.399   .     A
C468   C469    1.395   .     A
C468   C17     1.420   1_556 S
C468   C8      1.404   1_556 S
C469   C470    1.392   .     A
C469   H486    1.078   .     S
C471   H488    1.076   .     S
C472   H475    1.083   .     S
Cu473  Cu474   2.707   .     S
Cu473  O495    1.939   .     S
Cu473  O499    1.927   .     S
Cu473  O497    1.949   .     S
Cu473  O493    1.954   .     S
Cu473  N492    2.034   .     S
Cu474  O496    1.927   .     S
Cu474  N491    2.034   .     S
Cu474  O500    1.939   .     S
Cu474  O494    1.949   .     S
Cu474  O498    1.954   .     S
H476   C511    1.081   .     S
H477   C753    1.088   1_545 S
H483   C605    1.088   .     S
H484   N591    1.029   1_455 S
H485   N542    1.029   .     S
H487   C558    1.084   1_455 S
N491   H534    1.029   .     S
N491   N542    1.297   .     S
N492   N591    1.297   1_455 S
N492   H585    1.029   1_455 S
C501   O544    1.292   .     A
C501   O543    1.297   .     A
C501   C503    1.428   .     S
C502   C516    1.419   .     A
C502   C504    1.493   .     S
C502   C510    1.390   .     A
C503   C655    1.329   .     S
C503   H677    1.088   .     S
C504   O546    1.296   .     A
C504   O545    1.323   .     A
C505   C506    1.428   .     S
C505   C803    1.329   1_545 S
C505   H833    1.088   1_545 S
C506   O548    1.297   .     A
C506   O547    1.292   .     A
C507   O549    1.298   .     A
C507   C509    1.466   .     S
C507   O550    1.309   .     A
C508   C522    1.393   .     A
C508   H587    1.084   .     S
C509   C521    1.403   .     A
C509   C522    1.399   .     A
C510   C511    1.396   .     A
C510   H539    1.072   .     S
C511   C63     1.394   1_556 S
C512   C516    1.413   .     A
C512   C63     1.414   1_556 S
C512   C67     1.425   1_556 S
C513   H540    1.077   .     S
C514   H531    1.101   .     S
C514   C520    1.521   .     S
C514   C515    1.529   .     S
C514   H532    1.109   .     S
C515   H528    1.105   .     S
C515   H529    1.111   .     S
C515   H530    1.111   .     S
C516   C520    1.405   .     A
C517   C521    1.399   .     A
C518   C519    1.395   .     A
C518   C67     1.420   1_556 S
C518   C58     1.404   1_556 S
C519   C520    1.392   .     A
C519   H536    1.078   .     S
C521   H538    1.076   .     S
C522   H525    1.083   .     S
Cu523  Cu524   2.707   .     S
Cu523  O545    1.939   .     S
Cu523  O549    1.927   .     S
Cu523  O547    1.949   .     S
Cu523  O543    1.954   .     S
Cu523  N542    2.034   .     S
Cu524  O546    1.927   .     S
Cu524  N541    2.034   .     S
Cu524  O550    1.939   .     S
Cu524  O544    1.949   .     S
Cu524  O548    1.954   .     S
H526   C561    1.081   .     S
H527   C803    1.088   1_545 S
H533   C655    1.088   .     S
H535   N592    1.029   .     S
N541   H584    1.029   .     S
N541   N592    1.297   .     S
C551   O594    1.292   .     A
C551   O593    1.297   .     A
C551   C553    1.428   .     S
C552   C566    1.419   .     A
C552   C554    1.493   .     S
C552   C560    1.390   .     A
C553   C705    1.329   .     S
C553   H727    1.088   .     S
C554   O596    1.296   .     A
C554   O595    1.323   .     A
C555   C556    1.428   .     S
C555   C853    1.329   1_545 S
C555   H883    1.088   1_545 S
C556   O598    1.297   .     A
C556   O597    1.292   .     A
C557   O599    1.298   .     A
C557   C559    1.466   .     S
C557   O600    1.309   .     A
C558   C572    1.393   .     A
C558   H487    1.084   1_655 S
C559   C571    1.403   .     A
C559   C572    1.399   .     A
C560   C561    1.396   .     A
C560   H589    1.072   .     S
C561   C113    1.394   1_556 S
C562   C566    1.413   .     A
C562   C113    1.414   1_556 S
C562   C117    1.425   1_556 S
C563   H590    1.077   .     S
C564   H581    1.101   .     S
C564   C570    1.521   .     S
C564   C565    1.529   .     S
C564   H582    1.109   .     S
C565   H578    1.105   .     S
C565   H579    1.111   .     S
C565   H580    1.111   .     S
C566   C570    1.405   .     A
C567   C571    1.399   .     A
C568   C569    1.395   .     A
C568   C117    1.420   1_556 S
C568   C108    1.404   1_556 S
C569   C570    1.392   .     A
C569   H586    1.078   .     S
C571   H588    1.076   .     S
C572   H575    1.083   .     S
Cu573  Cu574   2.707   .     S
Cu573  O595    1.939   .     S
Cu573  O599    1.927   .     S
Cu573  O597    1.949   .     S
Cu573  O593    1.954   .     S
Cu573  N592    2.034   .     S
Cu574  O596    1.927   .     S
Cu574  N591    2.034   .     S
Cu574  O600    1.939   .     S
Cu574  O594    1.949   .     S
Cu574  O598    1.954   .     S
H576   C461    1.081   1_655 S
H577   C853    1.088   1_545 S
H583   C705    1.088   .     S
H585   N492    1.029   1_655 S
N591   H484    1.029   1_655 S
N591   N492    1.297   1_655 S
C601   O644    1.292   .     A
C601   O643    1.297   .     A
C601   C603    1.428   .     S
C602   C616    1.419   .     A
C602   C604    1.493   .     S
C602   C610    1.390   .     A
C603   C755    1.329   .     S
C603   H777    1.088   .     S
C604   O646    1.296   .     A
C604   O645    1.323   .     A
C605   C606    1.428   .     S
C606   O648    1.297   .     A
C606   O647    1.292   .     A
C607   O649    1.298   .     A
C607   C609    1.466   .     S
C607   O650    1.309   .     A
C608   C622    1.393   .     A
C608   H687    1.084   .     S
C609   C621    1.403   .     A
C609   C622    1.399   .     A
C610   C611    1.396   .     A
C610   H639    1.072   .     S
C611   C163    1.394   1_556 S
C611   H726    1.081   1_455 S
C612   C616    1.413   .     A
C612   C163    1.414   1_556 S
C612   C167    1.425   1_556 S
C613   H640    1.077   .     S
C614   H631    1.101   .     S
C614   C620    1.521   .     S
C614   C615    1.529   .     S
C614   H632    1.109   .     S
C615   H628    1.105   .     S
C615   H629    1.111   .     S
C615   H630    1.111   .     S
C616   C620    1.405   .     A
C617   C621    1.399   .     A
C618   C619    1.395   .     A
C618   C167    1.420   1_556 S
C618   C158    1.404   1_556 S
C619   C620    1.392   .     A
C619   H636    1.078   .     S
C621   H638    1.076   .     S
C622   H625    1.083   .     S
Cu623  Cu624   2.707   .     S
Cu623  O645    1.939   .     S
Cu623  O649    1.927   .     S
Cu623  O647    1.949   .     S
Cu623  O643    1.954   .     S
Cu623  N642    2.034   .     S
Cu624  O646    1.927   .     S
Cu624  N641    2.034   .     S
Cu624  O650    1.939   .     S
Cu624  O644    1.949   .     S
Cu624  O648    1.954   .     S
H626   C661    1.081   .     S
H633   C755    1.088   .     S
H634   N741    1.029   1_455 S
H635   N692    1.029   .     S
H637   C708    1.084   1_455 S
N641   H684    1.029   .     S
N641   N692    1.297   .     S
N642   N741    1.297   1_455 S
N642   H735    1.029   1_455 S
C651   O694    1.292   .     A
C651   O693    1.297   .     A
C651   C653    1.428   .     S
C652   C666    1.419   .     A
C652   C654    1.493   .     S
C652   C660    1.390   .     A
C653   C805    1.329   .     S
C653   H827    1.088   .     S
C654   O696    1.296   .     A
C654   O695    1.323   .     A
C655   C656    1.428   .     S
C656   O698    1.297   .     A
C656   O697    1.292   .     A
C657   O699    1.298   .     A
C657   C659    1.466   .     S
C657   O700    1.309   .     A
C658   C672    1.393   .     A
C658   H737    1.084   .     S
C659   C671    1.403   .     A
C659   C672    1.399   .     A
C660   C661    1.396   .     A
C660   H689    1.072   .     S
C661   C213    1.394   1_556 S
C662   C666    1.413   .     A
C662   C213    1.414   1_556 S
C662   C217    1.425   1_556 S
C663   H690    1.077   .     S
C664   H681    1.101   .     S
C664   C670    1.521   .     S
C664   C665    1.529   .     S
C664   H682    1.109   .     S
C665   H678    1.105   .     S
C665   H679    1.111   .     S
C665   H680    1.111   .     S
C666   C670    1.405   .     A
C667   C671    1.399   .     A
C668   C669    1.395   .     A
C668   C217    1.420   1_556 S
C668   C208    1.404   1_556 S
C669   C670    1.392   .     A
C669   H686    1.078   .     S
C671   H688    1.076   .     S
C672   H675    1.083   .     S
Cu673  Cu674   2.707   .     S
Cu673  O695    1.939   .     S
Cu673  O699    1.927   .     S
Cu673  O697    1.949   .     S
Cu673  O693    1.954   .     S
Cu673  N692    2.034   .     S
Cu674  O696    1.927   .     S
Cu674  N691    2.034   .     S
Cu674  O700    1.939   .     S
Cu674  O694    1.949   .     S
Cu674  O698    1.954   .     S
H676   C711    1.081   .     S
H683   C805    1.088   .     S
H685   N742    1.029   .     S
N691   H734    1.029   .     S
N691   N742    1.297   .     S
C701   O744    1.292   .     A
C701   O743    1.297   .     A
C701   C703    1.428   .     S
C702   C716    1.419   .     A
C702   C704    1.493   .     S
C702   C710    1.390   .     A
C703   C855    1.329   .     S
C703   H877    1.088   .     S
C704   O746    1.296   .     A
C704   O745    1.323   .     A
C705   C706    1.428   .     S
C706   O748    1.297   .     A
C706   O747    1.292   .     A
C707   O749    1.298   .     A
C707   C709    1.466   .     S
C707   O750    1.309   .     A
C708   C722    1.393   .     A
C708   H637    1.084   1_655 S
C709   C721    1.403   .     A
C709   C722    1.399   .     A
C710   C711    1.396   .     A
C710   H739    1.072   .     S
C711   C263    1.394   1_556 S
C712   C716    1.413   .     A
C712   C263    1.414   1_556 S
C712   C267    1.425   1_556 S
C713   H740    1.077   .     S
C714   H731    1.101   .     S
C714   C720    1.521   .     S
C714   C715    1.529   .     S
C714   H732    1.109   .     S
C715   H728    1.105   .     S
C715   H729    1.111   .     S
C715   H730    1.111   .     S
C716   C720    1.405   .     A
C717   C721    1.399   .     A
C718   C719    1.395   .     A
C718   C267    1.420   1_556 S
C718   C258    1.404   1_556 S
C719   C720    1.392   .     A
C719   H736    1.078   .     S
C721   H738    1.076   .     S
C722   H725    1.083   .     S
Cu723  Cu724   2.707   .     S
Cu723  O745    1.939   .     S
Cu723  O749    1.927   .     S
Cu723  O747    1.949   .     S
Cu723  O743    1.954   .     S
Cu723  N742    2.034   .     S
Cu724  O746    1.927   .     S
Cu724  N741    2.034   .     S
Cu724  O750    1.939   .     S
Cu724  O744    1.949   .     S
Cu724  O748    1.954   .     S
H726   C611    1.081   1_655 S
H733   C855    1.088   .     S
H735   N642    1.029   1_655 S
N741   H634    1.029   1_655 S
N741   N642    1.297   1_655 S
C751   O794    1.292   .     A
C751   O793    1.297   .     A
C751   C753    1.428   .     S
C752   C766    1.419   .     A
C752   C754    1.493   .     S
C752   C760    1.390   .     A
C753   C455    1.329   1_565 S
C753   H477    1.088   1_565 S
C754   O796    1.296   .     A
C754   O795    1.323   .     A
C755   C756    1.428   .     S
C756   O798    1.297   .     A
C756   O797    1.292   .     A
C757   O799    1.298   .     A
C757   C759    1.466   .     S
C757   O800    1.309   .     A
C758   C772    1.393   .     A
C758   H837    1.084   .     S
C759   C771    1.403   .     A
C759   C772    1.399   .     A
C760   C761    1.396   .     A
C760   H789    1.072   .     S
C761   C313    1.394   1_556 S
C761   H876    1.081   1_455 S
C762   C766    1.413   .     A
C762   C313    1.414   1_556 S
C762   C317    1.425   1_556 S
C763   H790    1.077   .     S
C764   H781    1.101   .     S
C764   C770    1.521   .     S
C764   C765    1.529   .     S
C764   H782    1.109   .     S
C765   H778    1.105   .     S
C765   H779    1.111   .     S
C765   H780    1.111   .     S
C766   C770    1.405   .     A
C767   C771    1.399   .     A
C768   C769    1.395   .     A
C768   C317    1.420   1_556 S
C768   C308    1.404   1_556 S
C769   C770    1.392   .     A
C769   H786    1.078   .     S
C771   H788    1.076   .     S
C772   H775    1.083   .     S
Cu773  Cu774   2.707   .     S
Cu773  O795    1.939   .     S
Cu773  O799    1.927   .     S
Cu773  O797    1.949   .     S
Cu773  O793    1.954   .     S
Cu773  N792    2.034   .     S
Cu774  O796    1.927   .     S
Cu774  N791    2.034   .     S
Cu774  O800    1.939   .     S
Cu774  O794    1.949   .     S
Cu774  O798    1.954   .     S
H776   C811    1.081   .     S
H783   C455    1.088   1_565 S
H784   N891    1.029   1_455 S
H785   N842    1.029   .     S
H787   C858    1.084   1_455 S
N791   H834    1.029   .     S
N791   N842    1.297   .     S
N792   N891    1.297   1_455 S
N792   H885    1.029   1_455 S
C801   O844    1.292   .     A
C801   O843    1.297   .     A
C801   C803    1.428   .     S
C802   C816    1.419   .     A
C802   C804    1.493   .     S
C802   C810    1.390   .     A
C803   C505    1.329   1_565 S
C803   H527    1.088   1_565 S
C804   O846    1.296   .     A
C804   O845    1.323   .     A
C805   C806    1.428   .     S
C806   O848    1.297   .     A
C806   O847    1.292   .     A
C807   O849    1.298   .     A
C807   C809    1.466   .     S
C807   O850    1.309   .     A
C808   C822    1.393   .     A
C808   H887    1.084   .     S
C809   C821    1.403   .     A
C809   C822    1.399   .     A
C810   C811    1.396   .     A
C810   H839    1.072   .     S
C811   C363    1.394   1_556 S
C812   C816    1.413   .     A
C812   C363    1.414   1_556 S
C812   C367    1.425   1_556 S
C813   H840    1.077   .     S
C814   H831    1.101   .     S
C814   C820    1.521   .     S
C814   C815    1.529   .     S
C814   H832    1.109   .     S
C815   H828    1.105   .     S
C815   H829    1.111   .     S
C815   H830    1.111   .     S
C816   C820    1.405   .     A
C817   C821    1.399   .     A
C818   C819    1.395   .     A
C818   C367    1.420   1_556 S
C818   C358    1.404   1_556 S
C819   C820    1.392   .     A
C819   H836    1.078   .     S
C821   H838    1.076   .     S
C822   H825    1.083   .     S
Cu823  Cu824   2.707   .     S
Cu823  O845    1.939   .     S
Cu823  O849    1.927   .     S
Cu823  O847    1.949   .     S
Cu823  O843    1.954   .     S
Cu823  N842    2.034   .     S
Cu824  O846    1.927   .     S
Cu824  N841    2.034   .     S
Cu824  O850    1.939   .     S
Cu824  O844    1.949   .     S
Cu824  O848    1.954   .     S
H826   C861    1.081   .     S
H833   C505    1.088   1_565 S
H835   N892    1.029   .     S
N841   H884    1.029   .     S
N841   N892    1.297   .     S
C851   O894    1.292   .     A
C851   O893    1.297   .     A
C851   C853    1.428   .     S
C852   C866    1.419   .     A
C852   C854    1.493   .     S
C852   C860    1.390   .     A
C853   C555    1.329   1_565 S
C853   H577    1.088   1_565 S
C854   O896    1.296   .     A
C854   O895    1.323   .     A
C855   C856    1.428   .     S
C856   O898    1.297   .     A
C856   O897    1.292   .     A
C857   O899    1.298   .     A
C857   C859    1.466   .     S
C857   O900    1.309   .     A
C858   C872    1.393   .     A
C858   H787    1.084   1_655 S
C859   C871    1.403   .     A
C859   C872    1.399   .     A
C860   C861    1.396   .     A
C860   H889    1.072   .     S
C861   C413    1.394   1_556 S
C862   C866    1.413   .     A
C862   C413    1.414   1_556 S
C862   C417    1.425   1_556 S
C863   H890    1.077   .     S
C864   H881    1.101   .     S
C864   C870    1.521   .     S
C864   C865    1.529   .     S
C864   H882    1.109   .     S
C865   H878    1.105   .     S
C865   H879    1.111   .     S
C865   H880    1.111   .     S
C866   C870    1.405   .     A
C867   C871    1.399   .     A
C868   C869    1.395   .     A
C868   C417    1.420   1_556 S
C868   C408    1.404   1_556 S
C869   C870    1.392   .     A
C869   H886    1.078   .     S
C871   H888    1.076   .     S
C872   H875    1.083   .     S
Cu873  Cu874   2.707   .     S
Cu873  O895    1.939   .     S
Cu873  O899    1.927   .     S
Cu873  O897    1.949   .     S
Cu873  O893    1.954   .     S
Cu873  N892    2.034   .     S
Cu874  O896    1.927   .     S
Cu874  N891    2.034   .     S
Cu874  O900    1.939   .     S
Cu874  O894    1.949   .     S
Cu874  O898    1.954   .     S
H876   C761    1.081   1_655 S
H883   C555    1.088   1_565 S
H885   N792    1.029   1_655 S
N891   H784    1.029   1_655 S
N891   N792    1.297   1_655 S
