data_str_m2_o1_o17_pcu_sym.156
_audit_creation_date              2020-01-03
_audit_creation_method            'Materials Studio'
_symmetry_space_group_name_H-M    'P1'
_symmetry_Int_Tables_number       1
_symmetry_cell_setting            triclinic
loop_
_symmetry_equiv_pos_as_xyz
  x,y,z
_cell_length_a                    32.6081
_cell_length_b                    28.4821
_cell_length_c                    30.1411
_cell_angle_alpha                 90.0401
_cell_angle_beta                  89.4723
_cell_angle_gamma                 89.7112
loop_
_atom_site_label
_atom_site_type_symbol
_atom_site_fract_x
_atom_site_fract_y
_atom_site_fract_z
_atom_site_U_iso_or_equiv
_atom_site_adp_type
_atom_site_occupancy
C1     C     0.08769   0.16677   0.25584   0.00000  Uiso   1.00
C2     C     0.24620   0.16629   0.25141   0.00000  Uiso   1.00
C3     C     0.12738   0.09438   0.02212   0.00000  Uiso   1.00
C4     C     0.21027   0.23798   0.47858   0.00000  Uiso   1.00
C5     C     0.02184   0.12620   0.27869   0.00000  Uiso   1.00
C6     C     0.31398   0.20585   0.24476   0.00000  Uiso   1.00
C7     C     0.31162   0.12577   0.27655   0.00000  Uiso   1.00
C8     C     0.02090   0.20897   0.25937   0.00000  Uiso   1.00
C9     C     0.29116   0.16525   0.25642   0.00000  Uiso   1.00
C10    C     0.04312   0.16708   0.26493   0.00000  Uiso   1.00
C11    C     0.18523   0.02469   0.21639   0.00000  Uiso   1.00
C12    C     0.14833   0.30867   0.28368   0.00000  Uiso   1.00
C13    C     0.14897   0.02491   0.28407   0.00000  Uiso   1.00
C14    C     0.18537   0.30837   0.21648   0.00000  Uiso   1.00
C15    C     0.16542   0.16666   0.16445   0.00000  Uiso   1.00
C16    C     0.16803   0.16679   0.33557   0.00000  Uiso   1.00
C17    C     0.19513   0.19972   0.40678   0.00000  Uiso   1.00
C18    C     0.13704   0.13677   0.09278   0.00000  Uiso   1.00
C19    C     0.17053   0.16713   0.38386   0.00000  Uiso   1.00
C20    C     0.16334   0.16695   0.11619   0.00000  Uiso   1.00
C21    C     0.14789   0.13354   0.40665   0.00000  Uiso   1.00
C22    C     0.18761   0.19933   0.09377   0.00000  Uiso   1.00
C23    C     0.14803   0.13126   0.45284   0.00000  Uiso   1.00
C24    C     0.18770   0.20201   0.04754   0.00000  Uiso   1.00
C25    C     0.16871   0.16680   0.47668   0.00000  Uiso   1.00
C26    C     0.16641   0.16722   0.02345   0.00000  Uiso   1.00
C27    C     0.19172   0.20181   0.45381   0.00000  Uiso   1.00
C28    C     0.14297   0.13264   0.04624   0.00000  Uiso   1.00
C29    C     0.12821   0.09409   0.47568   0.00000  Uiso   1.00
C30    C     0.20917   0.23805   0.02500   0.00000  Uiso   1.00
Cu31   Cu    0.16667   0.21355   0.25000   0.00000  Uiso   1.00
Cu32   Cu    0.16667   0.11978   0.25000   0.00000  Uiso   1.00
H33    H     0.13030   0.10897   0.38735   0.00000  Uiso   1.00
H34    H     0.20597   0.22285   0.11335   0.00000  Uiso   1.00
H35    H     0.20022   0.04325   0.18955   0.00000  Uiso   1.00
H36    H     0.13345   0.29016   0.31056   0.00000  Uiso   1.00
H37    H     0.13484   0.04358   0.31148   0.00000  Uiso   1.00
H38    H     0.20050   0.28959   0.18971   0.00000  Uiso   1.00
N39    N     0.16667   0.28402   0.25000   0.00000  Uiso   1.00
N40    N     0.16667   0.04931   0.25000   0.00000  Uiso   1.00
O41    O     0.10655   0.20625   0.24999   0.00000  Uiso   1.00
O42    O     0.22679   0.12709   0.25000   0.00000  Uiso   1.00
O43    O     0.22679   0.20625   0.25000   0.00000  Uiso   1.00
O44    O     0.10655   0.12709   0.24999   0.00000  Uiso   1.00
O45    O     0.16666   0.20627   0.18513   0.00000  Uiso   1.00
O46    O     0.16668   0.12707   0.31487   0.00000  Uiso   1.00
O47    O     0.16668   0.20627   0.31487   0.00000  Uiso   1.00
O48    O     0.16666   0.12707   0.18513   0.00000  Uiso   1.00
C49    C     0.22870   0.22623   0.38141   0.00000  Uiso   1.00
C50    C     0.21520   0.27517   0.36580   0.00000  Uiso   1.00
H51    H     0.18245   0.28210   0.37384   0.00000  Uiso   1.00
H52    H     0.23412   0.30283   0.38138   0.00000  Uiso   1.00
H53    H     0.21976   0.27827   0.32937   0.00000  Uiso   1.00
H54    H     0.25698   0.22854   0.40154   0.00000  Uiso   1.00
H55    H     0.23909   0.20575   0.35204   0.00000  Uiso   1.00
C56    C     0.09997   0.11514   0.11669   0.00000  Uiso   1.00
C57    C     0.07073   0.15280   0.13515   0.00000  Uiso   1.00
H58    H     0.08553   0.17501   0.16045   0.00000  Uiso   1.00
H59    H     0.05970   0.17564   0.10784   0.00000  Uiso   1.00
H60    H     0.04379   0.13572   0.15104   0.00000  Uiso   1.00
H61    H     0.08055   0.09413   0.09453   0.00000  Uiso   1.00
H62    H     0.11003   0.09133   0.14362   0.00000  Uiso   1.00
C63    C     0.10847   0.05294   0.45173   0.00000  Uiso   1.00
C64    C     0.14063   0.01882   0.43318   0.00000  Uiso   1.00
H65    H     0.12502   0.32261   0.41634   0.00000  Uiso   1.00
H66    H     0.16115   0.03626   0.40877   0.00000  Uiso   1.00
H67    H     0.15945   0.00437   0.46052   0.00000  Uiso   1.00
H68    H     0.08804   0.03287   0.47441   0.00000  Uiso   1.00
H69    H     0.08792   0.06549   0.42506   0.00000  Uiso   1.00
C70    C     0.23055   0.27782   0.04938   0.00000  Uiso   1.00
C71    C     0.19974   0.31346   0.06811   0.00000  Uiso   1.00
H72    H     0.17805   0.29681   0.09181   0.00000  Uiso   1.00
H73    H     0.21636   0.00836   0.08580   0.00000  Uiso   1.00
H74    H     0.18207   0.32955   0.04069   0.00000  Uiso   1.00
H75    H     0.25042   0.26377   0.07587   0.00000  Uiso   1.00
H76    H     0.25199   0.29710   0.02720   0.00000  Uiso   1.00
F77    F     0.11561   0.05458   0.04347   0.00000  Uiso   1.00
F78    F     0.22761   0.27538   0.45809   0.00000  Uiso   1.00
C79    C     0.04507   0.08573   0.30020   0.00000  Uiso   1.00
C80    C     0.05034   0.04446   0.26802   0.00000  Uiso   1.00
H81    H     0.02065   0.03258   0.25453   0.00000  Uiso   1.00
H82    H     0.07017   0.05383   0.23937   0.00000  Uiso   1.00
H83    H     0.06476   0.01493   0.28584   0.00000  Uiso   1.00
H84    H     0.07529   0.09672   0.31295   0.00000  Uiso   1.00
H85    H     0.02975   0.07434   0.33135   0.00000  Uiso   1.00
C86    C     0.29808   0.24502   0.21466   0.00000  Uiso   1.00
C87    C     0.28604   0.22663   0.16897   0.00000  Uiso   1.00
H88    H     0.25994   0.20198   0.17094   0.00000  Uiso   1.00
H89    H     0.27685   0.25672   0.14790   0.00000  Uiso   1.00
H90    H     0.31257   0.20852   0.15296   0.00000  Uiso   1.00
H91    H     0.27273   0.26514   0.23049   0.00000  Uiso   1.00
H92    H     0.32239   0.27135   0.20797   0.00000  Uiso   1.00
C93    C     0.28785   0.08388   0.29623   0.00000  Uiso   1.00
C94    C     0.26611   0.09693   0.33958   0.00000  Uiso   1.00
H95    H     0.28901   0.10638   0.36508   0.00000  Uiso   1.00
H96    H     0.24526   0.12704   0.33486   0.00000  Uiso   1.00
H97    H     0.24787   0.06666   0.35178   0.00000  Uiso   1.00
H98    H     0.26686   0.06787   0.27203   0.00000  Uiso   1.00
H99    H     0.30690   0.05307   0.30405   0.00000  Uiso   1.00
C100   C     0.03634   0.25579   0.27699   0.00000  Uiso   1.00
C101   C     0.04980   0.25178   0.32543   0.00000  Uiso   1.00
H102   H     0.07709   0.22869   0.32868   0.00000  Uiso   1.00
H103   H     0.05772   0.28695   0.33858   0.00000  Uiso   1.00
H104   H     0.02443   0.23734   0.34607   0.00000  Uiso   1.00
H105   H     0.06114   0.27014   0.25571   0.00000  Uiso   1.00
H106   H     0.01135   0.28242   0.27705   0.00000  Uiso   1.00
C107   C     0.42103   0.16677   0.25584   0.00000  Uiso   1.00
C108   C     0.57953   0.16629   0.25141   0.00000  Uiso   1.00
C109   C     0.46072   0.09438   0.02212   0.00000  Uiso   1.00
C110   C     0.54360   0.23798   0.47858   0.00000  Uiso   1.00
C111   C     0.35517   0.12620   0.27869   0.00000  Uiso   1.00
C112   C     0.64732   0.20585   0.24476   0.00000  Uiso   1.00
C113   C     0.64495   0.12577   0.27655   0.00000  Uiso   1.00
C114   C     0.35423   0.20897   0.25937   0.00000  Uiso   1.00
C115   C     0.62449   0.16525   0.25642   0.00000  Uiso   1.00
C116   C     0.37645   0.16708   0.26493   0.00000  Uiso   1.00
C117   C     0.51857   0.02469   0.21639   0.00000  Uiso   1.00
C118   C     0.48167   0.30867   0.28368   0.00000  Uiso   1.00
C119   C     0.48230   0.02491   0.28407   0.00000  Uiso   1.00
C120   C     0.51870   0.30837   0.21648   0.00000  Uiso   1.00
C121   C     0.49875   0.16666   0.16445   0.00000  Uiso   1.00
C122   C     0.50136   0.16679   0.33557   0.00000  Uiso   1.00
C123   C     0.52846   0.19972   0.40678   0.00000  Uiso   1.00
C124   C     0.47038   0.13677   0.09278   0.00000  Uiso   1.00
C125   C     0.50386   0.16713   0.38386   0.00000  Uiso   1.00
C126   C     0.49668   0.16695   0.11619   0.00000  Uiso   1.00
C127   C     0.48123   0.13354   0.40665   0.00000  Uiso   1.00
C128   C     0.52095   0.19933   0.09377   0.00000  Uiso   1.00
C129   C     0.48136   0.13126   0.45284   0.00000  Uiso   1.00
C130   C     0.52104   0.20201   0.04754   0.00000  Uiso   1.00
C131   C     0.50205   0.16680   0.47668   0.00000  Uiso   1.00
C132   C     0.49975   0.16722   0.02345   0.00000  Uiso   1.00
C133   C     0.52505   0.20181   0.45381   0.00000  Uiso   1.00
C134   C     0.47630   0.13264   0.04624   0.00000  Uiso   1.00
C135   C     0.46154   0.09409   0.47568   0.00000  Uiso   1.00
C136   C     0.54250   0.23805   0.02500   0.00000  Uiso   1.00
Cu137  Cu    0.50000   0.21355   0.25000   0.00000  Uiso   1.00
Cu138  Cu    0.50000   0.11978   0.25000   0.00000  Uiso   1.00
H139   H     0.46363   0.10897   0.38735   0.00000  Uiso   1.00
H140   H     0.53930   0.22285   0.11335   0.00000  Uiso   1.00
H141   H     0.53356   0.04325   0.18955   0.00000  Uiso   1.00
H142   H     0.46678   0.29016   0.31056   0.00000  Uiso   1.00
H143   H     0.46818   0.04358   0.31148   0.00000  Uiso   1.00
H144   H     0.53383   0.28959   0.18971   0.00000  Uiso   1.00
N145   N     0.50000   0.28402   0.25000   0.00000  Uiso   1.00
N146   N     0.50000   0.04931   0.25000   0.00000  Uiso   1.00
O147   O     0.43988   0.20625   0.24999   0.00000  Uiso   1.00
O148   O     0.56012   0.12709   0.25000   0.00000  Uiso   1.00
O149   O     0.56012   0.20625   0.25000   0.00000  Uiso   1.00
O150   O     0.43988   0.12709   0.24999   0.00000  Uiso   1.00
O151   O     0.49999   0.20627   0.18513   0.00000  Uiso   1.00
O152   O     0.50001   0.12707   0.31487   0.00000  Uiso   1.00
O153   O     0.50001   0.20627   0.31487   0.00000  Uiso   1.00
O154   O     0.49999   0.12707   0.18513   0.00000  Uiso   1.00
C155   C     0.56204   0.22623   0.38141   0.00000  Uiso   1.00
C156   C     0.54854   0.27517   0.36580   0.00000  Uiso   1.00
H157   H     0.51579   0.28210   0.37384   0.00000  Uiso   1.00
H158   H     0.56746   0.30283   0.38138   0.00000  Uiso   1.00
H159   H     0.55310   0.27827   0.32937   0.00000  Uiso   1.00
H160   H     0.59031   0.22854   0.40154   0.00000  Uiso   1.00
H161   H     0.57242   0.20575   0.35204   0.00000  Uiso   1.00
C162   C     0.43330   0.11514   0.11669   0.00000  Uiso   1.00
C163   C     0.40406   0.15280   0.13515   0.00000  Uiso   1.00
H164   H     0.41887   0.17501   0.16045   0.00000  Uiso   1.00
H165   H     0.39303   0.17564   0.10784   0.00000  Uiso   1.00
H166   H     0.37713   0.13572   0.15104   0.00000  Uiso   1.00
H167   H     0.41388   0.09413   0.09453   0.00000  Uiso   1.00
H168   H     0.44337   0.09133   0.14362   0.00000  Uiso   1.00
C169   C     0.44180   0.05294   0.45173   0.00000  Uiso   1.00
C170   C     0.47396   0.01882   0.43318   0.00000  Uiso   1.00
H171   H     0.45836   0.32261   0.41634   0.00000  Uiso   1.00
H172   H     0.49448   0.03626   0.40877   0.00000  Uiso   1.00
H173   H     0.49278   0.00437   0.46052   0.00000  Uiso   1.00
H174   H     0.42137   0.03287   0.47441   0.00000  Uiso   1.00
H175   H     0.42125   0.06549   0.42506   0.00000  Uiso   1.00
C176   C     0.56388   0.27782   0.04938   0.00000  Uiso   1.00
C177   C     0.53308   0.31346   0.06811   0.00000  Uiso   1.00
H178   H     0.51138   0.29681   0.09181   0.00000  Uiso   1.00
H179   H     0.54969   0.00836   0.08580   0.00000  Uiso   1.00
H180   H     0.51540   0.32955   0.04069   0.00000  Uiso   1.00
H181   H     0.58375   0.26377   0.07587   0.00000  Uiso   1.00
H182   H     0.58532   0.29710   0.02720   0.00000  Uiso   1.00
F183   F     0.44894   0.05458   0.04347   0.00000  Uiso   1.00
F184   F     0.56094   0.27538   0.45809   0.00000  Uiso   1.00
C185   C     0.37841   0.08573   0.30020   0.00000  Uiso   1.00
C186   C     0.38368   0.04446   0.26802   0.00000  Uiso   1.00
H187   H     0.35399   0.03258   0.25453   0.00000  Uiso   1.00
H188   H     0.40351   0.05383   0.23937   0.00000  Uiso   1.00
H189   H     0.39810   0.01493   0.28584   0.00000  Uiso   1.00
H190   H     0.40862   0.09672   0.31295   0.00000  Uiso   1.00
H191   H     0.36309   0.07434   0.33135   0.00000  Uiso   1.00
C192   C     0.63142   0.24502   0.21466   0.00000  Uiso   1.00
C193   C     0.61938   0.22663   0.16897   0.00000  Uiso   1.00
H194   H     0.59327   0.20198   0.17094   0.00000  Uiso   1.00
H195   H     0.61018   0.25672   0.14790   0.00000  Uiso   1.00
H196   H     0.64590   0.20852   0.15296   0.00000  Uiso   1.00
H197   H     0.60607   0.26514   0.23049   0.00000  Uiso   1.00
H198   H     0.65572   0.27135   0.20797   0.00000  Uiso   1.00
C199   C     0.62118   0.08388   0.29623   0.00000  Uiso   1.00
C200   C     0.59944   0.09693   0.33958   0.00000  Uiso   1.00
H201   H     0.62235   0.10638   0.36508   0.00000  Uiso   1.00
H202   H     0.57860   0.12704   0.33486   0.00000  Uiso   1.00
H203   H     0.58121   0.06666   0.35178   0.00000  Uiso   1.00
H204   H     0.60019   0.06787   0.27203   0.00000  Uiso   1.00
H205   H     0.64024   0.05307   0.30405   0.00000  Uiso   1.00
C206   C     0.36967   0.25579   0.27699   0.00000  Uiso   1.00
C207   C     0.38314   0.25178   0.32543   0.00000  Uiso   1.00
H208   H     0.41043   0.22869   0.32868   0.00000  Uiso   1.00
H209   H     0.39105   0.28695   0.33858   0.00000  Uiso   1.00
H210   H     0.35777   0.23734   0.34607   0.00000  Uiso   1.00
H211   H     0.39448   0.27014   0.25571   0.00000  Uiso   1.00
H212   H     0.34469   0.28242   0.27705   0.00000  Uiso   1.00
C213   C     0.75436   0.16677   0.25584   0.00000  Uiso   1.00
C214   C     0.91286   0.16629   0.25141   0.00000  Uiso   1.00
C215   C     0.79405   0.09438   0.02212   0.00000  Uiso   1.00
C216   C     0.87694   0.23798   0.47858   0.00000  Uiso   1.00
C217   C     0.68850   0.12620   0.27869   0.00000  Uiso   1.00
C218   C     0.98065   0.20585   0.24476   0.00000  Uiso   1.00
C219   C     0.97828   0.12577   0.27655   0.00000  Uiso   1.00
C220   C     0.68756   0.20897   0.25937   0.00000  Uiso   1.00
C221   C     0.95783   0.16525   0.25642   0.00000  Uiso   1.00
C222   C     0.70979   0.16708   0.26493   0.00000  Uiso   1.00
C223   C     0.85190   0.02469   0.21639   0.00000  Uiso   1.00
C224   C     0.81500   0.30867   0.28368   0.00000  Uiso   1.00
C225   C     0.81563   0.02491   0.28407   0.00000  Uiso   1.00
C226   C     0.85204   0.30837   0.21648   0.00000  Uiso   1.00
C227   C     0.83209   0.16666   0.16445   0.00000  Uiso   1.00
C228   C     0.83469   0.16679   0.33557   0.00000  Uiso   1.00
C229   C     0.86180   0.19972   0.40678   0.00000  Uiso   1.00
C230   C     0.80371   0.13677   0.09278   0.00000  Uiso   1.00
C231   C     0.83720   0.16713   0.38386   0.00000  Uiso   1.00
C232   C     0.83001   0.16695   0.11619   0.00000  Uiso   1.00
C233   C     0.81456   0.13354   0.40665   0.00000  Uiso   1.00
C234   C     0.85428   0.19933   0.09377   0.00000  Uiso   1.00
C235   C     0.81469   0.13126   0.45284   0.00000  Uiso   1.00
C236   C     0.85437   0.20201   0.04754   0.00000  Uiso   1.00
C237   C     0.83538   0.16680   0.47668   0.00000  Uiso   1.00
C238   C     0.83308   0.16722   0.02345   0.00000  Uiso   1.00
C239   C     0.85838   0.20181   0.45381   0.00000  Uiso   1.00
C240   C     0.80964   0.13264   0.04624   0.00000  Uiso   1.00
C241   C     0.79488   0.09409   0.47568   0.00000  Uiso   1.00
C242   C     0.87584   0.23805   0.02500   0.00000  Uiso   1.00
Cu243  Cu    0.83333   0.21355   0.25000   0.00000  Uiso   1.00
Cu244  Cu    0.83333   0.11978   0.25000   0.00000  Uiso   1.00
H245   H     0.79696   0.10897   0.38735   0.00000  Uiso   1.00
H246   H     0.87264   0.22285   0.11335   0.00000  Uiso   1.00
H247   H     0.86689   0.04325   0.18955   0.00000  Uiso   1.00
H248   H     0.80011   0.29016   0.31056   0.00000  Uiso   1.00
H249   H     0.80151   0.04358   0.31148   0.00000  Uiso   1.00
H250   H     0.86717   0.28959   0.18971   0.00000  Uiso   1.00
N251   N     0.83333   0.28402   0.25000   0.00000  Uiso   1.00
N252   N     0.83333   0.04931   0.25000   0.00000  Uiso   1.00
O253   O     0.77321   0.20625   0.24999   0.00000  Uiso   1.00
O254   O     0.89345   0.12709   0.25000   0.00000  Uiso   1.00
O255   O     0.89345   0.20625   0.25000   0.00000  Uiso   1.00
O256   O     0.77321   0.12709   0.24999   0.00000  Uiso   1.00
O257   O     0.83332   0.20627   0.18513   0.00000  Uiso   1.00
O258   O     0.83334   0.12707   0.31487   0.00000  Uiso   1.00
O259   O     0.83334   0.20627   0.31487   0.00000  Uiso   1.00
O260   O     0.83332   0.12707   0.18513   0.00000  Uiso   1.00
C261   C     0.89537   0.22623   0.38141   0.00000  Uiso   1.00
C262   C     0.88187   0.27517   0.36580   0.00000  Uiso   1.00
H263   H     0.84912   0.28210   0.37384   0.00000  Uiso   1.00
H264   H     0.90079   0.30283   0.38138   0.00000  Uiso   1.00
H265   H     0.88643   0.27827   0.32937   0.00000  Uiso   1.00
H266   H     0.92364   0.22854   0.40154   0.00000  Uiso   1.00
H267   H     0.90575   0.20575   0.35204   0.00000  Uiso   1.00
C268   C     0.76664   0.11514   0.11669   0.00000  Uiso   1.00
C269   C     0.73739   0.15280   0.13515   0.00000  Uiso   1.00
H270   H     0.75220   0.17501   0.16045   0.00000  Uiso   1.00
H271   H     0.72637   0.17564   0.10784   0.00000  Uiso   1.00
H272   H     0.71046   0.13572   0.15104   0.00000  Uiso   1.00
H273   H     0.74721   0.09413   0.09453   0.00000  Uiso   1.00
H274   H     0.77670   0.09133   0.14362   0.00000  Uiso   1.00
C275   C     0.77514   0.05294   0.45173   0.00000  Uiso   1.00
C276   C     0.80729   0.01882   0.43318   0.00000  Uiso   1.00
H277   H     0.79169   0.32261   0.41634   0.00000  Uiso   1.00
H278   H     0.82782   0.03626   0.40877   0.00000  Uiso   1.00
H279   H     0.82612   0.00437   0.46052   0.00000  Uiso   1.00
H280   H     0.75470   0.03287   0.47441   0.00000  Uiso   1.00
H281   H     0.75458   0.06549   0.42506   0.00000  Uiso   1.00
C282   C     0.89721   0.27782   0.04938   0.00000  Uiso   1.00
C283   C     0.86641   0.31346   0.06811   0.00000  Uiso   1.00
H284   H     0.84471   0.29681   0.09181   0.00000  Uiso   1.00
H285   H     0.88302   0.00836   0.08580   0.00000  Uiso   1.00
H286   H     0.84874   0.32955   0.04069   0.00000  Uiso   1.00
H287   H     0.91708   0.26377   0.07587   0.00000  Uiso   1.00
H288   H     0.91866   0.29710   0.02720   0.00000  Uiso   1.00
F289   F     0.78228   0.05458   0.04347   0.00000  Uiso   1.00
F290   F     0.89427   0.27538   0.45809   0.00000  Uiso   1.00
C291   C     0.71174   0.08573   0.30020   0.00000  Uiso   1.00
C292   C     0.71701   0.04446   0.26802   0.00000  Uiso   1.00
H293   H     0.68732   0.03258   0.25453   0.00000  Uiso   1.00
H294   H     0.73684   0.05383   0.23937   0.00000  Uiso   1.00
H295   H     0.73143   0.01493   0.28584   0.00000  Uiso   1.00
H296   H     0.74195   0.09672   0.31295   0.00000  Uiso   1.00
H297   H     0.69642   0.07434   0.33135   0.00000  Uiso   1.00
C298   C     0.96475   0.24502   0.21466   0.00000  Uiso   1.00
C299   C     0.95271   0.22663   0.16897   0.00000  Uiso   1.00
H300   H     0.92661   0.20198   0.17094   0.00000  Uiso   1.00
H301   H     0.94351   0.25672   0.14790   0.00000  Uiso   1.00
H302   H     0.97923   0.20852   0.15296   0.00000  Uiso   1.00
H303   H     0.93940   0.26514   0.23049   0.00000  Uiso   1.00
H304   H     0.98906   0.27135   0.20797   0.00000  Uiso   1.00
C305   C     0.95451   0.08388   0.29623   0.00000  Uiso   1.00
C306   C     0.93277   0.09693   0.33958   0.00000  Uiso   1.00
H307   H     0.95568   0.10638   0.36508   0.00000  Uiso   1.00
H308   H     0.91193   0.12704   0.33486   0.00000  Uiso   1.00
H309   H     0.91454   0.06666   0.35178   0.00000  Uiso   1.00
H310   H     0.93353   0.06787   0.27203   0.00000  Uiso   1.00
H311   H     0.97357   0.05307   0.30405   0.00000  Uiso   1.00
C312   C     0.70300   0.25579   0.27699   0.00000  Uiso   1.00
C313   C     0.71647   0.25178   0.32543   0.00000  Uiso   1.00
H314   H     0.74376   0.22869   0.32868   0.00000  Uiso   1.00
H315   H     0.72439   0.28695   0.33858   0.00000  Uiso   1.00
H316   H     0.69110   0.23734   0.34607   0.00000  Uiso   1.00
H317   H     0.72781   0.27014   0.25571   0.00000  Uiso   1.00
H318   H     0.67802   0.28242   0.27705   0.00000  Uiso   1.00
C319   C     0.08769   0.50011   0.25584   0.00000  Uiso   1.00
C320   C     0.24620   0.49963   0.25141   0.00000  Uiso   1.00
C321   C     0.12738   0.42772   0.02212   0.00000  Uiso   1.00
C322   C     0.21027   0.57131   0.47858   0.00000  Uiso   1.00
C323   C     0.02184   0.45953   0.27869   0.00000  Uiso   1.00
C324   C     0.31398   0.53918   0.24476   0.00000  Uiso   1.00
C325   C     0.31162   0.45910   0.27655   0.00000  Uiso   1.00
C326   C     0.02090   0.54231   0.25937   0.00000  Uiso   1.00
C327   C     0.29116   0.49858   0.25642   0.00000  Uiso   1.00
C328   C     0.04312   0.50041   0.26493   0.00000  Uiso   1.00
C329   C     0.18523   0.35802   0.21639   0.00000  Uiso   1.00
C330   C     0.14833   0.64200   0.28368   0.00000  Uiso   1.00
C331   C     0.14897   0.35825   0.28407   0.00000  Uiso   1.00
C332   C     0.18537   0.64171   0.21648   0.00000  Uiso   1.00
C333   C     0.16542   0.49999   0.16445   0.00000  Uiso   1.00
C334   C     0.16803   0.50013   0.33557   0.00000  Uiso   1.00
C335   C     0.19513   0.53305   0.40678   0.00000  Uiso   1.00
C336   C     0.13704   0.47011   0.09278   0.00000  Uiso   1.00
C337   C     0.17053   0.50046   0.38386   0.00000  Uiso   1.00
C338   C     0.16334   0.50028   0.11619   0.00000  Uiso   1.00
C339   C     0.14789   0.46687   0.40665   0.00000  Uiso   1.00
C340   C     0.18761   0.53266   0.09377   0.00000  Uiso   1.00
C341   C     0.14803   0.46459   0.45284   0.00000  Uiso   1.00
C342   C     0.18770   0.53534   0.04754   0.00000  Uiso   1.00
C343   C     0.16871   0.50013   0.47668   0.00000  Uiso   1.00
C344   C     0.16641   0.50055   0.02345   0.00000  Uiso   1.00
C345   C     0.19172   0.53515   0.45381   0.00000  Uiso   1.00
C346   C     0.14297   0.46598   0.04624   0.00000  Uiso   1.00
C347   C     0.12821   0.42742   0.47568   0.00000  Uiso   1.00
C348   C     0.20917   0.57138   0.02500   0.00000  Uiso   1.00
Cu349  Cu    0.16667   0.54689   0.25000   0.00000  Uiso   1.00
Cu350  Cu    0.16667   0.45311   0.25000   0.00000  Uiso   1.00
H351   H     0.13030   0.44230   0.38735   0.00000  Uiso   1.00
H352   H     0.20597   0.55618   0.11335   0.00000  Uiso   1.00
H353   H     0.20022   0.37658   0.18955   0.00000  Uiso   1.00
H354   H     0.13345   0.62349   0.31056   0.00000  Uiso   1.00
H355   H     0.13484   0.37692   0.31148   0.00000  Uiso   1.00
H356   H     0.20050   0.62293   0.18971   0.00000  Uiso   1.00
N357   N     0.16667   0.61736   0.25000   0.00000  Uiso   1.00
N358   N     0.16667   0.38264   0.25000   0.00000  Uiso   1.00
O359   O     0.10655   0.53958   0.24999   0.00000  Uiso   1.00
O360   O     0.22679   0.46042   0.25000   0.00000  Uiso   1.00
O361   O     0.22679   0.53958   0.25000   0.00000  Uiso   1.00
O362   O     0.10655   0.46042   0.24999   0.00000  Uiso   1.00
O363   O     0.16666   0.53960   0.18513   0.00000  Uiso   1.00
O364   O     0.16668   0.46040   0.31487   0.00000  Uiso   1.00
O365   O     0.16668   0.53960   0.31487   0.00000  Uiso   1.00
O366   O     0.16666   0.46040   0.18513   0.00000  Uiso   1.00
C367   C     0.22870   0.55956   0.38141   0.00000  Uiso   1.00
C368   C     0.21520   0.60850   0.36580   0.00000  Uiso   1.00
H369   H     0.18245   0.61544   0.37384   0.00000  Uiso   1.00
H370   H     0.23412   0.63616   0.38138   0.00000  Uiso   1.00
H371   H     0.21976   0.61160   0.32937   0.00000  Uiso   1.00
H372   H     0.25698   0.56187   0.40154   0.00000  Uiso   1.00
H373   H     0.23909   0.53908   0.35204   0.00000  Uiso   1.00
C374   C     0.09997   0.44847   0.11669   0.00000  Uiso   1.00
C375   C     0.07073   0.48613   0.13515   0.00000  Uiso   1.00
H376   H     0.08553   0.50835   0.16045   0.00000  Uiso   1.00
H377   H     0.05970   0.50898   0.10784   0.00000  Uiso   1.00
H378   H     0.04379   0.46905   0.15104   0.00000  Uiso   1.00
H379   H     0.08055   0.42747   0.09453   0.00000  Uiso   1.00
H380   H     0.11003   0.42466   0.14362   0.00000  Uiso   1.00
C381   C     0.10847   0.38628   0.45173   0.00000  Uiso   1.00
C382   C     0.14063   0.35215   0.43318   0.00000  Uiso   1.00
H383   H     0.12502   0.65594   0.41634   0.00000  Uiso   1.00
H384   H     0.16115   0.36959   0.40877   0.00000  Uiso   1.00
H385   H     0.15945   0.33770   0.46052   0.00000  Uiso   1.00
H386   H     0.08804   0.36621   0.47441   0.00000  Uiso   1.00
H387   H     0.08792   0.39882   0.42506   0.00000  Uiso   1.00
C388   C     0.23055   0.61116   0.04938   0.00000  Uiso   1.00
C389   C     0.19974   0.64680   0.06811   0.00000  Uiso   1.00
H390   H     0.17805   0.63014   0.09181   0.00000  Uiso   1.00
H391   H     0.21636   0.34169   0.08580   0.00000  Uiso   1.00
H392   H     0.18207   0.66289   0.04069   0.00000  Uiso   1.00
H393   H     0.25042   0.59710   0.07587   0.00000  Uiso   1.00
H394   H     0.25199   0.63043   0.02720   0.00000  Uiso   1.00
F395   F     0.11561   0.38792   0.04347   0.00000  Uiso   1.00
F396   F     0.22761   0.60871   0.45809   0.00000  Uiso   1.00
C397   C     0.04507   0.41906   0.30020   0.00000  Uiso   1.00
C398   C     0.05034   0.37780   0.26802   0.00000  Uiso   1.00
H399   H     0.02065   0.36592   0.25453   0.00000  Uiso   1.00
H400   H     0.07017   0.38716   0.23937   0.00000  Uiso   1.00
H401   H     0.06476   0.34826   0.28584   0.00000  Uiso   1.00
H402   H     0.07529   0.43005   0.31295   0.00000  Uiso   1.00
H403   H     0.02975   0.40768   0.33135   0.00000  Uiso   1.00
C404   C     0.29808   0.57835   0.21466   0.00000  Uiso   1.00
C405   C     0.28604   0.55996   0.16897   0.00000  Uiso   1.00
H406   H     0.25994   0.53532   0.17094   0.00000  Uiso   1.00
H407   H     0.27685   0.59005   0.14790   0.00000  Uiso   1.00
H408   H     0.31257   0.54186   0.15296   0.00000  Uiso   1.00
H409   H     0.27273   0.59847   0.23049   0.00000  Uiso   1.00
H410   H     0.32239   0.60468   0.20797   0.00000  Uiso   1.00
C411   C     0.28785   0.41721   0.29623   0.00000  Uiso   1.00
C412   C     0.26611   0.43027   0.33958   0.00000  Uiso   1.00
H413   H     0.28901   0.43971   0.36508   0.00000  Uiso   1.00
H414   H     0.24526   0.46037   0.33486   0.00000  Uiso   1.00
H415   H     0.24787   0.39999   0.35178   0.00000  Uiso   1.00
H416   H     0.26686   0.40120   0.27203   0.00000  Uiso   1.00
H417   H     0.30690   0.38641   0.30405   0.00000  Uiso   1.00
C418   C     0.03634   0.58912   0.27699   0.00000  Uiso   1.00
C419   C     0.04980   0.58511   0.32543   0.00000  Uiso   1.00
H420   H     0.07709   0.56202   0.32868   0.00000  Uiso   1.00
H421   H     0.05772   0.62029   0.33858   0.00000  Uiso   1.00
H422   H     0.02443   0.57067   0.34607   0.00000  Uiso   1.00
H423   H     0.06114   0.60348   0.25571   0.00000  Uiso   1.00
H424   H     0.01135   0.61575   0.27705   0.00000  Uiso   1.00
C425   C     0.42103   0.50011   0.25584   0.00000  Uiso   1.00
C426   C     0.57953   0.49963   0.25141   0.00000  Uiso   1.00
C427   C     0.46072   0.42772   0.02212   0.00000  Uiso   1.00
C428   C     0.54360   0.57131   0.47858   0.00000  Uiso   1.00
C429   C     0.35517   0.45953   0.27869   0.00000  Uiso   1.00
C430   C     0.64732   0.53918   0.24476   0.00000  Uiso   1.00
C431   C     0.64495   0.45910   0.27655   0.00000  Uiso   1.00
C432   C     0.35423   0.54231   0.25937   0.00000  Uiso   1.00
C433   C     0.62449   0.49858   0.25642   0.00000  Uiso   1.00
C434   C     0.37645   0.50041   0.26493   0.00000  Uiso   1.00
C435   C     0.51857   0.35802   0.21639   0.00000  Uiso   1.00
C436   C     0.48167   0.64200   0.28368   0.00000  Uiso   1.00
C437   C     0.48230   0.35825   0.28407   0.00000  Uiso   1.00
C438   C     0.51870   0.64171   0.21648   0.00000  Uiso   1.00
C439   C     0.49875   0.49999   0.16445   0.00000  Uiso   1.00
C440   C     0.50136   0.50013   0.33557   0.00000  Uiso   1.00
C441   C     0.52846   0.53305   0.40678   0.00000  Uiso   1.00
C442   C     0.47038   0.47011   0.09278   0.00000  Uiso   1.00
C443   C     0.50386   0.50046   0.38386   0.00000  Uiso   1.00
C444   C     0.49668   0.50028   0.11619   0.00000  Uiso   1.00
C445   C     0.48123   0.46687   0.40665   0.00000  Uiso   1.00
C446   C     0.52095   0.53266   0.09377   0.00000  Uiso   1.00
C447   C     0.48136   0.46459   0.45284   0.00000  Uiso   1.00
C448   C     0.52104   0.53534   0.04754   0.00000  Uiso   1.00
C449   C     0.50205   0.50013   0.47668   0.00000  Uiso   1.00
C450   C     0.49975   0.50055   0.02345   0.00000  Uiso   1.00
C451   C     0.52505   0.53515   0.45381   0.00000  Uiso   1.00
C452   C     0.47630   0.46598   0.04624   0.00000  Uiso   1.00
C453   C     0.46154   0.42742   0.47568   0.00000  Uiso   1.00
C454   C     0.54250   0.57138   0.02500   0.00000  Uiso   1.00
Cu455  Cu    0.50000   0.54689   0.25000   0.00000  Uiso   1.00
Cu456  Cu    0.50000   0.45311   0.25000   0.00000  Uiso   1.00
H457   H     0.46363   0.44230   0.38735   0.00000  Uiso   1.00
H458   H     0.53930   0.55618   0.11335   0.00000  Uiso   1.00
H459   H     0.53356   0.37658   0.18955   0.00000  Uiso   1.00
H460   H     0.46678   0.62349   0.31056   0.00000  Uiso   1.00
H461   H     0.46818   0.37692   0.31148   0.00000  Uiso   1.00
H462   H     0.53383   0.62293   0.18971   0.00000  Uiso   1.00
N463   N     0.50000   0.61736   0.25000   0.00000  Uiso   1.00
N464   N     0.50000   0.38264   0.25000   0.00000  Uiso   1.00
O465   O     0.43988   0.53958   0.24999   0.00000  Uiso   1.00
O466   O     0.56012   0.46042   0.25000   0.00000  Uiso   1.00
O467   O     0.56012   0.53958   0.25000   0.00000  Uiso   1.00
O468   O     0.43988   0.46042   0.24999   0.00000  Uiso   1.00
O469   O     0.49999   0.53960   0.18513   0.00000  Uiso   1.00
O470   O     0.50001   0.46040   0.31487   0.00000  Uiso   1.00
O471   O     0.50001   0.53960   0.31487   0.00000  Uiso   1.00
O472   O     0.49999   0.46040   0.18513   0.00000  Uiso   1.00
C473   C     0.56204   0.55956   0.38141   0.00000  Uiso   1.00
C474   C     0.54854   0.60850   0.36580   0.00000  Uiso   1.00
H475   H     0.51579   0.61544   0.37384   0.00000  Uiso   1.00
H476   H     0.56746   0.63616   0.38138   0.00000  Uiso   1.00
H477   H     0.55310   0.61160   0.32937   0.00000  Uiso   1.00
H478   H     0.59031   0.56187   0.40154   0.00000  Uiso   1.00
H479   H     0.57242   0.53908   0.35204   0.00000  Uiso   1.00
C480   C     0.43330   0.44847   0.11669   0.00000  Uiso   1.00
C481   C     0.40406   0.48613   0.13515   0.00000  Uiso   1.00
H482   H     0.41887   0.50835   0.16045   0.00000  Uiso   1.00
H483   H     0.39303   0.50898   0.10784   0.00000  Uiso   1.00
H484   H     0.37713   0.46905   0.15104   0.00000  Uiso   1.00
H485   H     0.41388   0.42747   0.09453   0.00000  Uiso   1.00
H486   H     0.44337   0.42466   0.14362   0.00000  Uiso   1.00
C487   C     0.44180   0.38628   0.45173   0.00000  Uiso   1.00
C488   C     0.47396   0.35215   0.43318   0.00000  Uiso   1.00
H489   H     0.45836   0.65594   0.41634   0.00000  Uiso   1.00
H490   H     0.49448   0.36959   0.40877   0.00000  Uiso   1.00
H491   H     0.49278   0.33770   0.46052   0.00000  Uiso   1.00
H492   H     0.42137   0.36621   0.47441   0.00000  Uiso   1.00
H493   H     0.42125   0.39882   0.42506   0.00000  Uiso   1.00
C494   C     0.56388   0.61116   0.04938   0.00000  Uiso   1.00
C495   C     0.53308   0.64680   0.06811   0.00000  Uiso   1.00
H496   H     0.51138   0.63014   0.09181   0.00000  Uiso   1.00
H497   H     0.54969   0.34169   0.08580   0.00000  Uiso   1.00
H498   H     0.51540   0.66289   0.04069   0.00000  Uiso   1.00
H499   H     0.58375   0.59710   0.07587   0.00000  Uiso   1.00
H500   H     0.58532   0.63043   0.02720   0.00000  Uiso   1.00
F501   F     0.44894   0.38792   0.04347   0.00000  Uiso   1.00
F502   F     0.56094   0.60871   0.45809   0.00000  Uiso   1.00
C503   C     0.37841   0.41906   0.30020   0.00000  Uiso   1.00
C504   C     0.38368   0.37780   0.26802   0.00000  Uiso   1.00
H505   H     0.35399   0.36592   0.25453   0.00000  Uiso   1.00
H506   H     0.40351   0.38716   0.23937   0.00000  Uiso   1.00
H507   H     0.39810   0.34826   0.28584   0.00000  Uiso   1.00
H508   H     0.40862   0.43005   0.31295   0.00000  Uiso   1.00
H509   H     0.36309   0.40768   0.33135   0.00000  Uiso   1.00
C510   C     0.63142   0.57835   0.21466   0.00000  Uiso   1.00
C511   C     0.61938   0.55996   0.16897   0.00000  Uiso   1.00
H512   H     0.59327   0.53532   0.17094   0.00000  Uiso   1.00
H513   H     0.61018   0.59005   0.14790   0.00000  Uiso   1.00
H514   H     0.64590   0.54186   0.15296   0.00000  Uiso   1.00
H515   H     0.60607   0.59847   0.23049   0.00000  Uiso   1.00
H516   H     0.65572   0.60468   0.20797   0.00000  Uiso   1.00
C517   C     0.62118   0.41721   0.29623   0.00000  Uiso   1.00
C518   C     0.59944   0.43027   0.33958   0.00000  Uiso   1.00
H519   H     0.62235   0.43971   0.36508   0.00000  Uiso   1.00
H520   H     0.57860   0.46037   0.33486   0.00000  Uiso   1.00
H521   H     0.58121   0.39999   0.35178   0.00000  Uiso   1.00
H522   H     0.60019   0.40120   0.27203   0.00000  Uiso   1.00
H523   H     0.64024   0.38641   0.30405   0.00000  Uiso   1.00
C524   C     0.36967   0.58912   0.27699   0.00000  Uiso   1.00
C525   C     0.38314   0.58511   0.32543   0.00000  Uiso   1.00
H526   H     0.41043   0.56202   0.32868   0.00000  Uiso   1.00
H527   H     0.39105   0.62029   0.33858   0.00000  Uiso   1.00
H528   H     0.35777   0.57067   0.34607   0.00000  Uiso   1.00
H529   H     0.39448   0.60348   0.25571   0.00000  Uiso   1.00
H530   H     0.34469   0.61575   0.27705   0.00000  Uiso   1.00
C531   C     0.75436   0.50011   0.25584   0.00000  Uiso   1.00
C532   C     0.91286   0.49963   0.25141   0.00000  Uiso   1.00
C533   C     0.79405   0.42772   0.02212   0.00000  Uiso   1.00
C534   C     0.87694   0.57131   0.47858   0.00000  Uiso   1.00
C535   C     0.68850   0.45953   0.27869   0.00000  Uiso   1.00
C536   C     0.98065   0.53918   0.24476   0.00000  Uiso   1.00
C537   C     0.97828   0.45910   0.27655   0.00000  Uiso   1.00
C538   C     0.68756   0.54231   0.25937   0.00000  Uiso   1.00
C539   C     0.95783   0.49858   0.25642   0.00000  Uiso   1.00
C540   C     0.70979   0.50041   0.26493   0.00000  Uiso   1.00
C541   C     0.85190   0.35802   0.21639   0.00000  Uiso   1.00
C542   C     0.81500   0.64200   0.28368   0.00000  Uiso   1.00
C543   C     0.81563   0.35825   0.28407   0.00000  Uiso   1.00
C544   C     0.85204   0.64171   0.21648   0.00000  Uiso   1.00
C545   C     0.83209   0.49999   0.16445   0.00000  Uiso   1.00
C546   C     0.83469   0.50013   0.33557   0.00000  Uiso   1.00
C547   C     0.86180   0.53305   0.40678   0.00000  Uiso   1.00
C548   C     0.80371   0.47011   0.09278   0.00000  Uiso   1.00
C549   C     0.83720   0.50046   0.38386   0.00000  Uiso   1.00
C550   C     0.83001   0.50028   0.11619   0.00000  Uiso   1.00
C551   C     0.81456   0.46687   0.40665   0.00000  Uiso   1.00
C552   C     0.85428   0.53266   0.09377   0.00000  Uiso   1.00
C553   C     0.81469   0.46459   0.45284   0.00000  Uiso   1.00
C554   C     0.85437   0.53534   0.04754   0.00000  Uiso   1.00
C555   C     0.83538   0.50013   0.47668   0.00000  Uiso   1.00
C556   C     0.83308   0.50055   0.02345   0.00000  Uiso   1.00
C557   C     0.85838   0.53515   0.45381   0.00000  Uiso   1.00
C558   C     0.80964   0.46598   0.04624   0.00000  Uiso   1.00
C559   C     0.79488   0.42742   0.47568   0.00000  Uiso   1.00
C560   C     0.87584   0.57138   0.02500   0.00000  Uiso   1.00
Cu561  Cu    0.83333   0.54689   0.25000   0.00000  Uiso   1.00
Cu562  Cu    0.83333   0.45311   0.25000   0.00000  Uiso   1.00
H563   H     0.79696   0.44230   0.38735   0.00000  Uiso   1.00
H564   H     0.87264   0.55618   0.11335   0.00000  Uiso   1.00
H565   H     0.86689   0.37658   0.18955   0.00000  Uiso   1.00
H566   H     0.80011   0.62349   0.31056   0.00000  Uiso   1.00
H567   H     0.80151   0.37692   0.31148   0.00000  Uiso   1.00
H568   H     0.86717   0.62293   0.18971   0.00000  Uiso   1.00
N569   N     0.83333   0.61736   0.25000   0.00000  Uiso   1.00
N570   N     0.83333   0.38264   0.25000   0.00000  Uiso   1.00
O571   O     0.77321   0.53958   0.24999   0.00000  Uiso   1.00
O572   O     0.89345   0.46042   0.25000   0.00000  Uiso   1.00
O573   O     0.89345   0.53958   0.25000   0.00000  Uiso   1.00
O574   O     0.77321   0.46042   0.24999   0.00000  Uiso   1.00
O575   O     0.83332   0.53960   0.18513   0.00000  Uiso   1.00
O576   O     0.83334   0.46040   0.31487   0.00000  Uiso   1.00
O577   O     0.83334   0.53960   0.31487   0.00000  Uiso   1.00
O578   O     0.83332   0.46040   0.18513   0.00000  Uiso   1.00
C579   C     0.89537   0.55956   0.38141   0.00000  Uiso   1.00
C580   C     0.88187   0.60850   0.36580   0.00000  Uiso   1.00
H581   H     0.84912   0.61544   0.37384   0.00000  Uiso   1.00
H582   H     0.90079   0.63616   0.38138   0.00000  Uiso   1.00
H583   H     0.88643   0.61160   0.32937   0.00000  Uiso   1.00
H584   H     0.92364   0.56187   0.40154   0.00000  Uiso   1.00
H585   H     0.90575   0.53908   0.35204   0.00000  Uiso   1.00
C586   C     0.76664   0.44847   0.11669   0.00000  Uiso   1.00
C587   C     0.73739   0.48613   0.13515   0.00000  Uiso   1.00
H588   H     0.75220   0.50835   0.16045   0.00000  Uiso   1.00
H589   H     0.72637   0.50898   0.10784   0.00000  Uiso   1.00
H590   H     0.71046   0.46905   0.15104   0.00000  Uiso   1.00
H591   H     0.74721   0.42747   0.09453   0.00000  Uiso   1.00
H592   H     0.77670   0.42466   0.14362   0.00000  Uiso   1.00
C593   C     0.77514   0.38628   0.45173   0.00000  Uiso   1.00
C594   C     0.80729   0.35215   0.43318   0.00000  Uiso   1.00
H595   H     0.79169   0.65594   0.41634   0.00000  Uiso   1.00
H596   H     0.82782   0.36959   0.40877   0.00000  Uiso   1.00
H597   H     0.82612   0.33770   0.46052   0.00000  Uiso   1.00
H598   H     0.75470   0.36621   0.47441   0.00000  Uiso   1.00
H599   H     0.75458   0.39882   0.42506   0.00000  Uiso   1.00
C600   C     0.89721   0.61116   0.04938   0.00000  Uiso   1.00
C601   C     0.86641   0.64680   0.06811   0.00000  Uiso   1.00
H602   H     0.84471   0.63014   0.09181   0.00000  Uiso   1.00
H603   H     0.88302   0.34169   0.08580   0.00000  Uiso   1.00
H604   H     0.84874   0.66289   0.04069   0.00000  Uiso   1.00
H605   H     0.91708   0.59710   0.07587   0.00000  Uiso   1.00
H606   H     0.91866   0.63043   0.02720   0.00000  Uiso   1.00
F607   F     0.78228   0.38792   0.04347   0.00000  Uiso   1.00
F608   F     0.89427   0.60871   0.45809   0.00000  Uiso   1.00
C609   C     0.71174   0.41906   0.30020   0.00000  Uiso   1.00
C610   C     0.71701   0.37780   0.26802   0.00000  Uiso   1.00
H611   H     0.68732   0.36592   0.25453   0.00000  Uiso   1.00
H612   H     0.73684   0.38716   0.23937   0.00000  Uiso   1.00
H613   H     0.73143   0.34826   0.28584   0.00000  Uiso   1.00
H614   H     0.74195   0.43005   0.31295   0.00000  Uiso   1.00
H615   H     0.69642   0.40768   0.33135   0.00000  Uiso   1.00
C616   C     0.96475   0.57835   0.21466   0.00000  Uiso   1.00
C617   C     0.95271   0.55996   0.16897   0.00000  Uiso   1.00
H618   H     0.92661   0.53532   0.17094   0.00000  Uiso   1.00
H619   H     0.94351   0.59005   0.14790   0.00000  Uiso   1.00
H620   H     0.97923   0.54186   0.15296   0.00000  Uiso   1.00
H621   H     0.93940   0.59847   0.23049   0.00000  Uiso   1.00
H622   H     0.98906   0.60468   0.20797   0.00000  Uiso   1.00
C623   C     0.95451   0.41721   0.29623   0.00000  Uiso   1.00
C624   C     0.93277   0.43027   0.33958   0.00000  Uiso   1.00
H625   H     0.95568   0.43971   0.36508   0.00000  Uiso   1.00
H626   H     0.91193   0.46037   0.33486   0.00000  Uiso   1.00
H627   H     0.91454   0.39999   0.35178   0.00000  Uiso   1.00
H628   H     0.93353   0.40120   0.27203   0.00000  Uiso   1.00
H629   H     0.97357   0.38641   0.30405   0.00000  Uiso   1.00
C630   C     0.70300   0.58912   0.27699   0.00000  Uiso   1.00
C631   C     0.71647   0.58511   0.32543   0.00000  Uiso   1.00
H632   H     0.74376   0.56202   0.32868   0.00000  Uiso   1.00
H633   H     0.72439   0.62029   0.33858   0.00000  Uiso   1.00
H634   H     0.69110   0.57067   0.34607   0.00000  Uiso   1.00
H635   H     0.72781   0.60348   0.25571   0.00000  Uiso   1.00
H636   H     0.67802   0.61575   0.27705   0.00000  Uiso   1.00
C637   C     0.08769   0.83344   0.25584   0.00000  Uiso   1.00
C638   C     0.24620   0.83296   0.25141   0.00000  Uiso   1.00
C639   C     0.12738   0.76105   0.02212   0.00000  Uiso   1.00
C640   C     0.21027   0.90465   0.47858   0.00000  Uiso   1.00
C641   C     0.02184   0.79287   0.27869   0.00000  Uiso   1.00
C642   C     0.31398   0.87252   0.24476   0.00000  Uiso   1.00
C643   C     0.31162   0.79244   0.27655   0.00000  Uiso   1.00
C644   C     0.02090   0.87564   0.25937   0.00000  Uiso   1.00
C645   C     0.29116   0.83192   0.25642   0.00000  Uiso   1.00
C646   C     0.04312   0.83375   0.26493   0.00000  Uiso   1.00
C647   C     0.18523   0.69135   0.21639   0.00000  Uiso   1.00
C648   C     0.14833   0.97534   0.28368   0.00000  Uiso   1.00
C649   C     0.14897   0.69158   0.28407   0.00000  Uiso   1.00
C650   C     0.18537   0.97504   0.21648   0.00000  Uiso   1.00
C651   C     0.16542   0.83332   0.16445   0.00000  Uiso   1.00
C652   C     0.16803   0.83346   0.33557   0.00000  Uiso   1.00
C653   C     0.19513   0.86638   0.40678   0.00000  Uiso   1.00
C654   C     0.13704   0.80344   0.09278   0.00000  Uiso   1.00
C655   C     0.17053   0.83379   0.38386   0.00000  Uiso   1.00
C656   C     0.16334   0.83361   0.11619   0.00000  Uiso   1.00
C657   C     0.14789   0.80021   0.40665   0.00000  Uiso   1.00
C658   C     0.18761   0.86600   0.09377   0.00000  Uiso   1.00
C659   C     0.14803   0.79793   0.45284   0.00000  Uiso   1.00
C660   C     0.18770   0.86867   0.04754   0.00000  Uiso   1.00
C661   C     0.16871   0.83347   0.47668   0.00000  Uiso   1.00
C662   C     0.16641   0.83389   0.02345   0.00000  Uiso   1.00
C663   C     0.19172   0.86848   0.45381   0.00000  Uiso   1.00
C664   C     0.14297   0.79931   0.04624   0.00000  Uiso   1.00
C665   C     0.12821   0.76076   0.47568   0.00000  Uiso   1.00
C666   C     0.20917   0.90472   0.02500   0.00000  Uiso   1.00
Cu667  Cu    0.16667   0.88022   0.25000   0.00000  Uiso   1.00
Cu668  Cu    0.16667   0.78645   0.25000   0.00000  Uiso   1.00
H669   H     0.13030   0.77564   0.38735   0.00000  Uiso   1.00
H670   H     0.20597   0.88951   0.11335   0.00000  Uiso   1.00
H671   H     0.20022   0.70991   0.18955   0.00000  Uiso   1.00
H672   H     0.13345   0.95683   0.31056   0.00000  Uiso   1.00
H673   H     0.13484   0.71025   0.31148   0.00000  Uiso   1.00
H674   H     0.20050   0.95626   0.18971   0.00000  Uiso   1.00
N675   N     0.16667   0.95069   0.25000   0.00000  Uiso   1.00
N676   N     0.16667   0.71598   0.25000   0.00000  Uiso   1.00
O677   O     0.10655   0.87291   0.24999   0.00000  Uiso   1.00
O678   O     0.22679   0.79375   0.25000   0.00000  Uiso   1.00
O679   O     0.22679   0.87291   0.25000   0.00000  Uiso   1.00
O680   O     0.10655   0.79375   0.24999   0.00000  Uiso   1.00
O681   O     0.16666   0.87293   0.18513   0.00000  Uiso   1.00
O682   O     0.16668   0.79373   0.31487   0.00000  Uiso   1.00
O683   O     0.16668   0.87293   0.31487   0.00000  Uiso   1.00
O684   O     0.16666   0.79373   0.18513   0.00000  Uiso   1.00
C685   C     0.22870   0.89290   0.38141   0.00000  Uiso   1.00
C686   C     0.21520   0.94184   0.36580   0.00000  Uiso   1.00
H687   H     0.18245   0.94877   0.37384   0.00000  Uiso   1.00
H688   H     0.23412   0.96950   0.38138   0.00000  Uiso   1.00
H689   H     0.21976   0.94494   0.32937   0.00000  Uiso   1.00
H690   H     0.25698   0.89520   0.40154   0.00000  Uiso   1.00
H691   H     0.23909   0.87242   0.35204   0.00000  Uiso   1.00
C692   C     0.09997   0.78181   0.11669   0.00000  Uiso   1.00
C693   C     0.07073   0.81947   0.13515   0.00000  Uiso   1.00
H694   H     0.08553   0.84168   0.16045   0.00000  Uiso   1.00
H695   H     0.05970   0.84231   0.10784   0.00000  Uiso   1.00
H696   H     0.04379   0.80238   0.15104   0.00000  Uiso   1.00
H697   H     0.08055   0.76080   0.09453   0.00000  Uiso   1.00
H698   H     0.11003   0.75799   0.14362   0.00000  Uiso   1.00
C699   C     0.10847   0.71961   0.45173   0.00000  Uiso   1.00
C700   C     0.14063   0.68548   0.43318   0.00000  Uiso   1.00
H701   H     0.12502   0.98927   0.41634   0.00000  Uiso   1.00
H702   H     0.16115   0.70293   0.40877   0.00000  Uiso   1.00
H703   H     0.15945   0.67103   0.46052   0.00000  Uiso   1.00
H704   H     0.08804   0.69954   0.47441   0.00000  Uiso   1.00
H705   H     0.08792   0.73215   0.42506   0.00000  Uiso   1.00
C706   C     0.23055   0.94449   0.04938   0.00000  Uiso   1.00
C707   C     0.19974   0.98013   0.06811   0.00000  Uiso   1.00
H708   H     0.17805   0.96347   0.09181   0.00000  Uiso   1.00
H709   H     0.21636   0.67502   0.08580   0.00000  Uiso   1.00
H710   H     0.18207   0.99622   0.04069   0.00000  Uiso   1.00
H711   H     0.25042   0.93044   0.07587   0.00000  Uiso   1.00
H712   H     0.25199   0.96376   0.02720   0.00000  Uiso   1.00
F713   F     0.11561   0.72125   0.04347   0.00000  Uiso   1.00
F714   F     0.22761   0.94204   0.45809   0.00000  Uiso   1.00
C715   C     0.04507   0.75239   0.30020   0.00000  Uiso   1.00
C716   C     0.05034   0.71113   0.26802   0.00000  Uiso   1.00
H717   H     0.02065   0.69925   0.25453   0.00000  Uiso   1.00
H718   H     0.07017   0.72049   0.23937   0.00000  Uiso   1.00
H719   H     0.06476   0.68160   0.28584   0.00000  Uiso   1.00
H720   H     0.07529   0.76339   0.31295   0.00000  Uiso   1.00
H721   H     0.02975   0.74101   0.33135   0.00000  Uiso   1.00
C722   C     0.29808   0.91169   0.21466   0.00000  Uiso   1.00
C723   C     0.28604   0.89330   0.16897   0.00000  Uiso   1.00
H724   H     0.25994   0.86865   0.17094   0.00000  Uiso   1.00
H725   H     0.27685   0.92339   0.14790   0.00000  Uiso   1.00
H726   H     0.31257   0.87519   0.15296   0.00000  Uiso   1.00
H727   H     0.27273   0.93181   0.23049   0.00000  Uiso   1.00
H728   H     0.32239   0.93801   0.20797   0.00000  Uiso   1.00
C729   C     0.28785   0.75055   0.29623   0.00000  Uiso   1.00
C730   C     0.26611   0.76360   0.33958   0.00000  Uiso   1.00
H731   H     0.28901   0.77305   0.36508   0.00000  Uiso   1.00
H732   H     0.24526   0.79370   0.33486   0.00000  Uiso   1.00
H733   H     0.24787   0.73332   0.35178   0.00000  Uiso   1.00
H734   H     0.26686   0.73454   0.27203   0.00000  Uiso   1.00
H735   H     0.30690   0.71974   0.30405   0.00000  Uiso   1.00
C736   C     0.03634   0.92245   0.27699   0.00000  Uiso   1.00
C737   C     0.04980   0.91845   0.32543   0.00000  Uiso   1.00
H738   H     0.07709   0.89535   0.32868   0.00000  Uiso   1.00
H739   H     0.05772   0.95362   0.33858   0.00000  Uiso   1.00
H740   H     0.02443   0.90401   0.34607   0.00000  Uiso   1.00
H741   H     0.06114   0.93681   0.25571   0.00000  Uiso   1.00
H742   H     0.01135   0.94908   0.27705   0.00000  Uiso   1.00
C743   C     0.42103   0.83344   0.25584   0.00000  Uiso   1.00
C744   C     0.57953   0.83296   0.25141   0.00000  Uiso   1.00
C745   C     0.46072   0.76105   0.02212   0.00000  Uiso   1.00
C746   C     0.54360   0.90465   0.47858   0.00000  Uiso   1.00
C747   C     0.35517   0.79287   0.27869   0.00000  Uiso   1.00
C748   C     0.64732   0.87252   0.24476   0.00000  Uiso   1.00
C749   C     0.64495   0.79244   0.27655   0.00000  Uiso   1.00
C750   C     0.35423   0.87564   0.25937   0.00000  Uiso   1.00
C751   C     0.62449   0.83192   0.25642   0.00000  Uiso   1.00
C752   C     0.37645   0.83375   0.26493   0.00000  Uiso   1.00
C753   C     0.51857   0.69135   0.21639   0.00000  Uiso   1.00
C754   C     0.48167   0.97534   0.28368   0.00000  Uiso   1.00
C755   C     0.48230   0.69158   0.28407   0.00000  Uiso   1.00
C756   C     0.51870   0.97504   0.21648   0.00000  Uiso   1.00
C757   C     0.49875   0.83332   0.16445   0.00000  Uiso   1.00
C758   C     0.50136   0.83346   0.33557   0.00000  Uiso   1.00
C759   C     0.52846   0.86638   0.40678   0.00000  Uiso   1.00
C760   C     0.47038   0.80344   0.09278   0.00000  Uiso   1.00
C761   C     0.50386   0.83379   0.38386   0.00000  Uiso   1.00
C762   C     0.49668   0.83361   0.11619   0.00000  Uiso   1.00
C763   C     0.48123   0.80021   0.40665   0.00000  Uiso   1.00
C764   C     0.52095   0.86600   0.09377   0.00000  Uiso   1.00
C765   C     0.48136   0.79793   0.45284   0.00000  Uiso   1.00
C766   C     0.52104   0.86867   0.04754   0.00000  Uiso   1.00
C767   C     0.50205   0.83347   0.47668   0.00000  Uiso   1.00
C768   C     0.49975   0.83389   0.02345   0.00000  Uiso   1.00
C769   C     0.52505   0.86848   0.45381   0.00000  Uiso   1.00
C770   C     0.47630   0.79931   0.04624   0.00000  Uiso   1.00
C771   C     0.46154   0.76076   0.47568   0.00000  Uiso   1.00
C772   C     0.54250   0.90472   0.02500   0.00000  Uiso   1.00
Cu773  Cu    0.50000   0.88022   0.25000   0.00000  Uiso   1.00
Cu774  Cu    0.50000   0.78645   0.25000   0.00000  Uiso   1.00
H775   H     0.46363   0.77564   0.38735   0.00000  Uiso   1.00
H776   H     0.53930   0.88951   0.11335   0.00000  Uiso   1.00
H777   H     0.53356   0.70991   0.18955   0.00000  Uiso   1.00
H778   H     0.46678   0.95683   0.31056   0.00000  Uiso   1.00
H779   H     0.46818   0.71025   0.31148   0.00000  Uiso   1.00
H780   H     0.53383   0.95626   0.18971   0.00000  Uiso   1.00
N781   N     0.50000   0.95069   0.25000   0.00000  Uiso   1.00
N782   N     0.50000   0.71598   0.25000   0.00000  Uiso   1.00
O783   O     0.43988   0.87291   0.24999   0.00000  Uiso   1.00
O784   O     0.56012   0.79375   0.25000   0.00000  Uiso   1.00
O785   O     0.56012   0.87291   0.25000   0.00000  Uiso   1.00
O786   O     0.43988   0.79375   0.24999   0.00000  Uiso   1.00
O787   O     0.49999   0.87293   0.18513   0.00000  Uiso   1.00
O788   O     0.50001   0.79373   0.31487   0.00000  Uiso   1.00
O789   O     0.50001   0.87293   0.31487   0.00000  Uiso   1.00
O790   O     0.49999   0.79373   0.18513   0.00000  Uiso   1.00
C791   C     0.56204   0.89290   0.38141   0.00000  Uiso   1.00
C792   C     0.54854   0.94184   0.36580   0.00000  Uiso   1.00
H793   H     0.51579   0.94877   0.37384   0.00000  Uiso   1.00
H794   H     0.56746   0.96950   0.38138   0.00000  Uiso   1.00
H795   H     0.55310   0.94494   0.32937   0.00000  Uiso   1.00
H796   H     0.59031   0.89520   0.40154   0.00000  Uiso   1.00
H797   H     0.57242   0.87242   0.35204   0.00000  Uiso   1.00
C798   C     0.43330   0.78181   0.11669   0.00000  Uiso   1.00
C799   C     0.40406   0.81947   0.13515   0.00000  Uiso   1.00
H800   H     0.41887   0.84168   0.16045   0.00000  Uiso   1.00
H801   H     0.39303   0.84231   0.10784   0.00000  Uiso   1.00
H802   H     0.37713   0.80238   0.15104   0.00000  Uiso   1.00
H803   H     0.41388   0.76080   0.09453   0.00000  Uiso   1.00
H804   H     0.44337   0.75799   0.14362   0.00000  Uiso   1.00
C805   C     0.44180   0.71961   0.45173   0.00000  Uiso   1.00
C806   C     0.47396   0.68548   0.43318   0.00000  Uiso   1.00
H807   H     0.45836   0.98927   0.41634   0.00000  Uiso   1.00
H808   H     0.49448   0.70293   0.40877   0.00000  Uiso   1.00
H809   H     0.49278   0.67103   0.46052   0.00000  Uiso   1.00
H810   H     0.42137   0.69954   0.47441   0.00000  Uiso   1.00
H811   H     0.42125   0.73215   0.42506   0.00000  Uiso   1.00
C812   C     0.56388   0.94449   0.04938   0.00000  Uiso   1.00
C813   C     0.53308   0.98013   0.06811   0.00000  Uiso   1.00
H814   H     0.51138   0.96347   0.09181   0.00000  Uiso   1.00
H815   H     0.54969   0.67502   0.08580   0.00000  Uiso   1.00
H816   H     0.51540   0.99622   0.04069   0.00000  Uiso   1.00
H817   H     0.58375   0.93044   0.07587   0.00000  Uiso   1.00
H818   H     0.58532   0.96376   0.02720   0.00000  Uiso   1.00
F819   F     0.44894   0.72125   0.04347   0.00000  Uiso   1.00
F820   F     0.56094   0.94204   0.45809   0.00000  Uiso   1.00
C821   C     0.37841   0.75239   0.30020   0.00000  Uiso   1.00
C822   C     0.38368   0.71113   0.26802   0.00000  Uiso   1.00
H823   H     0.35399   0.69925   0.25453   0.00000  Uiso   1.00
H824   H     0.40351   0.72049   0.23937   0.00000  Uiso   1.00
H825   H     0.39810   0.68160   0.28584   0.00000  Uiso   1.00
H826   H     0.40862   0.76339   0.31295   0.00000  Uiso   1.00
H827   H     0.36309   0.74101   0.33135   0.00000  Uiso   1.00
C828   C     0.63142   0.91169   0.21466   0.00000  Uiso   1.00
C829   C     0.61938   0.89330   0.16897   0.00000  Uiso   1.00
H830   H     0.59327   0.86865   0.17094   0.00000  Uiso   1.00
H831   H     0.61018   0.92339   0.14790   0.00000  Uiso   1.00
H832   H     0.64590   0.87519   0.15296   0.00000  Uiso   1.00
H833   H     0.60607   0.93181   0.23049   0.00000  Uiso   1.00
H834   H     0.65572   0.93801   0.20797   0.00000  Uiso   1.00
C835   C     0.62118   0.75055   0.29623   0.00000  Uiso   1.00
C836   C     0.59944   0.76360   0.33958   0.00000  Uiso   1.00
H837   H     0.62235   0.77305   0.36508   0.00000  Uiso   1.00
H838   H     0.57860   0.79370   0.33486   0.00000  Uiso   1.00
H839   H     0.58121   0.73332   0.35178   0.00000  Uiso   1.00
H840   H     0.60019   0.73454   0.27203   0.00000  Uiso   1.00
H841   H     0.64024   0.71974   0.30405   0.00000  Uiso   1.00
C842   C     0.36967   0.92245   0.27699   0.00000  Uiso   1.00
C843   C     0.38314   0.91845   0.32543   0.00000  Uiso   1.00
H844   H     0.41043   0.89535   0.32868   0.00000  Uiso   1.00
H845   H     0.39105   0.95362   0.33858   0.00000  Uiso   1.00
H846   H     0.35777   0.90401   0.34607   0.00000  Uiso   1.00
H847   H     0.39448   0.93681   0.25571   0.00000  Uiso   1.00
H848   H     0.34469   0.94908   0.27705   0.00000  Uiso   1.00
C849   C     0.75436   0.83344   0.25584   0.00000  Uiso   1.00
C850   C     0.91286   0.83296   0.25141   0.00000  Uiso   1.00
C851   C     0.79405   0.76105   0.02212   0.00000  Uiso   1.00
C852   C     0.87694   0.90465   0.47858   0.00000  Uiso   1.00
C853   C     0.68850   0.79287   0.27869   0.00000  Uiso   1.00
C854   C     0.98065   0.87252   0.24476   0.00000  Uiso   1.00
C855   C     0.97828   0.79244   0.27655   0.00000  Uiso   1.00
C856   C     0.68756   0.87564   0.25937   0.00000  Uiso   1.00
C857   C     0.95783   0.83192   0.25642   0.00000  Uiso   1.00
C858   C     0.70979   0.83375   0.26493   0.00000  Uiso   1.00
C859   C     0.85190   0.69135   0.21639   0.00000  Uiso   1.00
C860   C     0.81500   0.97534   0.28368   0.00000  Uiso   1.00
C861   C     0.81563   0.69158   0.28407   0.00000  Uiso   1.00
C862   C     0.85204   0.97504   0.21648   0.00000  Uiso   1.00
C863   C     0.83209   0.83332   0.16445   0.00000  Uiso   1.00
C864   C     0.83469   0.83346   0.33557   0.00000  Uiso   1.00
C865   C     0.86180   0.86638   0.40678   0.00000  Uiso   1.00
C866   C     0.80371   0.80344   0.09278   0.00000  Uiso   1.00
C867   C     0.83720   0.83379   0.38386   0.00000  Uiso   1.00
C868   C     0.83001   0.83361   0.11619   0.00000  Uiso   1.00
C869   C     0.81456   0.80021   0.40665   0.00000  Uiso   1.00
C870   C     0.85428   0.86600   0.09377   0.00000  Uiso   1.00
C871   C     0.81469   0.79793   0.45284   0.00000  Uiso   1.00
C872   C     0.85437   0.86867   0.04754   0.00000  Uiso   1.00
C873   C     0.83538   0.83347   0.47668   0.00000  Uiso   1.00
C874   C     0.83308   0.83389   0.02345   0.00000  Uiso   1.00
C875   C     0.85838   0.86848   0.45381   0.00000  Uiso   1.00
C876   C     0.80964   0.79931   0.04624   0.00000  Uiso   1.00
C877   C     0.79488   0.76076   0.47568   0.00000  Uiso   1.00
C878   C     0.87584   0.90472   0.02500   0.00000  Uiso   1.00
Cu879  Cu    0.83333   0.88022   0.25000   0.00000  Uiso   1.00
Cu880  Cu    0.83333   0.78645   0.25000   0.00000  Uiso   1.00
H881   H     0.79696   0.77564   0.38735   0.00000  Uiso   1.00
H882   H     0.87264   0.88951   0.11335   0.00000  Uiso   1.00
H883   H     0.86689   0.70991   0.18955   0.00000  Uiso   1.00
H884   H     0.80011   0.95683   0.31056   0.00000  Uiso   1.00
H885   H     0.80151   0.71025   0.31148   0.00000  Uiso   1.00
H886   H     0.86717   0.95626   0.18971   0.00000  Uiso   1.00
N887   N     0.83333   0.95069   0.25000   0.00000  Uiso   1.00
N888   N     0.83333   0.71598   0.25000   0.00000  Uiso   1.00
O889   O     0.77321   0.87291   0.24999   0.00000  Uiso   1.00
O890   O     0.89345   0.79375   0.25000   0.00000  Uiso   1.00
O891   O     0.89345   0.87291   0.25000   0.00000  Uiso   1.00
O892   O     0.77321   0.79375   0.24999   0.00000  Uiso   1.00
O893   O     0.83332   0.87293   0.18513   0.00000  Uiso   1.00
O894   O     0.83334   0.79373   0.31487   0.00000  Uiso   1.00
O895   O     0.83334   0.87293   0.31487   0.00000  Uiso   1.00
O896   O     0.83332   0.79373   0.18513   0.00000  Uiso   1.00
C897   C     0.89537   0.89290   0.38141   0.00000  Uiso   1.00
C898   C     0.88187   0.94184   0.36580   0.00000  Uiso   1.00
H899   H     0.84912   0.94877   0.37384   0.00000  Uiso   1.00
H900   H     0.90079   0.96950   0.38138   0.00000  Uiso   1.00
H901   H     0.88643   0.94494   0.32937   0.00000  Uiso   1.00
H902   H     0.92364   0.89520   0.40154   0.00000  Uiso   1.00
H903   H     0.90575   0.87242   0.35204   0.00000  Uiso   1.00
C904   C     0.76664   0.78181   0.11669   0.00000  Uiso   1.00
C905   C     0.73739   0.81947   0.13515   0.00000  Uiso   1.00
H906   H     0.75220   0.84168   0.16045   0.00000  Uiso   1.00
H907   H     0.72637   0.84231   0.10784   0.00000  Uiso   1.00
H908   H     0.71046   0.80238   0.15104   0.00000  Uiso   1.00
H909   H     0.74721   0.76080   0.09453   0.00000  Uiso   1.00
H910   H     0.77670   0.75799   0.14362   0.00000  Uiso   1.00
C911   C     0.77514   0.71961   0.45173   0.00000  Uiso   1.00
C912   C     0.80729   0.68548   0.43318   0.00000  Uiso   1.00
H913   H     0.79169   0.98927   0.41634   0.00000  Uiso   1.00
H914   H     0.82782   0.70293   0.40877   0.00000  Uiso   1.00
H915   H     0.82612   0.67103   0.46052   0.00000  Uiso   1.00
H916   H     0.75470   0.69954   0.47441   0.00000  Uiso   1.00
H917   H     0.75458   0.73215   0.42506   0.00000  Uiso   1.00
C918   C     0.89721   0.94449   0.04938   0.00000  Uiso   1.00
C919   C     0.86641   0.98013   0.06811   0.00000  Uiso   1.00
H920   H     0.84471   0.96347   0.09181   0.00000  Uiso   1.00
H921   H     0.88302   0.67502   0.08580   0.00000  Uiso   1.00
H922   H     0.84874   0.99622   0.04069   0.00000  Uiso   1.00
H923   H     0.91708   0.93044   0.07587   0.00000  Uiso   1.00
H924   H     0.91866   0.96376   0.02720   0.00000  Uiso   1.00
F925   F     0.78228   0.72125   0.04347   0.00000  Uiso   1.00
F926   F     0.89427   0.94204   0.45809   0.00000  Uiso   1.00
C927   C     0.71174   0.75239   0.30020   0.00000  Uiso   1.00
C928   C     0.71701   0.71113   0.26802   0.00000  Uiso   1.00
H929   H     0.68732   0.69925   0.25453   0.00000  Uiso   1.00
H930   H     0.73684   0.72049   0.23937   0.00000  Uiso   1.00
H931   H     0.73143   0.68160   0.28584   0.00000  Uiso   1.00
H932   H     0.74195   0.76339   0.31295   0.00000  Uiso   1.00
H933   H     0.69642   0.74101   0.33135   0.00000  Uiso   1.00
C934   C     0.96475   0.91169   0.21466   0.00000  Uiso   1.00
C935   C     0.95271   0.89330   0.16897   0.00000  Uiso   1.00
H936   H     0.92661   0.86865   0.17094   0.00000  Uiso   1.00
H937   H     0.94351   0.92339   0.14790   0.00000  Uiso   1.00
H938   H     0.97923   0.87519   0.15296   0.00000  Uiso   1.00
H939   H     0.93940   0.93181   0.23049   0.00000  Uiso   1.00
H940   H     0.98906   0.93801   0.20797   0.00000  Uiso   1.00
C941   C     0.95451   0.75055   0.29623   0.00000  Uiso   1.00
C942   C     0.93277   0.76360   0.33958   0.00000  Uiso   1.00
H943   H     0.95568   0.77305   0.36508   0.00000  Uiso   1.00
H944   H     0.91193   0.79370   0.33486   0.00000  Uiso   1.00
H945   H     0.91454   0.73332   0.35178   0.00000  Uiso   1.00
H946   H     0.93353   0.73454   0.27203   0.00000  Uiso   1.00
H947   H     0.97357   0.71974   0.30405   0.00000  Uiso   1.00
C948   C     0.70300   0.92245   0.27699   0.00000  Uiso   1.00
C949   C     0.71647   0.91845   0.32543   0.00000  Uiso   1.00
H950   H     0.74376   0.89535   0.32868   0.00000  Uiso   1.00
H951   H     0.72439   0.95362   0.33858   0.00000  Uiso   1.00
H952   H     0.69110   0.90401   0.34607   0.00000  Uiso   1.00
H953   H     0.72781   0.93681   0.25571   0.00000  Uiso   1.00
H954   H     0.67802   0.94908   0.27705   0.00000  Uiso   1.00
C955   C     0.08769   0.16677   0.75584   0.00000  Uiso   1.00
C956   C     0.24620   0.16629   0.75141   0.00000  Uiso   1.00
C957   C     0.12738   0.09438   0.52212   0.00000  Uiso   1.00
C958   C     0.21027   0.23798   0.97858   0.00000  Uiso   1.00
C959   C     0.02184   0.12620   0.77869   0.00000  Uiso   1.00
C960   C     0.31398   0.20585   0.74476   0.00000  Uiso   1.00
C961   C     0.31162   0.12577   0.77655   0.00000  Uiso   1.00
C962   C     0.02090   0.20897   0.75937   0.00000  Uiso   1.00
C963   C     0.29116   0.16525   0.75642   0.00000  Uiso   1.00
C964   C     0.04312   0.16708   0.76493   0.00000  Uiso   1.00
C965   C     0.18523   0.02469   0.71639   0.00000  Uiso   1.00
C966   C     0.14833   0.30867   0.78368   0.00000  Uiso   1.00
C967   C     0.14897   0.02491   0.78407   0.00000  Uiso   1.00
C968   C     0.18537   0.30837   0.71648   0.00000  Uiso   1.00
C969   C     0.16542   0.16666   0.66445   0.00000  Uiso   1.00
C970   C     0.16803   0.16679   0.83557   0.00000  Uiso   1.00
C971   C     0.19513   0.19972   0.90678   0.00000  Uiso   1.00
C972   C     0.13704   0.13677   0.59278   0.00000  Uiso   1.00
C973   C     0.17053   0.16713   0.88386   0.00000  Uiso   1.00
C974   C     0.16334   0.16695   0.61619   0.00000  Uiso   1.00
C975   C     0.14789   0.13354   0.90665   0.00000  Uiso   1.00
C976   C     0.18761   0.19933   0.59377   0.00000  Uiso   1.00
C977   C     0.14803   0.13126   0.95284   0.00000  Uiso   1.00
C978   C     0.18770   0.20201   0.54754   0.00000  Uiso   1.00
C979   C     0.16871   0.16680   0.97668   0.00000  Uiso   1.00
C980   C     0.16641   0.16722   0.52345   0.00000  Uiso   1.00
C981   C     0.19172   0.20181   0.95381   0.00000  Uiso   1.00
C982   C     0.14297   0.13264   0.54624   0.00000  Uiso   1.00
C983   C     0.12821   0.09409   0.97568   0.00000  Uiso   1.00
C984   C     0.20917   0.23805   0.52500   0.00000  Uiso   1.00
Cu985  Cu    0.16667   0.21355   0.75000   0.00000  Uiso   1.00
Cu986  Cu    0.16667   0.11978   0.75000   0.00000  Uiso   1.00
H987   H     0.13030   0.10897   0.88735   0.00000  Uiso   1.00
H988   H     0.20597   0.22285   0.61335   0.00000  Uiso   1.00
H989   H     0.20022   0.04325   0.68955   0.00000  Uiso   1.00
H990   H     0.13345   0.29016   0.81056   0.00000  Uiso   1.00
H991   H     0.13484   0.04358   0.81148   0.00000  Uiso   1.00
H992   H     0.20050   0.28959   0.68971   0.00000  Uiso   1.00
N993   N     0.16667   0.28402   0.75000   0.00000  Uiso   1.00
N994   N     0.16667   0.04931   0.75000   0.00000  Uiso   1.00
O995   O     0.10655   0.20625   0.74999   0.00000  Uiso   1.00
O996   O     0.22679   0.12709   0.75000   0.00000  Uiso   1.00
O997   O     0.22679   0.20625   0.75000   0.00000  Uiso   1.00
O998   O     0.10655   0.12709   0.74999   0.00000  Uiso   1.00
O999   O     0.16666   0.20627   0.68513   0.00000  Uiso   1.00
O1000  O     0.16668   0.12707   0.81487   0.00000  Uiso   1.00
O1001  O     0.16668   0.20627   0.81487   0.00000  Uiso   1.00
O1002  O     0.16666   0.12707   0.68513   0.00000  Uiso   1.00
C1003  C     0.22870   0.22623   0.88141   0.00000  Uiso   1.00
C1004  C     0.21520   0.27517   0.86580   0.00000  Uiso   1.00
H1005  H     0.18245   0.28210   0.87384   0.00000  Uiso   1.00
H1006  H     0.23412   0.30283   0.88138   0.00000  Uiso   1.00
H1007  H     0.21976   0.27827   0.82937   0.00000  Uiso   1.00
H1008  H     0.25698   0.22854   0.90154   0.00000  Uiso   1.00
H1009  H     0.23909   0.20575   0.85204   0.00000  Uiso   1.00
C1010  C     0.09997   0.11514   0.61669   0.00000  Uiso   1.00
C1011  C     0.07073   0.15280   0.63515   0.00000  Uiso   1.00
H1012  H     0.08553   0.17501   0.66045   0.00000  Uiso   1.00
H1013  H     0.05970   0.17564   0.60784   0.00000  Uiso   1.00
H1014  H     0.04379   0.13572   0.65104   0.00000  Uiso   1.00
H1015  H     0.08055   0.09413   0.59453   0.00000  Uiso   1.00
H1016  H     0.11003   0.09133   0.64362   0.00000  Uiso   1.00
C1017  C     0.10847   0.05294   0.95173   0.00000  Uiso   1.00
C1018  C     0.14063   0.01882   0.93318   0.00000  Uiso   1.00
H1019  H     0.12502   0.32261   0.91634   0.00000  Uiso   1.00
H1020  H     0.16115   0.03626   0.90877   0.00000  Uiso   1.00
H1021  H     0.15945   0.00437   0.96052   0.00000  Uiso   1.00
H1022  H     0.08804   0.03287   0.97441   0.00000  Uiso   1.00
H1023  H     0.08792   0.06549   0.92506   0.00000  Uiso   1.00
C1024  C     0.23055   0.27782   0.54938   0.00000  Uiso   1.00
C1025  C     0.19974   0.31346   0.56811   0.00000  Uiso   1.00
H1026  H     0.17805   0.29681   0.59181   0.00000  Uiso   1.00
H1027  H     0.21636   0.00836   0.58580   0.00000  Uiso   1.00
H1028  H     0.18207   0.32955   0.54069   0.00000  Uiso   1.00
H1029  H     0.25042   0.26377   0.57587   0.00000  Uiso   1.00
H1030  H     0.25199   0.29710   0.52720   0.00000  Uiso   1.00
F1031  F     0.11561   0.05458   0.54347   0.00000  Uiso   1.00
F1032  F     0.22761   0.27538   0.95809   0.00000  Uiso   1.00
C1033  C     0.04507   0.08573   0.80020   0.00000  Uiso   1.00
C1034  C     0.05034   0.04446   0.76802   0.00000  Uiso   1.00
H1035  H     0.02065   0.03258   0.75453   0.00000  Uiso   1.00
H1036  H     0.07017   0.05383   0.73937   0.00000  Uiso   1.00
H1037  H     0.06476   0.01493   0.78584   0.00000  Uiso   1.00
H1038  H     0.07529   0.09672   0.81295   0.00000  Uiso   1.00
H1039  H     0.02975   0.07434   0.83135   0.00000  Uiso   1.00
C1040  C     0.29808   0.24502   0.71466   0.00000  Uiso   1.00
C1041  C     0.28604   0.22663   0.66897   0.00000  Uiso   1.00
H1042  H     0.25994   0.20198   0.67094   0.00000  Uiso   1.00
H1043  H     0.27685   0.25672   0.64790   0.00000  Uiso   1.00
H1044  H     0.31257   0.20852   0.65296   0.00000  Uiso   1.00
H1045  H     0.27273   0.26514   0.73049   0.00000  Uiso   1.00
H1046  H     0.32239   0.27135   0.70797   0.00000  Uiso   1.00
C1047  C     0.28785   0.08388   0.79623   0.00000  Uiso   1.00
C1048  C     0.26611   0.09693   0.83958   0.00000  Uiso   1.00
H1049  H     0.28901   0.10638   0.86508   0.00000  Uiso   1.00
H1050  H     0.24526   0.12704   0.83486   0.00000  Uiso   1.00
H1051  H     0.24787   0.06666   0.85178   0.00000  Uiso   1.00
H1052  H     0.26686   0.06787   0.77203   0.00000  Uiso   1.00
H1053  H     0.30690   0.05307   0.80405   0.00000  Uiso   1.00
C1054  C     0.03634   0.25579   0.77699   0.00000  Uiso   1.00
C1055  C     0.04980   0.25178   0.82543   0.00000  Uiso   1.00
H1056  H     0.07709   0.22869   0.82868   0.00000  Uiso   1.00
H1057  H     0.05772   0.28695   0.83858   0.00000  Uiso   1.00
H1058  H     0.02443   0.23734   0.84607   0.00000  Uiso   1.00
H1059  H     0.06114   0.27014   0.75571   0.00000  Uiso   1.00
H1060  H     0.01135   0.28242   0.77705   0.00000  Uiso   1.00
C1061  C     0.42103   0.16677   0.75584   0.00000  Uiso   1.00
C1062  C     0.57953   0.16629   0.75141   0.00000  Uiso   1.00
C1063  C     0.46072   0.09438   0.52212   0.00000  Uiso   1.00
C1064  C     0.54360   0.23798   0.97858   0.00000  Uiso   1.00
C1065  C     0.35517   0.12620   0.77869   0.00000  Uiso   1.00
C1066  C     0.64732   0.20585   0.74476   0.00000  Uiso   1.00
C1067  C     0.64495   0.12577   0.77655   0.00000  Uiso   1.00
C1068  C     0.35423   0.20897   0.75937   0.00000  Uiso   1.00
C1069  C     0.62449   0.16525   0.75642   0.00000  Uiso   1.00
C1070  C     0.37645   0.16708   0.76493   0.00000  Uiso   1.00
C1071  C     0.51857   0.02469   0.71639   0.00000  Uiso   1.00
C1072  C     0.48167   0.30867   0.78368   0.00000  Uiso   1.00
C1073  C     0.48230   0.02491   0.78407   0.00000  Uiso   1.00
C1074  C     0.51870   0.30837   0.71648   0.00000  Uiso   1.00
C1075  C     0.49875   0.16666   0.66445   0.00000  Uiso   1.00
C1076  C     0.50136   0.16679   0.83557   0.00000  Uiso   1.00
C1077  C     0.52846   0.19972   0.90678   0.00000  Uiso   1.00
C1078  C     0.47038   0.13677   0.59278   0.00000  Uiso   1.00
C1079  C     0.50386   0.16713   0.88386   0.00000  Uiso   1.00
C1080  C     0.49668   0.16695   0.61619   0.00000  Uiso   1.00
C1081  C     0.48123   0.13354   0.90665   0.00000  Uiso   1.00
C1082  C     0.52095   0.19933   0.59377   0.00000  Uiso   1.00
C1083  C     0.48136   0.13126   0.95284   0.00000  Uiso   1.00
C1084  C     0.52104   0.20201   0.54754   0.00000  Uiso   1.00
C1085  C     0.50205   0.16680   0.97668   0.00000  Uiso   1.00
C1086  C     0.49975   0.16722   0.52345   0.00000  Uiso   1.00
C1087  C     0.52505   0.20181   0.95381   0.00000  Uiso   1.00
C1088  C     0.47630   0.13264   0.54624   0.00000  Uiso   1.00
C1089  C     0.46154   0.09409   0.97568   0.00000  Uiso   1.00
C1090  C     0.54250   0.23805   0.52500   0.00000  Uiso   1.00
Cu1091 Cu    0.50000   0.21355   0.75000   0.00000  Uiso   1.00
Cu1092 Cu    0.50000   0.11978   0.75000   0.00000  Uiso   1.00
H1093  H     0.46363   0.10897   0.88735   0.00000  Uiso   1.00
H1094  H     0.53930   0.22285   0.61335   0.00000  Uiso   1.00
H1095  H     0.53356   0.04325   0.68955   0.00000  Uiso   1.00
H1096  H     0.46678   0.29016   0.81056   0.00000  Uiso   1.00
H1097  H     0.46818   0.04358   0.81148   0.00000  Uiso   1.00
H1098  H     0.53383   0.28959   0.68971   0.00000  Uiso   1.00
N1099  N     0.50000   0.28402   0.75000   0.00000  Uiso   1.00
N1100  N     0.50000   0.04931   0.75000   0.00000  Uiso   1.00
O1101  O     0.43988   0.20625   0.74999   0.00000  Uiso   1.00
O1102  O     0.56012   0.12709   0.75000   0.00000  Uiso   1.00
O1103  O     0.56012   0.20625   0.75000   0.00000  Uiso   1.00
O1104  O     0.43988   0.12709   0.74999   0.00000  Uiso   1.00
O1105  O     0.49999   0.20627   0.68513   0.00000  Uiso   1.00
O1106  O     0.50001   0.12707   0.81487   0.00000  Uiso   1.00
O1107  O     0.50001   0.20627   0.81487   0.00000  Uiso   1.00
O1108  O     0.49999   0.12707   0.68513   0.00000  Uiso   1.00
C1109  C     0.56204   0.22623   0.88141   0.00000  Uiso   1.00
C1110  C     0.54854   0.27517   0.86580   0.00000  Uiso   1.00
H1111  H     0.51579   0.28210   0.87384   0.00000  Uiso   1.00
H1112  H     0.56746   0.30283   0.88138   0.00000  Uiso   1.00
H1113  H     0.55310   0.27827   0.82937   0.00000  Uiso   1.00
H1114  H     0.59031   0.22854   0.90154   0.00000  Uiso   1.00
H1115  H     0.57242   0.20575   0.85204   0.00000  Uiso   1.00
C1116  C     0.43330   0.11514   0.61669   0.00000  Uiso   1.00
C1117  C     0.40406   0.15280   0.63515   0.00000  Uiso   1.00
H1118  H     0.41887   0.17501   0.66045   0.00000  Uiso   1.00
H1119  H     0.39303   0.17564   0.60784   0.00000  Uiso   1.00
H1120  H     0.37713   0.13572   0.65104   0.00000  Uiso   1.00
H1121  H     0.41388   0.09413   0.59453   0.00000  Uiso   1.00
H1122  H     0.44337   0.09133   0.64362   0.00000  Uiso   1.00
C1123  C     0.44180   0.05294   0.95173   0.00000  Uiso   1.00
C1124  C     0.47396   0.01882   0.93318   0.00000  Uiso   1.00
H1125  H     0.45836   0.32261   0.91634   0.00000  Uiso   1.00
H1126  H     0.49448   0.03626   0.90877   0.00000  Uiso   1.00
H1127  H     0.49278   0.00437   0.96052   0.00000  Uiso   1.00
H1128  H     0.42137   0.03287   0.97441   0.00000  Uiso   1.00
H1129  H     0.42125   0.06549   0.92506   0.00000  Uiso   1.00
C1130  C     0.56388   0.27782   0.54938   0.00000  Uiso   1.00
C1131  C     0.53308   0.31346   0.56811   0.00000  Uiso   1.00
H1132  H     0.51138   0.29681   0.59181   0.00000  Uiso   1.00
H1133  H     0.54969   0.00836   0.58580   0.00000  Uiso   1.00
H1134  H     0.51540   0.32955   0.54069   0.00000  Uiso   1.00
H1135  H     0.58375   0.26377   0.57587   0.00000  Uiso   1.00
H1136  H     0.58532   0.29710   0.52720   0.00000  Uiso   1.00
F1137  F     0.44894   0.05458   0.54347   0.00000  Uiso   1.00
F1138  F     0.56094   0.27538   0.95809   0.00000  Uiso   1.00
C1139  C     0.37841   0.08573   0.80020   0.00000  Uiso   1.00
C1140  C     0.38368   0.04446   0.76802   0.00000  Uiso   1.00
H1141  H     0.35399   0.03258   0.75453   0.00000  Uiso   1.00
H1142  H     0.40351   0.05383   0.73937   0.00000  Uiso   1.00
H1143  H     0.39810   0.01493   0.78584   0.00000  Uiso   1.00
H1144  H     0.40862   0.09672   0.81295   0.00000  Uiso   1.00
H1145  H     0.36309   0.07434   0.83135   0.00000  Uiso   1.00
C1146  C     0.63142   0.24502   0.71466   0.00000  Uiso   1.00
C1147  C     0.61938   0.22663   0.66897   0.00000  Uiso   1.00
H1148  H     0.59327   0.20198   0.67094   0.00000  Uiso   1.00
H1149  H     0.61018   0.25672   0.64790   0.00000  Uiso   1.00
H1150  H     0.64590   0.20852   0.65296   0.00000  Uiso   1.00
H1151  H     0.60607   0.26514   0.73049   0.00000  Uiso   1.00
H1152  H     0.65572   0.27135   0.70797   0.00000  Uiso   1.00
C1153  C     0.62118   0.08388   0.79623   0.00000  Uiso   1.00
C1154  C     0.59944   0.09693   0.83958   0.00000  Uiso   1.00
H1155  H     0.62235   0.10638   0.86508   0.00000  Uiso   1.00
H1156  H     0.57860   0.12704   0.83486   0.00000  Uiso   1.00
H1157  H     0.58121   0.06666   0.85178   0.00000  Uiso   1.00
H1158  H     0.60019   0.06787   0.77203   0.00000  Uiso   1.00
H1159  H     0.64024   0.05307   0.80405   0.00000  Uiso   1.00
C1160  C     0.36967   0.25579   0.77699   0.00000  Uiso   1.00
C1161  C     0.38314   0.25178   0.82543   0.00000  Uiso   1.00
H1162  H     0.41043   0.22869   0.82868   0.00000  Uiso   1.00
H1163  H     0.39105   0.28695   0.83858   0.00000  Uiso   1.00
H1164  H     0.35777   0.23734   0.84607   0.00000  Uiso   1.00
H1165  H     0.39448   0.27014   0.75571   0.00000  Uiso   1.00
H1166  H     0.34469   0.28242   0.77705   0.00000  Uiso   1.00
C1167  C     0.75436   0.16677   0.75584   0.00000  Uiso   1.00
C1168  C     0.91286   0.16629   0.75141   0.00000  Uiso   1.00
C1169  C     0.79405   0.09438   0.52212   0.00000  Uiso   1.00
C1170  C     0.87694   0.23798   0.97858   0.00000  Uiso   1.00
C1171  C     0.68850   0.12620   0.77869   0.00000  Uiso   1.00
C1172  C     0.98065   0.20585   0.74476   0.00000  Uiso   1.00
C1173  C     0.97828   0.12577   0.77655   0.00000  Uiso   1.00
C1174  C     0.68756   0.20897   0.75937   0.00000  Uiso   1.00
C1175  C     0.95783   0.16525   0.75642   0.00000  Uiso   1.00
C1176  C     0.70979   0.16708   0.76493   0.00000  Uiso   1.00
C1177  C     0.85190   0.02469   0.71639   0.00000  Uiso   1.00
C1178  C     0.81500   0.30867   0.78368   0.00000  Uiso   1.00
C1179  C     0.81563   0.02491   0.78407   0.00000  Uiso   1.00
C1180  C     0.85204   0.30837   0.71648   0.00000  Uiso   1.00
C1181  C     0.83209   0.16666   0.66445   0.00000  Uiso   1.00
C1182  C     0.83469   0.16679   0.83557   0.00000  Uiso   1.00
C1183  C     0.86180   0.19972   0.90678   0.00000  Uiso   1.00
C1184  C     0.80371   0.13677   0.59278   0.00000  Uiso   1.00
C1185  C     0.83720   0.16713   0.88386   0.00000  Uiso   1.00
C1186  C     0.83001   0.16695   0.61619   0.00000  Uiso   1.00
C1187  C     0.81456   0.13354   0.90665   0.00000  Uiso   1.00
C1188  C     0.85428   0.19933   0.59377   0.00000  Uiso   1.00
C1189  C     0.81469   0.13126   0.95284   0.00000  Uiso   1.00
C1190  C     0.85437   0.20201   0.54754   0.00000  Uiso   1.00
C1191  C     0.83538   0.16680   0.97668   0.00000  Uiso   1.00
C1192  C     0.83308   0.16722   0.52345   0.00000  Uiso   1.00
C1193  C     0.85838   0.20181   0.95381   0.00000  Uiso   1.00
C1194  C     0.80964   0.13264   0.54624   0.00000  Uiso   1.00
C1195  C     0.79488   0.09409   0.97568   0.00000  Uiso   1.00
C1196  C     0.87584   0.23805   0.52500   0.00000  Uiso   1.00
Cu1197 Cu    0.83333   0.21355   0.75000   0.00000  Uiso   1.00
Cu1198 Cu    0.83333   0.11978   0.75000   0.00000  Uiso   1.00
H1199  H     0.79696   0.10897   0.88735   0.00000  Uiso   1.00
H1200  H     0.87264   0.22285   0.61335   0.00000  Uiso   1.00
H1201  H     0.86689   0.04325   0.68955   0.00000  Uiso   1.00
H1202  H     0.80011   0.29016   0.81056   0.00000  Uiso   1.00
H1203  H     0.80151   0.04358   0.81148   0.00000  Uiso   1.00
H1204  H     0.86717   0.28959   0.68971   0.00000  Uiso   1.00
N1205  N     0.83333   0.28402   0.75000   0.00000  Uiso   1.00
N1206  N     0.83333   0.04931   0.75000   0.00000  Uiso   1.00
O1207  O     0.77321   0.20625   0.74999   0.00000  Uiso   1.00
O1208  O     0.89345   0.12709   0.75000   0.00000  Uiso   1.00
O1209  O     0.89345   0.20625   0.75000   0.00000  Uiso   1.00
O1210  O     0.77321   0.12709   0.74999   0.00000  Uiso   1.00
O1211  O     0.83332   0.20627   0.68513   0.00000  Uiso   1.00
O1212  O     0.83334   0.12707   0.81487   0.00000  Uiso   1.00
O1213  O     0.83334   0.20627   0.81487   0.00000  Uiso   1.00
O1214  O     0.83332   0.12707   0.68513   0.00000  Uiso   1.00
C1215  C     0.89537   0.22623   0.88141   0.00000  Uiso   1.00
C1216  C     0.88187   0.27517   0.86580   0.00000  Uiso   1.00
H1217  H     0.84912   0.28210   0.87384   0.00000  Uiso   1.00
H1218  H     0.90079   0.30283   0.88138   0.00000  Uiso   1.00
H1219  H     0.88643   0.27827   0.82937   0.00000  Uiso   1.00
H1220  H     0.92364   0.22854   0.90154   0.00000  Uiso   1.00
H1221  H     0.90575   0.20575   0.85204   0.00000  Uiso   1.00
C1222  C     0.76664   0.11514   0.61669   0.00000  Uiso   1.00
C1223  C     0.73739   0.15280   0.63515   0.00000  Uiso   1.00
H1224  H     0.75220   0.17501   0.66045   0.00000  Uiso   1.00
H1225  H     0.72637   0.17564   0.60784   0.00000  Uiso   1.00
H1226  H     0.71046   0.13572   0.65104   0.00000  Uiso   1.00
H1227  H     0.74721   0.09413   0.59453   0.00000  Uiso   1.00
H1228  H     0.77670   0.09133   0.64362   0.00000  Uiso   1.00
C1229  C     0.77514   0.05294   0.95173   0.00000  Uiso   1.00
C1230  C     0.80729   0.01882   0.93318   0.00000  Uiso   1.00
H1231  H     0.79169   0.32261   0.91634   0.00000  Uiso   1.00
H1232  H     0.82782   0.03626   0.90877   0.00000  Uiso   1.00
H1233  H     0.82612   0.00437   0.96052   0.00000  Uiso   1.00
H1234  H     0.75470   0.03287   0.97441   0.00000  Uiso   1.00
H1235  H     0.75458   0.06549   0.92506   0.00000  Uiso   1.00
C1236  C     0.89721   0.27782   0.54938   0.00000  Uiso   1.00
C1237  C     0.86641   0.31346   0.56811   0.00000  Uiso   1.00
H1238  H     0.84471   0.29681   0.59181   0.00000  Uiso   1.00
H1239  H     0.88302   0.00836   0.58580   0.00000  Uiso   1.00
H1240  H     0.84874   0.32955   0.54069   0.00000  Uiso   1.00
H1241  H     0.91708   0.26377   0.57587   0.00000  Uiso   1.00
H1242  H     0.91866   0.29710   0.52720   0.00000  Uiso   1.00
F1243  F     0.78228   0.05458   0.54347   0.00000  Uiso   1.00
F1244  F     0.89427   0.27538   0.95809   0.00000  Uiso   1.00
C1245  C     0.71174   0.08573   0.80020   0.00000  Uiso   1.00
C1246  C     0.71701   0.04446   0.76802   0.00000  Uiso   1.00
H1247  H     0.68732   0.03258   0.75453   0.00000  Uiso   1.00
H1248  H     0.73684   0.05383   0.73937   0.00000  Uiso   1.00
H1249  H     0.73143   0.01493   0.78584   0.00000  Uiso   1.00
H1250  H     0.74195   0.09672   0.81295   0.00000  Uiso   1.00
H1251  H     0.69642   0.07434   0.83135   0.00000  Uiso   1.00
C1252  C     0.96475   0.24502   0.71466   0.00000  Uiso   1.00
C1253  C     0.95271   0.22663   0.66897   0.00000  Uiso   1.00
H1254  H     0.92661   0.20198   0.67094   0.00000  Uiso   1.00
H1255  H     0.94351   0.25672   0.64790   0.00000  Uiso   1.00
H1256  H     0.97923   0.20852   0.65296   0.00000  Uiso   1.00
H1257  H     0.93940   0.26514   0.73049   0.00000  Uiso   1.00
H1258  H     0.98906   0.27135   0.70797   0.00000  Uiso   1.00
C1259  C     0.95451   0.08388   0.79623   0.00000  Uiso   1.00
C1260  C     0.93277   0.09693   0.83958   0.00000  Uiso   1.00
H1261  H     0.95568   0.10638   0.86508   0.00000  Uiso   1.00
H1262  H     0.91193   0.12704   0.83486   0.00000  Uiso   1.00
H1263  H     0.91454   0.06666   0.85178   0.00000  Uiso   1.00
H1264  H     0.93353   0.06787   0.77203   0.00000  Uiso   1.00
H1265  H     0.97357   0.05307   0.80405   0.00000  Uiso   1.00
C1266  C     0.70300   0.25579   0.77699   0.00000  Uiso   1.00
C1267  C     0.71647   0.25178   0.82543   0.00000  Uiso   1.00
H1268  H     0.74376   0.22869   0.82868   0.00000  Uiso   1.00
H1269  H     0.72439   0.28695   0.83858   0.00000  Uiso   1.00
H1270  H     0.69110   0.23734   0.84607   0.00000  Uiso   1.00
H1271  H     0.72781   0.27014   0.75571   0.00000  Uiso   1.00
H1272  H     0.67802   0.28242   0.77705   0.00000  Uiso   1.00
C1273  C     0.08769   0.50011   0.75584   0.00000  Uiso   1.00
C1274  C     0.24620   0.49963   0.75141   0.00000  Uiso   1.00
C1275  C     0.12738   0.42772   0.52212   0.00000  Uiso   1.00
C1276  C     0.21027   0.57131   0.97858   0.00000  Uiso   1.00
C1277  C     0.02184   0.45953   0.77869   0.00000  Uiso   1.00
C1278  C     0.31398   0.53918   0.74476   0.00000  Uiso   1.00
C1279  C     0.31162   0.45910   0.77655   0.00000  Uiso   1.00
C1280  C     0.02090   0.54231   0.75937   0.00000  Uiso   1.00
C1281  C     0.29116   0.49858   0.75642   0.00000  Uiso   1.00
C1282  C     0.04312   0.50041   0.76493   0.00000  Uiso   1.00
C1283  C     0.18523   0.35802   0.71639   0.00000  Uiso   1.00
C1284  C     0.14833   0.64200   0.78368   0.00000  Uiso   1.00
C1285  C     0.14897   0.35825   0.78407   0.00000  Uiso   1.00
C1286  C     0.18537   0.64171   0.71648   0.00000  Uiso   1.00
C1287  C     0.16542   0.49999   0.66445   0.00000  Uiso   1.00
C1288  C     0.16803   0.50013   0.83557   0.00000  Uiso   1.00
C1289  C     0.19513   0.53305   0.90678   0.00000  Uiso   1.00
C1290  C     0.13704   0.47011   0.59278   0.00000  Uiso   1.00
C1291  C     0.17053   0.50046   0.88386   0.00000  Uiso   1.00
C1292  C     0.16334   0.50028   0.61619   0.00000  Uiso   1.00
C1293  C     0.14789   0.46687   0.90665   0.00000  Uiso   1.00
C1294  C     0.18761   0.53266   0.59377   0.00000  Uiso   1.00
C1295  C     0.14803   0.46459   0.95284   0.00000  Uiso   1.00
C1296  C     0.18770   0.53534   0.54754   0.00000  Uiso   1.00
C1297  C     0.16871   0.50013   0.97668   0.00000  Uiso   1.00
C1298  C     0.16641   0.50055   0.52345   0.00000  Uiso   1.00
C1299  C     0.19172   0.53515   0.95381   0.00000  Uiso   1.00
C1300  C     0.14297   0.46598   0.54624   0.00000  Uiso   1.00
C1301  C     0.12821   0.42742   0.97568   0.00000  Uiso   1.00
C1302  C     0.20917   0.57138   0.52500   0.00000  Uiso   1.00
Cu1303 Cu    0.16667   0.54689   0.75000   0.00000  Uiso   1.00
Cu1304 Cu    0.16667   0.45311   0.75000   0.00000  Uiso   1.00
H1305  H     0.13030   0.44230   0.88735   0.00000  Uiso   1.00
H1306  H     0.20597   0.55618   0.61335   0.00000  Uiso   1.00
H1307  H     0.20022   0.37658   0.68955   0.00000  Uiso   1.00
H1308  H     0.13345   0.62349   0.81056   0.00000  Uiso   1.00
H1309  H     0.13484   0.37692   0.81148   0.00000  Uiso   1.00
H1310  H     0.20050   0.62293   0.68971   0.00000  Uiso   1.00
N1311  N     0.16667   0.61736   0.75000   0.00000  Uiso   1.00
N1312  N     0.16667   0.38264   0.75000   0.00000  Uiso   1.00
O1313  O     0.10655   0.53958   0.74999   0.00000  Uiso   1.00
O1314  O     0.22679   0.46042   0.75000   0.00000  Uiso   1.00
O1315  O     0.22679   0.53958   0.75000   0.00000  Uiso   1.00
O1316  O     0.10655   0.46042   0.74999   0.00000  Uiso   1.00
O1317  O     0.16666   0.53960   0.68513   0.00000  Uiso   1.00
O1318  O     0.16668   0.46040   0.81487   0.00000  Uiso   1.00
O1319  O     0.16668   0.53960   0.81487   0.00000  Uiso   1.00
O1320  O     0.16666   0.46040   0.68513   0.00000  Uiso   1.00
C1321  C     0.22870   0.55956   0.88141   0.00000  Uiso   1.00
C1322  C     0.21520   0.60850   0.86580   0.00000  Uiso   1.00
H1323  H     0.18245   0.61544   0.87384   0.00000  Uiso   1.00
H1324  H     0.23412   0.63616   0.88138   0.00000  Uiso   1.00
H1325  H     0.21976   0.61160   0.82937   0.00000  Uiso   1.00
H1326  H     0.25698   0.56187   0.90154   0.00000  Uiso   1.00
H1327  H     0.23909   0.53908   0.85204   0.00000  Uiso   1.00
C1328  C     0.09997   0.44847   0.61669   0.00000  Uiso   1.00
C1329  C     0.07073   0.48613   0.63515   0.00000  Uiso   1.00
H1330  H     0.08553   0.50835   0.66045   0.00000  Uiso   1.00
H1331  H     0.05970   0.50898   0.60784   0.00000  Uiso   1.00
H1332  H     0.04379   0.46905   0.65104   0.00000  Uiso   1.00
H1333  H     0.08055   0.42747   0.59453   0.00000  Uiso   1.00
H1334  H     0.11003   0.42466   0.64362   0.00000  Uiso   1.00
C1335  C     0.10847   0.38628   0.95173   0.00000  Uiso   1.00
C1336  C     0.14063   0.35215   0.93318   0.00000  Uiso   1.00
H1337  H     0.12502   0.65594   0.91634   0.00000  Uiso   1.00
H1338  H     0.16115   0.36959   0.90877   0.00000  Uiso   1.00
H1339  H     0.15945   0.33770   0.96052   0.00000  Uiso   1.00
H1340  H     0.08804   0.36621   0.97441   0.00000  Uiso   1.00
H1341  H     0.08792   0.39882   0.92506   0.00000  Uiso   1.00
C1342  C     0.23055   0.61116   0.54938   0.00000  Uiso   1.00
C1343  C     0.19974   0.64680   0.56811   0.00000  Uiso   1.00
H1344  H     0.17805   0.63014   0.59181   0.00000  Uiso   1.00
H1345  H     0.21636   0.34169   0.58580   0.00000  Uiso   1.00
H1346  H     0.18207   0.66289   0.54069   0.00000  Uiso   1.00
H1347  H     0.25042   0.59710   0.57587   0.00000  Uiso   1.00
H1348  H     0.25199   0.63043   0.52720   0.00000  Uiso   1.00
F1349  F     0.11561   0.38792   0.54347   0.00000  Uiso   1.00
F1350  F     0.22761   0.60871   0.95809   0.00000  Uiso   1.00
C1351  C     0.04507   0.41906   0.80020   0.00000  Uiso   1.00
C1352  C     0.05034   0.37780   0.76802   0.00000  Uiso   1.00
H1353  H     0.02065   0.36592   0.75453   0.00000  Uiso   1.00
H1354  H     0.07017   0.38716   0.73937   0.00000  Uiso   1.00
H1355  H     0.06476   0.34826   0.78584   0.00000  Uiso   1.00
H1356  H     0.07529   0.43005   0.81295   0.00000  Uiso   1.00
H1357  H     0.02975   0.40768   0.83135   0.00000  Uiso   1.00
C1358  C     0.29808   0.57835   0.71466   0.00000  Uiso   1.00
C1359  C     0.28604   0.55996   0.66897   0.00000  Uiso   1.00
H1360  H     0.25994   0.53532   0.67094   0.00000  Uiso   1.00
H1361  H     0.27685   0.59005   0.64790   0.00000  Uiso   1.00
H1362  H     0.31257   0.54186   0.65296   0.00000  Uiso   1.00
H1363  H     0.27273   0.59847   0.73049   0.00000  Uiso   1.00
H1364  H     0.32239   0.60468   0.70797   0.00000  Uiso   1.00
C1365  C     0.28785   0.41721   0.79623   0.00000  Uiso   1.00
C1366  C     0.26611   0.43027   0.83958   0.00000  Uiso   1.00
H1367  H     0.28901   0.43971   0.86508   0.00000  Uiso   1.00
H1368  H     0.24526   0.46037   0.83486   0.00000  Uiso   1.00
H1369  H     0.24787   0.39999   0.85178   0.00000  Uiso   1.00
H1370  H     0.26686   0.40120   0.77203   0.00000  Uiso   1.00
H1371  H     0.30690   0.38641   0.80405   0.00000  Uiso   1.00
C1372  C     0.03634   0.58912   0.77699   0.00000  Uiso   1.00
C1373  C     0.04980   0.58511   0.82543   0.00000  Uiso   1.00
H1374  H     0.07709   0.56202   0.82868   0.00000  Uiso   1.00
H1375  H     0.05772   0.62029   0.83858   0.00000  Uiso   1.00
H1376  H     0.02443   0.57067   0.84607   0.00000  Uiso   1.00
H1377  H     0.06114   0.60348   0.75571   0.00000  Uiso   1.00
H1378  H     0.01135   0.61575   0.77705   0.00000  Uiso   1.00
C1379  C     0.42103   0.50011   0.75584   0.00000  Uiso   1.00
C1380  C     0.57953   0.49963   0.75141   0.00000  Uiso   1.00
C1381  C     0.46072   0.42772   0.52212   0.00000  Uiso   1.00
C1382  C     0.54360   0.57131   0.97858   0.00000  Uiso   1.00
C1383  C     0.35517   0.45953   0.77869   0.00000  Uiso   1.00
C1384  C     0.64732   0.53918   0.74476   0.00000  Uiso   1.00
C1385  C     0.64495   0.45910   0.77655   0.00000  Uiso   1.00
C1386  C     0.35423   0.54231   0.75937   0.00000  Uiso   1.00
C1387  C     0.62449   0.49858   0.75642   0.00000  Uiso   1.00
C1388  C     0.37645   0.50041   0.76493   0.00000  Uiso   1.00
C1389  C     0.51857   0.35802   0.71639   0.00000  Uiso   1.00
C1390  C     0.48167   0.64200   0.78368   0.00000  Uiso   1.00
C1391  C     0.48230   0.35825   0.78407   0.00000  Uiso   1.00
C1392  C     0.51870   0.64171   0.71648   0.00000  Uiso   1.00
C1393  C     0.49875   0.49999   0.66445   0.00000  Uiso   1.00
C1394  C     0.50136   0.50013   0.83557   0.00000  Uiso   1.00
C1395  C     0.52846   0.53305   0.90678   0.00000  Uiso   1.00
C1396  C     0.47038   0.47011   0.59278   0.00000  Uiso   1.00
C1397  C     0.50386   0.50046   0.88386   0.00000  Uiso   1.00
C1398  C     0.49668   0.50028   0.61619   0.00000  Uiso   1.00
C1399  C     0.48123   0.46687   0.90665   0.00000  Uiso   1.00
C1400  C     0.52095   0.53266   0.59377   0.00000  Uiso   1.00
C1401  C     0.48136   0.46459   0.95284   0.00000  Uiso   1.00
C1402  C     0.52104   0.53534   0.54754   0.00000  Uiso   1.00
C1403  C     0.50205   0.50013   0.97668   0.00000  Uiso   1.00
C1404  C     0.49975   0.50055   0.52345   0.00000  Uiso   1.00
C1405  C     0.52505   0.53515   0.95381   0.00000  Uiso   1.00
C1406  C     0.47630   0.46598   0.54624   0.00000  Uiso   1.00
C1407  C     0.46154   0.42742   0.97568   0.00000  Uiso   1.00
C1408  C     0.54250   0.57138   0.52500   0.00000  Uiso   1.00
Cu1409 Cu    0.50000   0.54689   0.75000   0.00000  Uiso   1.00
Cu1410 Cu    0.50000   0.45311   0.75000   0.00000  Uiso   1.00
H1411  H     0.46363   0.44230   0.88735   0.00000  Uiso   1.00
H1412  H     0.53930   0.55618   0.61335   0.00000  Uiso   1.00
H1413  H     0.53356   0.37658   0.68955   0.00000  Uiso   1.00
H1414  H     0.46678   0.62349   0.81056   0.00000  Uiso   1.00
H1415  H     0.46818   0.37692   0.81148   0.00000  Uiso   1.00
H1416  H     0.53383   0.62293   0.68971   0.00000  Uiso   1.00
N1417  N     0.50000   0.61736   0.75000   0.00000  Uiso   1.00
N1418  N     0.50000   0.38264   0.75000   0.00000  Uiso   1.00
O1419  O     0.43988   0.53958   0.74999   0.00000  Uiso   1.00
O1420  O     0.56012   0.46042   0.75000   0.00000  Uiso   1.00
O1421  O     0.56012   0.53958   0.75000   0.00000  Uiso   1.00
O1422  O     0.43988   0.46042   0.74999   0.00000  Uiso   1.00
O1423  O     0.49999   0.53960   0.68513   0.00000  Uiso   1.00
O1424  O     0.50001   0.46040   0.81487   0.00000  Uiso   1.00
O1425  O     0.50001   0.53960   0.81487   0.00000  Uiso   1.00
O1426  O     0.49999   0.46040   0.68513   0.00000  Uiso   1.00
C1427  C     0.56204   0.55956   0.88141   0.00000  Uiso   1.00
C1428  C     0.54854   0.60850   0.86580   0.00000  Uiso   1.00
H1429  H     0.51579   0.61544   0.87384   0.00000  Uiso   1.00
H1430  H     0.56746   0.63616   0.88138   0.00000  Uiso   1.00
H1431  H     0.55310   0.61160   0.82937   0.00000  Uiso   1.00
H1432  H     0.59031   0.56187   0.90154   0.00000  Uiso   1.00
H1433  H     0.57242   0.53908   0.85204   0.00000  Uiso   1.00
C1434  C     0.43330   0.44847   0.61669   0.00000  Uiso   1.00
C1435  C     0.40406   0.48613   0.63515   0.00000  Uiso   1.00
H1436  H     0.41887   0.50835   0.66045   0.00000  Uiso   1.00
H1437  H     0.39303   0.50898   0.60784   0.00000  Uiso   1.00
H1438  H     0.37713   0.46905   0.65104   0.00000  Uiso   1.00
H1439  H     0.41388   0.42747   0.59453   0.00000  Uiso   1.00
H1440  H     0.44337   0.42466   0.64362   0.00000  Uiso   1.00
C1441  C     0.44180   0.38628   0.95173   0.00000  Uiso   1.00
C1442  C     0.47396   0.35215   0.93318   0.00000  Uiso   1.00
H1443  H     0.45836   0.65594   0.91634   0.00000  Uiso   1.00
H1444  H     0.49448   0.36959   0.90877   0.00000  Uiso   1.00
H1445  H     0.49278   0.33770   0.96052   0.00000  Uiso   1.00
H1446  H     0.42137   0.36621   0.97441   0.00000  Uiso   1.00
H1447  H     0.42125   0.39882   0.92506   0.00000  Uiso   1.00
C1448  C     0.56388   0.61116   0.54938   0.00000  Uiso   1.00
C1449  C     0.53308   0.64680   0.56811   0.00000  Uiso   1.00
H1450  H     0.51138   0.63014   0.59181   0.00000  Uiso   1.00
H1451  H     0.54969   0.34169   0.58580   0.00000  Uiso   1.00
H1452  H     0.51540   0.66289   0.54069   0.00000  Uiso   1.00
H1453  H     0.58375   0.59710   0.57587   0.00000  Uiso   1.00
H1454  H     0.58532   0.63043   0.52720   0.00000  Uiso   1.00
F1455  F     0.44894   0.38792   0.54347   0.00000  Uiso   1.00
F1456  F     0.56094   0.60871   0.95809   0.00000  Uiso   1.00
C1457  C     0.37841   0.41906   0.80020   0.00000  Uiso   1.00
C1458  C     0.38368   0.37780   0.76802   0.00000  Uiso   1.00
H1459  H     0.35399   0.36592   0.75453   0.00000  Uiso   1.00
H1460  H     0.40351   0.38716   0.73937   0.00000  Uiso   1.00
H1461  H     0.39810   0.34826   0.78584   0.00000  Uiso   1.00
H1462  H     0.40862   0.43005   0.81295   0.00000  Uiso   1.00
H1463  H     0.36309   0.40768   0.83135   0.00000  Uiso   1.00
C1464  C     0.63142   0.57835   0.71466   0.00000  Uiso   1.00
C1465  C     0.61938   0.55996   0.66897   0.00000  Uiso   1.00
H1466  H     0.59327   0.53532   0.67094   0.00000  Uiso   1.00
H1467  H     0.61018   0.59005   0.64790   0.00000  Uiso   1.00
H1468  H     0.64590   0.54186   0.65296   0.00000  Uiso   1.00
H1469  H     0.60607   0.59847   0.73049   0.00000  Uiso   1.00
H1470  H     0.65572   0.60468   0.70797   0.00000  Uiso   1.00
C1471  C     0.62118   0.41721   0.79623   0.00000  Uiso   1.00
C1472  C     0.59944   0.43027   0.83958   0.00000  Uiso   1.00
H1473  H     0.62235   0.43971   0.86508   0.00000  Uiso   1.00
H1474  H     0.57860   0.46037   0.83486   0.00000  Uiso   1.00
H1475  H     0.58121   0.39999   0.85178   0.00000  Uiso   1.00
H1476  H     0.60019   0.40120   0.77203   0.00000  Uiso   1.00
H1477  H     0.64024   0.38641   0.80405   0.00000  Uiso   1.00
C1478  C     0.36967   0.58912   0.77699   0.00000  Uiso   1.00
C1479  C     0.38314   0.58511   0.82543   0.00000  Uiso   1.00
H1480  H     0.41043   0.56202   0.82868   0.00000  Uiso   1.00
H1481  H     0.39105   0.62029   0.83858   0.00000  Uiso   1.00
H1482  H     0.35777   0.57067   0.84607   0.00000  Uiso   1.00
H1483  H     0.39448   0.60348   0.75571   0.00000  Uiso   1.00
H1484  H     0.34469   0.61575   0.77705   0.00000  Uiso   1.00
C1485  C     0.75436   0.50011   0.75584   0.00000  Uiso   1.00
C1486  C     0.91286   0.49963   0.75141   0.00000  Uiso   1.00
C1487  C     0.79405   0.42772   0.52212   0.00000  Uiso   1.00
C1488  C     0.87694   0.57131   0.97858   0.00000  Uiso   1.00
C1489  C     0.68850   0.45953   0.77869   0.00000  Uiso   1.00
C1490  C     0.98065   0.53918   0.74476   0.00000  Uiso   1.00
C1491  C     0.97828   0.45910   0.77655   0.00000  Uiso   1.00
C1492  C     0.68756   0.54231   0.75937   0.00000  Uiso   1.00
C1493  C     0.95783   0.49858   0.75642   0.00000  Uiso   1.00
C1494  C     0.70979   0.50041   0.76493   0.00000  Uiso   1.00
C1495  C     0.85190   0.35802   0.71639   0.00000  Uiso   1.00
C1496  C     0.81500   0.64200   0.78368   0.00000  Uiso   1.00
C1497  C     0.81563   0.35825   0.78407   0.00000  Uiso   1.00
C1498  C     0.85204   0.64171   0.71648   0.00000  Uiso   1.00
C1499  C     0.83209   0.49999   0.66445   0.00000  Uiso   1.00
C1500  C     0.83469   0.50013   0.83557   0.00000  Uiso   1.00
C1501  C     0.86180   0.53305   0.90678   0.00000  Uiso   1.00
C1502  C     0.80371   0.47011   0.59278   0.00000  Uiso   1.00
C1503  C     0.83720   0.50046   0.88386   0.00000  Uiso   1.00
C1504  C     0.83001   0.50028   0.61619   0.00000  Uiso   1.00
C1505  C     0.81456   0.46687   0.90665   0.00000  Uiso   1.00
C1506  C     0.85428   0.53266   0.59377   0.00000  Uiso   1.00
C1507  C     0.81469   0.46459   0.95284   0.00000  Uiso   1.00
C1508  C     0.85437   0.53534   0.54754   0.00000  Uiso   1.00
C1509  C     0.83538   0.50013   0.97668   0.00000  Uiso   1.00
C1510  C     0.83308   0.50055   0.52345   0.00000  Uiso   1.00
C1511  C     0.85838   0.53515   0.95381   0.00000  Uiso   1.00
C1512  C     0.80964   0.46598   0.54624   0.00000  Uiso   1.00
C1513  C     0.79488   0.42742   0.97568   0.00000  Uiso   1.00
C1514  C     0.87584   0.57138   0.52500   0.00000  Uiso   1.00
Cu1515 Cu    0.83333   0.54689   0.75000   0.00000  Uiso   1.00
Cu1516 Cu    0.83333   0.45311   0.75000   0.00000  Uiso   1.00
H1517  H     0.79696   0.44230   0.88735   0.00000  Uiso   1.00
H1518  H     0.87264   0.55618   0.61335   0.00000  Uiso   1.00
H1519  H     0.86689   0.37658   0.68955   0.00000  Uiso   1.00
H1520  H     0.80011   0.62349   0.81056   0.00000  Uiso   1.00
H1521  H     0.80151   0.37692   0.81148   0.00000  Uiso   1.00
H1522  H     0.86717   0.62293   0.68971   0.00000  Uiso   1.00
N1523  N     0.83333   0.61736   0.75000   0.00000  Uiso   1.00
N1524  N     0.83333   0.38264   0.75000   0.00000  Uiso   1.00
O1525  O     0.77321   0.53958   0.74999   0.00000  Uiso   1.00
O1526  O     0.89345   0.46042   0.75000   0.00000  Uiso   1.00
O1527  O     0.89345   0.53958   0.75000   0.00000  Uiso   1.00
O1528  O     0.77321   0.46042   0.74999   0.00000  Uiso   1.00
O1529  O     0.83332   0.53960   0.68513   0.00000  Uiso   1.00
O1530  O     0.83334   0.46040   0.81487   0.00000  Uiso   1.00
O1531  O     0.83334   0.53960   0.81487   0.00000  Uiso   1.00
O1532  O     0.83332   0.46040   0.68513   0.00000  Uiso   1.00
C1533  C     0.89537   0.55956   0.88141   0.00000  Uiso   1.00
C1534  C     0.88187   0.60850   0.86580   0.00000  Uiso   1.00
H1535  H     0.84912   0.61544   0.87384   0.00000  Uiso   1.00
H1536  H     0.90079   0.63616   0.88138   0.00000  Uiso   1.00
H1537  H     0.88643   0.61160   0.82937   0.00000  Uiso   1.00
H1538  H     0.92364   0.56187   0.90154   0.00000  Uiso   1.00
H1539  H     0.90575   0.53908   0.85204   0.00000  Uiso   1.00
C1540  C     0.76664   0.44847   0.61669   0.00000  Uiso   1.00
C1541  C     0.73739   0.48613   0.63515   0.00000  Uiso   1.00
H1542  H     0.75220   0.50835   0.66045   0.00000  Uiso   1.00
H1543  H     0.72637   0.50898   0.60784   0.00000  Uiso   1.00
H1544  H     0.71046   0.46905   0.65104   0.00000  Uiso   1.00
H1545  H     0.74721   0.42747   0.59453   0.00000  Uiso   1.00
H1546  H     0.77670   0.42466   0.64362   0.00000  Uiso   1.00
C1547  C     0.77514   0.38628   0.95173   0.00000  Uiso   1.00
C1548  C     0.80729   0.35215   0.93318   0.00000  Uiso   1.00
H1549  H     0.79169   0.65594   0.91634   0.00000  Uiso   1.00
H1550  H     0.82782   0.36959   0.90877   0.00000  Uiso   1.00
H1551  H     0.82612   0.33770   0.96052   0.00000  Uiso   1.00
H1552  H     0.75470   0.36621   0.97441   0.00000  Uiso   1.00
H1553  H     0.75458   0.39882   0.92506   0.00000  Uiso   1.00
C1554  C     0.89721   0.61116   0.54938   0.00000  Uiso   1.00
C1555  C     0.86641   0.64680   0.56811   0.00000  Uiso   1.00
H1556  H     0.84471   0.63014   0.59181   0.00000  Uiso   1.00
H1557  H     0.88302   0.34169   0.58580   0.00000  Uiso   1.00
H1558  H     0.84874   0.66289   0.54069   0.00000  Uiso   1.00
H1559  H     0.91708   0.59710   0.57587   0.00000  Uiso   1.00
H1560  H     0.91866   0.63043   0.52720   0.00000  Uiso   1.00
F1561  F     0.78228   0.38792   0.54347   0.00000  Uiso   1.00
F1562  F     0.89427   0.60871   0.95809   0.00000  Uiso   1.00
C1563  C     0.71174   0.41906   0.80020   0.00000  Uiso   1.00
C1564  C     0.71701   0.37780   0.76802   0.00000  Uiso   1.00
H1565  H     0.68732   0.36592   0.75453   0.00000  Uiso   1.00
H1566  H     0.73684   0.38716   0.73937   0.00000  Uiso   1.00
H1567  H     0.73143   0.34826   0.78584   0.00000  Uiso   1.00
H1568  H     0.74195   0.43005   0.81295   0.00000  Uiso   1.00
H1569  H     0.69642   0.40768   0.83135   0.00000  Uiso   1.00
C1570  C     0.96475   0.57835   0.71466   0.00000  Uiso   1.00
C1571  C     0.95271   0.55996   0.66897   0.00000  Uiso   1.00
H1572  H     0.92661   0.53532   0.67094   0.00000  Uiso   1.00
H1573  H     0.94351   0.59005   0.64790   0.00000  Uiso   1.00
H1574  H     0.97923   0.54186   0.65296   0.00000  Uiso   1.00
H1575  H     0.93940   0.59847   0.73049   0.00000  Uiso   1.00
H1576  H     0.98906   0.60468   0.70797   0.00000  Uiso   1.00
C1577  C     0.95451   0.41721   0.79623   0.00000  Uiso   1.00
C1578  C     0.93277   0.43027   0.83958   0.00000  Uiso   1.00
H1579  H     0.95568   0.43971   0.86508   0.00000  Uiso   1.00
H1580  H     0.91193   0.46037   0.83486   0.00000  Uiso   1.00
H1581  H     0.91454   0.39999   0.85178   0.00000  Uiso   1.00
H1582  H     0.93353   0.40120   0.77203   0.00000  Uiso   1.00
H1583  H     0.97357   0.38641   0.80405   0.00000  Uiso   1.00
C1584  C     0.70300   0.58912   0.77699   0.00000  Uiso   1.00
C1585  C     0.71647   0.58511   0.82543   0.00000  Uiso   1.00
H1586  H     0.74376   0.56202   0.82868   0.00000  Uiso   1.00
H1587  H     0.72439   0.62029   0.83858   0.00000  Uiso   1.00
H1588  H     0.69110   0.57067   0.84607   0.00000  Uiso   1.00
H1589  H     0.72781   0.60348   0.75571   0.00000  Uiso   1.00
H1590  H     0.67802   0.61575   0.77705   0.00000  Uiso   1.00
C1591  C     0.08769   0.83344   0.75584   0.00000  Uiso   1.00
C1592  C     0.24620   0.83296   0.75141   0.00000  Uiso   1.00
C1593  C     0.12738   0.76105   0.52212   0.00000  Uiso   1.00
C1594  C     0.21027   0.90465   0.97858   0.00000  Uiso   1.00
C1595  C     0.02184   0.79287   0.77869   0.00000  Uiso   1.00
C1596  C     0.31398   0.87252   0.74476   0.00000  Uiso   1.00
C1597  C     0.31162   0.79244   0.77655   0.00000  Uiso   1.00
C1598  C     0.02090   0.87564   0.75937   0.00000  Uiso   1.00
C1599  C     0.29116   0.83192   0.75642   0.00000  Uiso   1.00
C1600  C     0.04312   0.83375   0.76493   0.00000  Uiso   1.00
C1601  C     0.18523   0.69135   0.71639   0.00000  Uiso   1.00
C1602  C     0.14833   0.97534   0.78368   0.00000  Uiso   1.00
C1603  C     0.14897   0.69158   0.78407   0.00000  Uiso   1.00
C1604  C     0.18537   0.97504   0.71648   0.00000  Uiso   1.00
C1605  C     0.16542   0.83332   0.66445   0.00000  Uiso   1.00
C1606  C     0.16803   0.83346   0.83557   0.00000  Uiso   1.00
C1607  C     0.19513   0.86638   0.90678   0.00000  Uiso   1.00
C1608  C     0.13704   0.80344   0.59278   0.00000  Uiso   1.00
C1609  C     0.17053   0.83379   0.88386   0.00000  Uiso   1.00
C1610  C     0.16334   0.83361   0.61619   0.00000  Uiso   1.00
C1611  C     0.14789   0.80021   0.90665   0.00000  Uiso   1.00
C1612  C     0.18761   0.86600   0.59377   0.00000  Uiso   1.00
C1613  C     0.14803   0.79793   0.95284   0.00000  Uiso   1.00
C1614  C     0.18770   0.86867   0.54754   0.00000  Uiso   1.00
C1615  C     0.16871   0.83347   0.97668   0.00000  Uiso   1.00
C1616  C     0.16641   0.83389   0.52345   0.00000  Uiso   1.00
C1617  C     0.19172   0.86848   0.95381   0.00000  Uiso   1.00
C1618  C     0.14297   0.79931   0.54624   0.00000  Uiso   1.00
C1619  C     0.12821   0.76076   0.97568   0.00000  Uiso   1.00
C1620  C     0.20917   0.90472   0.52500   0.00000  Uiso   1.00
Cu1621 Cu    0.16667   0.88022   0.75000   0.00000  Uiso   1.00
Cu1622 Cu    0.16667   0.78645   0.75000   0.00000  Uiso   1.00
H1623  H     0.13030   0.77564   0.88735   0.00000  Uiso   1.00
H1624  H     0.20597   0.88951   0.61335   0.00000  Uiso   1.00
H1625  H     0.20022   0.70991   0.68955   0.00000  Uiso   1.00
H1626  H     0.13345   0.95683   0.81056   0.00000  Uiso   1.00
H1627  H     0.13484   0.71025   0.81148   0.00000  Uiso   1.00
H1628  H     0.20050   0.95626   0.68971   0.00000  Uiso   1.00
N1629  N     0.16667   0.95069   0.75000   0.00000  Uiso   1.00
N1630  N     0.16667   0.71598   0.75000   0.00000  Uiso   1.00
O1631  O     0.10655   0.87291   0.74999   0.00000  Uiso   1.00
O1632  O     0.22679   0.79375   0.75000   0.00000  Uiso   1.00
O1633  O     0.22679   0.87291   0.75000   0.00000  Uiso   1.00
O1634  O     0.10655   0.79375   0.74999   0.00000  Uiso   1.00
O1635  O     0.16666   0.87293   0.68513   0.00000  Uiso   1.00
O1636  O     0.16668   0.79373   0.81487   0.00000  Uiso   1.00
O1637  O     0.16668   0.87293   0.81487   0.00000  Uiso   1.00
O1638  O     0.16666   0.79373   0.68513   0.00000  Uiso   1.00
C1639  C     0.22870   0.89290   0.88141   0.00000  Uiso   1.00
C1640  C     0.21520   0.94184   0.86580   0.00000  Uiso   1.00
H1641  H     0.18245   0.94877   0.87384   0.00000  Uiso   1.00
H1642  H     0.23412   0.96950   0.88138   0.00000  Uiso   1.00
H1643  H     0.21976   0.94494   0.82937   0.00000  Uiso   1.00
H1644  H     0.25698   0.89520   0.90154   0.00000  Uiso   1.00
H1645  H     0.23909   0.87242   0.85204   0.00000  Uiso   1.00
C1646  C     0.09997   0.78181   0.61669   0.00000  Uiso   1.00
C1647  C     0.07073   0.81947   0.63515   0.00000  Uiso   1.00
H1648  H     0.08553   0.84168   0.66045   0.00000  Uiso   1.00
H1649  H     0.05970   0.84231   0.60784   0.00000  Uiso   1.00
H1650  H     0.04379   0.80238   0.65104   0.00000  Uiso   1.00
H1651  H     0.08055   0.76080   0.59453   0.00000  Uiso   1.00
H1652  H     0.11003   0.75799   0.64362   0.00000  Uiso   1.00
C1653  C     0.10847   0.71961   0.95173   0.00000  Uiso   1.00
C1654  C     0.14063   0.68548   0.93318   0.00000  Uiso   1.00
H1655  H     0.12502   0.98927   0.91634   0.00000  Uiso   1.00
H1656  H     0.16115   0.70293   0.90877   0.00000  Uiso   1.00
H1657  H     0.15945   0.67103   0.96052   0.00000  Uiso   1.00
H1658  H     0.08804   0.69954   0.97441   0.00000  Uiso   1.00
H1659  H     0.08792   0.73215   0.92506   0.00000  Uiso   1.00
C1660  C     0.23055   0.94449   0.54938   0.00000  Uiso   1.00
C1661  C     0.19974   0.98013   0.56811   0.00000  Uiso   1.00
H1662  H     0.17805   0.96347   0.59181   0.00000  Uiso   1.00
H1663  H     0.21636   0.67502   0.58580   0.00000  Uiso   1.00
H1664  H     0.18207   0.99622   0.54069   0.00000  Uiso   1.00
H1665  H     0.25042   0.93044   0.57587   0.00000  Uiso   1.00
H1666  H     0.25199   0.96376   0.52720   0.00000  Uiso   1.00
F1667  F     0.11561   0.72125   0.54347   0.00000  Uiso   1.00
F1668  F     0.22761   0.94204   0.95809   0.00000  Uiso   1.00
C1669  C     0.04507   0.75239   0.80020   0.00000  Uiso   1.00
C1670  C     0.05034   0.71113   0.76802   0.00000  Uiso   1.00
H1671  H     0.02065   0.69925   0.75453   0.00000  Uiso   1.00
H1672  H     0.07017   0.72049   0.73937   0.00000  Uiso   1.00
H1673  H     0.06476   0.68160   0.78584   0.00000  Uiso   1.00
H1674  H     0.07529   0.76339   0.81295   0.00000  Uiso   1.00
H1675  H     0.02975   0.74101   0.83135   0.00000  Uiso   1.00
C1676  C     0.29808   0.91169   0.71466   0.00000  Uiso   1.00
C1677  C     0.28604   0.89330   0.66897   0.00000  Uiso   1.00
H1678  H     0.25994   0.86865   0.67094   0.00000  Uiso   1.00
H1679  H     0.27685   0.92339   0.64790   0.00000  Uiso   1.00
H1680  H     0.31257   0.87519   0.65296   0.00000  Uiso   1.00
H1681  H     0.27273   0.93181   0.73049   0.00000  Uiso   1.00
H1682  H     0.32239   0.93801   0.70797   0.00000  Uiso   1.00
C1683  C     0.28785   0.75055   0.79623   0.00000  Uiso   1.00
C1684  C     0.26611   0.76360   0.83958   0.00000  Uiso   1.00
H1685  H     0.28901   0.77305   0.86508   0.00000  Uiso   1.00
H1686  H     0.24526   0.79370   0.83486   0.00000  Uiso   1.00
H1687  H     0.24787   0.73332   0.85178   0.00000  Uiso   1.00
H1688  H     0.26686   0.73454   0.77203   0.00000  Uiso   1.00
H1689  H     0.30690   0.71974   0.80405   0.00000  Uiso   1.00
C1690  C     0.03634   0.92245   0.77699   0.00000  Uiso   1.00
C1691  C     0.04980   0.91845   0.82543   0.00000  Uiso   1.00
H1692  H     0.07709   0.89535   0.82868   0.00000  Uiso   1.00
H1693  H     0.05772   0.95362   0.83858   0.00000  Uiso   1.00
H1694  H     0.02443   0.90401   0.84607   0.00000  Uiso   1.00
H1695  H     0.06114   0.93681   0.75571   0.00000  Uiso   1.00
H1696  H     0.01135   0.94908   0.77705   0.00000  Uiso   1.00
C1697  C     0.42103   0.83344   0.75584   0.00000  Uiso   1.00
C1698  C     0.57953   0.83296   0.75141   0.00000  Uiso   1.00
C1699  C     0.46072   0.76105   0.52212   0.00000  Uiso   1.00
C1700  C     0.54360   0.90465   0.97858   0.00000  Uiso   1.00
C1701  C     0.35517   0.79287   0.77869   0.00000  Uiso   1.00
C1702  C     0.64732   0.87252   0.74476   0.00000  Uiso   1.00
C1703  C     0.64495   0.79244   0.77655   0.00000  Uiso   1.00
C1704  C     0.35423   0.87564   0.75937   0.00000  Uiso   1.00
C1705  C     0.62449   0.83192   0.75642   0.00000  Uiso   1.00
C1706  C     0.37645   0.83375   0.76493   0.00000  Uiso   1.00
C1707  C     0.51857   0.69135   0.71639   0.00000  Uiso   1.00
C1708  C     0.48167   0.97534   0.78368   0.00000  Uiso   1.00
C1709  C     0.48230   0.69158   0.78407   0.00000  Uiso   1.00
C1710  C     0.51870   0.97504   0.71648   0.00000  Uiso   1.00
C1711  C     0.49875   0.83332   0.66445   0.00000  Uiso   1.00
C1712  C     0.50136   0.83346   0.83557   0.00000  Uiso   1.00
C1713  C     0.52846   0.86638   0.90678   0.00000  Uiso   1.00
C1714  C     0.47038   0.80344   0.59278   0.00000  Uiso   1.00
C1715  C     0.50386   0.83379   0.88386   0.00000  Uiso   1.00
C1716  C     0.49668   0.83361   0.61619   0.00000  Uiso   1.00
C1717  C     0.48123   0.80021   0.90665   0.00000  Uiso   1.00
C1718  C     0.52095   0.86600   0.59377   0.00000  Uiso   1.00
C1719  C     0.48136   0.79793   0.95284   0.00000  Uiso   1.00
C1720  C     0.52104   0.86867   0.54754   0.00000  Uiso   1.00
C1721  C     0.50205   0.83347   0.97668   0.00000  Uiso   1.00
C1722  C     0.49975   0.83389   0.52345   0.00000  Uiso   1.00
C1723  C     0.52505   0.86848   0.95381   0.00000  Uiso   1.00
C1724  C     0.47630   0.79931   0.54624   0.00000  Uiso   1.00
C1725  C     0.46154   0.76076   0.97568   0.00000  Uiso   1.00
C1726  C     0.54250   0.90472   0.52500   0.00000  Uiso   1.00
Cu1727 Cu    0.50000   0.88022   0.75000   0.00000  Uiso   1.00
Cu1728 Cu    0.50000   0.78645   0.75000   0.00000  Uiso   1.00
H1729  H     0.46363   0.77564   0.88735   0.00000  Uiso   1.00
H1730  H     0.53930   0.88951   0.61335   0.00000  Uiso   1.00
H1731  H     0.53356   0.70991   0.68955   0.00000  Uiso   1.00
H1732  H     0.46678   0.95683   0.81056   0.00000  Uiso   1.00
H1733  H     0.46818   0.71025   0.81148   0.00000  Uiso   1.00
H1734  H     0.53383   0.95626   0.68971   0.00000  Uiso   1.00
N1735  N     0.50000   0.95069   0.75000   0.00000  Uiso   1.00
N1736  N     0.50000   0.71598   0.75000   0.00000  Uiso   1.00
O1737  O     0.43988   0.87291   0.74999   0.00000  Uiso   1.00
O1738  O     0.56012   0.79375   0.75000   0.00000  Uiso   1.00
O1739  O     0.56012   0.87291   0.75000   0.00000  Uiso   1.00
O1740  O     0.43988   0.79375   0.74999   0.00000  Uiso   1.00
O1741  O     0.49999   0.87293   0.68513   0.00000  Uiso   1.00
O1742  O     0.50001   0.79373   0.81487   0.00000  Uiso   1.00
O1743  O     0.50001   0.87293   0.81487   0.00000  Uiso   1.00
O1744  O     0.49999   0.79373   0.68513   0.00000  Uiso   1.00
C1745  C     0.56204   0.89290   0.88141   0.00000  Uiso   1.00
C1746  C     0.54854   0.94184   0.86580   0.00000  Uiso   1.00
H1747  H     0.51579   0.94877   0.87384   0.00000  Uiso   1.00
H1748  H     0.56746   0.96950   0.88138   0.00000  Uiso   1.00
H1749  H     0.55310   0.94494   0.82937   0.00000  Uiso   1.00
H1750  H     0.59031   0.89520   0.90154   0.00000  Uiso   1.00
H1751  H     0.57242   0.87242   0.85204   0.00000  Uiso   1.00
C1752  C     0.43330   0.78181   0.61669   0.00000  Uiso   1.00
C1753  C     0.40406   0.81947   0.63515   0.00000  Uiso   1.00
H1754  H     0.41887   0.84168   0.66045   0.00000  Uiso   1.00
H1755  H     0.39303   0.84231   0.60784   0.00000  Uiso   1.00
H1756  H     0.37713   0.80238   0.65104   0.00000  Uiso   1.00
H1757  H     0.41388   0.76080   0.59453   0.00000  Uiso   1.00
H1758  H     0.44337   0.75799   0.64362   0.00000  Uiso   1.00
C1759  C     0.44180   0.71961   0.95173   0.00000  Uiso   1.00
C1760  C     0.47396   0.68548   0.93318   0.00000  Uiso   1.00
H1761  H     0.45836   0.98927   0.91634   0.00000  Uiso   1.00
H1762  H     0.49448   0.70293   0.90877   0.00000  Uiso   1.00
H1763  H     0.49278   0.67103   0.96052   0.00000  Uiso   1.00
H1764  H     0.42137   0.69954   0.97441   0.00000  Uiso   1.00
H1765  H     0.42125   0.73215   0.92506   0.00000  Uiso   1.00
C1766  C     0.56388   0.94449   0.54938   0.00000  Uiso   1.00
C1767  C     0.53308   0.98013   0.56811   0.00000  Uiso   1.00
H1768  H     0.51138   0.96347   0.59181   0.00000  Uiso   1.00
H1769  H     0.54969   0.67502   0.58580   0.00000  Uiso   1.00
H1770  H     0.51540   0.99622   0.54069   0.00000  Uiso   1.00
H1771  H     0.58375   0.93044   0.57587   0.00000  Uiso   1.00
H1772  H     0.58532   0.96376   0.52720   0.00000  Uiso   1.00
F1773  F     0.44894   0.72125   0.54347   0.00000  Uiso   1.00
F1774  F     0.56094   0.94204   0.95809   0.00000  Uiso   1.00
C1775  C     0.37841   0.75239   0.80020   0.00000  Uiso   1.00
C1776  C     0.38368   0.71113   0.76802   0.00000  Uiso   1.00
H1777  H     0.35399   0.69925   0.75453   0.00000  Uiso   1.00
H1778  H     0.40351   0.72049   0.73937   0.00000  Uiso   1.00
H1779  H     0.39810   0.68160   0.78584   0.00000  Uiso   1.00
H1780  H     0.40862   0.76339   0.81295   0.00000  Uiso   1.00
H1781  H     0.36309   0.74101   0.83135   0.00000  Uiso   1.00
C1782  C     0.63142   0.91169   0.71466   0.00000  Uiso   1.00
C1783  C     0.61938   0.89330   0.66897   0.00000  Uiso   1.00
H1784  H     0.59327   0.86865   0.67094   0.00000  Uiso   1.00
H1785  H     0.61018   0.92339   0.64790   0.00000  Uiso   1.00
H1786  H     0.64590   0.87519   0.65296   0.00000  Uiso   1.00
H1787  H     0.60607   0.93181   0.73049   0.00000  Uiso   1.00
H1788  H     0.65572   0.93801   0.70797   0.00000  Uiso   1.00
C1789  C     0.62118   0.75055   0.79623   0.00000  Uiso   1.00
C1790  C     0.59944   0.76360   0.83958   0.00000  Uiso   1.00
H1791  H     0.62235   0.77305   0.86508   0.00000  Uiso   1.00
H1792  H     0.57860   0.79370   0.83486   0.00000  Uiso   1.00
H1793  H     0.58121   0.73332   0.85178   0.00000  Uiso   1.00
H1794  H     0.60019   0.73454   0.77203   0.00000  Uiso   1.00
H1795  H     0.64024   0.71974   0.80405   0.00000  Uiso   1.00
C1796  C     0.36967   0.92245   0.77699   0.00000  Uiso   1.00
C1797  C     0.38314   0.91845   0.82543   0.00000  Uiso   1.00
H1798  H     0.41043   0.89535   0.82868   0.00000  Uiso   1.00
H1799  H     0.39105   0.95362   0.83858   0.00000  Uiso   1.00
H1800  H     0.35777   0.90401   0.84607   0.00000  Uiso   1.00
H1801  H     0.39448   0.93681   0.75571   0.00000  Uiso   1.00
H1802  H     0.34469   0.94908   0.77705   0.00000  Uiso   1.00
C1803  C     0.75436   0.83344   0.75584   0.00000  Uiso   1.00
C1804  C     0.91286   0.83296   0.75141   0.00000  Uiso   1.00
C1805  C     0.79405   0.76105   0.52212   0.00000  Uiso   1.00
C1806  C     0.87694   0.90465   0.97858   0.00000  Uiso   1.00
C1807  C     0.68850   0.79287   0.77869   0.00000  Uiso   1.00
C1808  C     0.98065   0.87252   0.74476   0.00000  Uiso   1.00
C1809  C     0.97828   0.79244   0.77655   0.00000  Uiso   1.00
C1810  C     0.68756   0.87564   0.75937   0.00000  Uiso   1.00
C1811  C     0.95783   0.83192   0.75642   0.00000  Uiso   1.00
C1812  C     0.70979   0.83375   0.76493   0.00000  Uiso   1.00
C1813  C     0.85190   0.69135   0.71639   0.00000  Uiso   1.00
C1814  C     0.81500   0.97534   0.78368   0.00000  Uiso   1.00
C1815  C     0.81563   0.69158   0.78407   0.00000  Uiso   1.00
C1816  C     0.85204   0.97504   0.71648   0.00000  Uiso   1.00
C1817  C     0.83209   0.83332   0.66445   0.00000  Uiso   1.00
C1818  C     0.83469   0.83346   0.83557   0.00000  Uiso   1.00
C1819  C     0.86180   0.86638   0.90678   0.00000  Uiso   1.00
C1820  C     0.80371   0.80344   0.59278   0.00000  Uiso   1.00
C1821  C     0.83720   0.83379   0.88386   0.00000  Uiso   1.00
C1822  C     0.83001   0.83361   0.61619   0.00000  Uiso   1.00
C1823  C     0.81456   0.80021   0.90665   0.00000  Uiso   1.00
C1824  C     0.85428   0.86600   0.59377   0.00000  Uiso   1.00
C1825  C     0.81469   0.79793   0.95284   0.00000  Uiso   1.00
C1826  C     0.85437   0.86867   0.54754   0.00000  Uiso   1.00
C1827  C     0.83538   0.83347   0.97668   0.00000  Uiso   1.00
C1828  C     0.83308   0.83389   0.52345   0.00000  Uiso   1.00
C1829  C     0.85838   0.86848   0.95381   0.00000  Uiso   1.00
C1830  C     0.80964   0.79931   0.54624   0.00000  Uiso   1.00
C1831  C     0.79488   0.76076   0.97568   0.00000  Uiso   1.00
C1832  C     0.87584   0.90472   0.52500   0.00000  Uiso   1.00
Cu1833 Cu    0.83333   0.88022   0.75000   0.00000  Uiso   1.00
Cu1834 Cu    0.83333   0.78645   0.75000   0.00000  Uiso   1.00
H1835  H     0.79696   0.77564   0.88735   0.00000  Uiso   1.00
H1836  H     0.87264   0.88951   0.61335   0.00000  Uiso   1.00
H1837  H     0.86689   0.70991   0.68955   0.00000  Uiso   1.00
H1838  H     0.80011   0.95683   0.81056   0.00000  Uiso   1.00
H1839  H     0.80151   0.71025   0.81148   0.00000  Uiso   1.00
H1840  H     0.86717   0.95626   0.68971   0.00000  Uiso   1.00
N1841  N     0.83333   0.95069   0.75000   0.00000  Uiso   1.00
N1842  N     0.83333   0.71598   0.75000   0.00000  Uiso   1.00
O1843  O     0.77321   0.87291   0.74999   0.00000  Uiso   1.00
O1844  O     0.89345   0.79375   0.75000   0.00000  Uiso   1.00
O1845  O     0.89345   0.87291   0.75000   0.00000  Uiso   1.00
O1846  O     0.77321   0.79375   0.74999   0.00000  Uiso   1.00
O1847  O     0.83332   0.87293   0.68513   0.00000  Uiso   1.00
O1848  O     0.83334   0.79373   0.81487   0.00000  Uiso   1.00
O1849  O     0.83334   0.87293   0.81487   0.00000  Uiso   1.00
O1850  O     0.83332   0.79373   0.68513   0.00000  Uiso   1.00
C1851  C     0.89537   0.89290   0.88141   0.00000  Uiso   1.00
C1852  C     0.88187   0.94184   0.86580   0.00000  Uiso   1.00
H1853  H     0.84912   0.94877   0.87384   0.00000  Uiso   1.00
H1854  H     0.90079   0.96950   0.88138   0.00000  Uiso   1.00
H1855  H     0.88643   0.94494   0.82937   0.00000  Uiso   1.00
H1856  H     0.92364   0.89520   0.90154   0.00000  Uiso   1.00
H1857  H     0.90575   0.87242   0.85204   0.00000  Uiso   1.00
C1858  C     0.76664   0.78181   0.61669   0.00000  Uiso   1.00
C1859  C     0.73739   0.81947   0.63515   0.00000  Uiso   1.00
H1860  H     0.75220   0.84168   0.66045   0.00000  Uiso   1.00
H1861  H     0.72637   0.84231   0.60784   0.00000  Uiso   1.00
H1862  H     0.71046   0.80238   0.65104   0.00000  Uiso   1.00
H1863  H     0.74721   0.76080   0.59453   0.00000  Uiso   1.00
H1864  H     0.77670   0.75799   0.64362   0.00000  Uiso   1.00
C1865  C     0.77514   0.71961   0.95173   0.00000  Uiso   1.00
C1866  C     0.80729   0.68548   0.93318   0.00000  Uiso   1.00
H1867  H     0.79169   0.98927   0.91634   0.00000  Uiso   1.00
H1868  H     0.82782   0.70293   0.90877   0.00000  Uiso   1.00
H1869  H     0.82612   0.67103   0.96052   0.00000  Uiso   1.00
H1870  H     0.75470   0.69954   0.97441   0.00000  Uiso   1.00
H1871  H     0.75458   0.73215   0.92506   0.00000  Uiso   1.00
C1872  C     0.89721   0.94449   0.54938   0.00000  Uiso   1.00
C1873  C     0.86641   0.98013   0.56811   0.00000  Uiso   1.00
H1874  H     0.84471   0.96347   0.59181   0.00000  Uiso   1.00
H1875  H     0.88302   0.67502   0.58580   0.00000  Uiso   1.00
H1876  H     0.84874   0.99622   0.54069   0.00000  Uiso   1.00
H1877  H     0.91708   0.93044   0.57587   0.00000  Uiso   1.00
H1878  H     0.91866   0.96376   0.52720   0.00000  Uiso   1.00
F1879  F     0.78228   0.72125   0.54347   0.00000  Uiso   1.00
F1880  F     0.89427   0.94204   0.95809   0.00000  Uiso   1.00
C1881  C     0.71174   0.75239   0.80020   0.00000  Uiso   1.00
C1882  C     0.71701   0.71113   0.76802   0.00000  Uiso   1.00
H1883  H     0.68732   0.69925   0.75453   0.00000  Uiso   1.00
H1884  H     0.73684   0.72049   0.73937   0.00000  Uiso   1.00
H1885  H     0.73143   0.68160   0.78584   0.00000  Uiso   1.00
H1886  H     0.74195   0.76339   0.81295   0.00000  Uiso   1.00
H1887  H     0.69642   0.74101   0.83135   0.00000  Uiso   1.00
C1888  C     0.96475   0.91169   0.71466   0.00000  Uiso   1.00
C1889  C     0.95271   0.89330   0.66897   0.00000  Uiso   1.00
H1890  H     0.92661   0.86865   0.67094   0.00000  Uiso   1.00
H1891  H     0.94351   0.92339   0.64790   0.00000  Uiso   1.00
H1892  H     0.97923   0.87519   0.65296   0.00000  Uiso   1.00
H1893  H     0.93940   0.93181   0.73049   0.00000  Uiso   1.00
H1894  H     0.98906   0.93801   0.70797   0.00000  Uiso   1.00
C1895  C     0.95451   0.75055   0.79623   0.00000  Uiso   1.00
C1896  C     0.93277   0.76360   0.83958   0.00000  Uiso   1.00
H1897  H     0.95568   0.77305   0.86508   0.00000  Uiso   1.00
H1898  H     0.91193   0.79370   0.83486   0.00000  Uiso   1.00
H1899  H     0.91454   0.73332   0.85178   0.00000  Uiso   1.00
H1900  H     0.93353   0.73454   0.77203   0.00000  Uiso   1.00
H1901  H     0.97357   0.71974   0.80405   0.00000  Uiso   1.00
C1902  C     0.70300   0.92245   0.77699   0.00000  Uiso   1.00
C1903  C     0.71647   0.91845   0.82543   0.00000  Uiso   1.00
H1904  H     0.74376   0.89535   0.82868   0.00000  Uiso   1.00
H1905  H     0.72439   0.95362   0.83858   0.00000  Uiso   1.00
H1906  H     0.69110   0.90401   0.84607   0.00000  Uiso   1.00
H1907  H     0.72781   0.93681   0.75571   0.00000  Uiso   1.00
H1908  H     0.67802   0.94908   0.77705   0.00000  Uiso   1.00
loop_
_geom_bond_atom_site_label_1
_geom_bond_atom_site_label_2
_geom_bond_distance
_geom_bond_site_symmetry_2
_ccdc_geom_bond_type
C1     O44     1.295   .     A
C1     O41     1.295   .     A
C1     C10     1.477   .     S
C2     O43     1.300   .     A
C2     O42     1.287   .     A
C2     C9      1.475   .     S
C3     C28     1.409   .     A
C3     F77     1.359   .     S
C3     C983    1.400   1_554 S
C4     F78     1.355   .     S
C4     C27     1.414   .     A
C4     C984    1.399   .     S
C5     C79     1.525   .     S
C5     C10     1.419   .     A
C5     C219    1.422   1_455 S
C6     C9      1.421   .     A
C6     C86     1.530   .     S
C6     C114    1.391   .     S
C7     C93     1.542   .     S
C7     C9      1.442   .     A
C7     C111    1.422   .     S
C8     C100    1.524   .     S
C8     C10     1.404   .     A
C8     C218    1.391   1_455 S
C11    H35     1.081   .     S
C11    N40     1.367   .     A
C11    C650    1.414   1_545 S
C12    H36     1.080   .     S
C12    N39     1.365   .     A
C12    C331    1.412   .     S
C13    N40     1.366   .     A
C13    H37     1.080   .     S
C13    C648    1.412   1_545 S
C14    N39     1.367   .     A
C14    H38     1.082   .     S
C14    C329    1.414   .     S
C15    O48     1.289   .     A
C15    C20     1.457   .     S
C15    O45     1.290   .     A
C16    O47     1.287   .     A
C16    O46     1.293   .     A
C16    C19     1.459   .     S
C17    C27     1.422   .     A
C17    C49     1.532   .     S
C17    C19     1.414   .     A
C18    C20     1.411   .     A
C18    C56     1.534   .     S
C18    C28     1.419   .     A
C19    C21     1.389   .     A
C20    C22     1.390   .     A
C21    H33     1.080   .     S
C21    C23     1.394   .     A
C22    H34     1.079   .     S
C22    C24     1.396   .     A
C23    C29     1.418   .     A
C23    C25     1.418   .     A
C24    C26     1.416   .     A
C24    C30     1.416   .     A
C25    C27     1.425   .     A
C25    C980    1.411   .     S
C26    C28     1.423   .     A
C26    C979    1.411   1_554 S
C29    C63     1.524   .     S
C29    C957    1.400   .     S
C30    C70     1.525   .     S
C30    C958    1.399   1_554 S
Cu31   O43     1.970   .     S
Cu31   O47     1.966   .     S
Cu31   Cu32    2.671   .     S
Cu31   O41     1.972   .     S
Cu31   N39     2.007   .     S
Cu31   O45     1.966   .     S
Cu32   O48     1.966   .     S
Cu32   O44     1.970   .     S
Cu32   O46     1.966   .     S
Cu32   N40     2.007   .     S
Cu32   O42     1.972   .     S
C49    H54     1.111   .     S
C49    H55     1.109   .     S
C49    C50     1.535   .     S
C50    H52     1.110   .     S
C50    H53     1.110   .     S
C50    H51     1.110   .     S
C56    C57     1.532   .     S
C56    H62     1.109   .     S
C56    H61     1.103   .     S
C57    H59     1.111   .     S
C57    H60     1.111   .     S
C57    H58     1.106   .     S
C63    H69     1.110   .     S
C63    C64     1.528   .     S
C63    H68     1.111   .     S
C64    H67     1.110   .     S
C64    H66     1.109   .     S
C64    H701    1.110   1_545 S
H65    C382    1.110   .     S
C70    C71     1.529   .     S
C70    H76     1.110   .     S
C70    H75     1.107   .     S
C71    H74     1.110   .     S
C71    H72     1.109   .     S
C71    H391    1.110   .     S
H73    C707    1.110   1_545 S
C79    H84     1.107   .     S
C79    H85     1.109   .     S
C79    C80     1.531   .     S
C80    H83     1.104   .     S
C80    H82     1.108   .     S
C80    H81     1.108   .     S
C86    H91     1.108   .     S
C86    C87     1.528   .     S
C86    H92     1.111   .     S
C87    H88     1.107   .     S
C87    H89     1.109   .     S
C87    H90     1.111   .     S
C93    C94     1.526   .     S
C93    H99     1.100   .     S
C93    H98     1.105   .     S
C94    H95     1.111   .     S
C94    H97     1.111   .     S
C94    H96     1.102   .     S
C100   H105    1.108   .     S
C100   H106    1.110   .     S
C100   C101    1.533   .     S
C101   H102    1.109   .     S
C101   H103    1.110   .     S
C101   H104    1.111   .     S
C107   O150    1.295   .     A
C107   O147    1.295   .     A
C107   C116    1.477   .     S
C108   O149    1.300   .     A
C108   O148    1.287   .     A
C108   C115    1.475   .     S
C109   C134    1.409   .     A
C109   F183    1.359   .     S
C109   C1089   1.400   1_554 S
C110   F184    1.355   .     S
C110   C133    1.414   .     A
C110   C1090   1.399   .     S
C111   C185    1.525   .     S
C111   C116    1.419   .     A
C112   C115    1.421   .     A
C112   C192    1.530   .     S
C112   C220    1.391   .     S
C113   C199    1.542   .     S
C113   C115    1.442   .     A
C113   C217    1.422   .     S
C114   C206    1.524   .     S
C114   C116    1.404   .     A
C117   H141    1.081   .     S
C117   N146    1.367   .     A
C117   C756    1.414   1_545 S
C118   H142    1.080   .     S
C118   N145    1.365   .     A
C118   C437    1.412   .     S
C119   N146    1.366   .     A
C119   H143    1.080   .     S
C119   C754    1.412   1_545 S
C120   N145    1.367   .     A
C120   H144    1.082   .     S
C120   C435    1.414   .     S
C121   O154    1.289   .     A
C121   C126    1.457   .     S
C121   O151    1.290   .     A
C122   O153    1.287   .     A
C122   O152    1.293   .     A
C122   C125    1.459   .     S
C123   C133    1.422   .     A
C123   C155    1.532   .     S
C123   C125    1.414   .     A
C124   C126    1.411   .     A
C124   C162    1.534   .     S
C124   C134    1.419   .     A
C125   C127    1.389   .     A
C126   C128    1.390   .     A
C127   H139    1.080   .     S
C127   C129    1.394   .     A
C128   H140    1.079   .     S
C128   C130    1.396   .     A
C129   C135    1.418   .     A
C129   C131    1.418   .     A
C130   C132    1.416   .     A
C130   C136    1.416   .     A
C131   C133    1.425   .     A
C131   C1086   1.411   .     S
C132   C134    1.423   .     A
C132   C1085   1.411   1_554 S
C135   C169    1.524   .     S
C135   C1063   1.400   .     S
C136   C176    1.525   .     S
C136   C1064   1.399   1_554 S
Cu137  O149    1.970   .     S
Cu137  O153    1.966   .     S
Cu137  Cu138   2.671   .     S
Cu137  O147    1.972   .     S
Cu137  N145    2.007   .     S
Cu137  O151    1.966   .     S
Cu138  O154    1.966   .     S
Cu138  O150    1.970   .     S
Cu138  O152    1.966   .     S
Cu138  N146    2.007   .     S
Cu138  O148    1.972   .     S
C155   H160    1.111   .     S
C155   H161    1.109   .     S
C155   C156    1.535   .     S
C156   H158    1.110   .     S
C156   H159    1.110   .     S
C156   H157    1.110   .     S
C162   C163    1.532   .     S
C162   H168    1.109   .     S
C162   H167    1.103   .     S
C163   H165    1.111   .     S
C163   H166    1.111   .     S
C163   H164    1.106   .     S
C169   H175    1.110   .     S
C169   C170    1.528   .     S
C169   H174    1.111   .     S
C170   H173    1.110   .     S
C170   H172    1.109   .     S
C170   H807    1.110   1_545 S
H171   C488    1.110   .     S
C176   C177    1.529   .     S
C176   H182    1.110   .     S
C176   H181    1.107   .     S
C177   H180    1.110   .     S
C177   H178    1.109   .     S
C177   H497    1.110   .     S
H179   C813    1.110   1_545 S
C185   H190    1.107   .     S
C185   H191    1.109   .     S
C185   C186    1.531   .     S
C186   H189    1.104   .     S
C186   H188    1.108   .     S
C186   H187    1.108   .     S
C192   H197    1.108   .     S
C192   C193    1.528   .     S
C192   H198    1.111   .     S
C193   H194    1.107   .     S
C193   H195    1.109   .     S
C193   H196    1.111   .     S
C199   C200    1.526   .     S
C199   H205    1.100   .     S
C199   H204    1.105   .     S
C200   H201    1.111   .     S
C200   H203    1.111   .     S
C200   H202    1.102   .     S
C206   H211    1.108   .     S
C206   H212    1.110   .     S
C206   C207    1.533   .     S
C207   H208    1.109   .     S
C207   H209    1.110   .     S
C207   H210    1.111   .     S
C213   O256    1.295   .     A
C213   O253    1.295   .     A
C213   C222    1.477   .     S
C214   O255    1.300   .     A
C214   O254    1.287   .     A
C214   C221    1.475   .     S
C215   C240    1.409   .     A
C215   F289    1.359   .     S
C215   C1195   1.400   1_554 S
C216   F290    1.355   .     S
C216   C239    1.414   .     A
C216   C1196   1.399   .     S
C217   C291    1.525   .     S
C217   C222    1.419   .     A
C218   C221    1.421   .     A
C218   C298    1.530   .     S
C218   C8      1.391   1_655 S
C219   C305    1.542   .     S
C219   C221    1.442   .     A
C219   C5      1.422   1_655 S
C220   C312    1.524   .     S
C220   C222    1.404   .     A
C223   H247    1.081   .     S
C223   N252    1.367   .     A
C223   C862    1.414   1_545 S
C224   H248    1.080   .     S
C224   N251    1.365   .     A
C224   C543    1.412   .     S
C225   N252    1.366   .     A
C225   H249    1.080   .     S
C225   C860    1.412   1_545 S
C226   N251    1.367   .     A
C226   H250    1.082   .     S
C226   C541    1.414   .     S
C227   O260    1.289   .     A
C227   C232    1.457   .     S
C227   O257    1.290   .     A
C228   O259    1.287   .     A
C228   O258    1.293   .     A
C228   C231    1.459   .     S
C229   C239    1.422   .     A
C229   C261    1.532   .     S
C229   C231    1.414   .     A
C230   C232    1.411   .     A
C230   C268    1.534   .     S
C230   C240    1.419   .     A
C231   C233    1.389   .     A
C232   C234    1.390   .     A
C233   H245    1.080   .     S
C233   C235    1.394   .     A
C234   H246    1.079   .     S
C234   C236    1.396   .     A
C235   C241    1.418   .     A
C235   C237    1.418   .     A
C236   C238    1.416   .     A
C236   C242    1.416   .     A
C237   C239    1.425   .     A
C237   C1192   1.411   .     S
C238   C240    1.423   .     A
C238   C1191   1.411   1_554 S
C241   C275    1.524   .     S
C241   C1169   1.400   .     S
C242   C282    1.525   .     S
C242   C1170   1.399   1_554 S
Cu243  O255    1.970   .     S
Cu243  O259    1.966   .     S
Cu243  Cu244   2.671   .     S
Cu243  O253    1.972   .     S
Cu243  N251    2.007   .     S
Cu243  O257    1.966   .     S
Cu244  O260    1.966   .     S
Cu244  O256    1.970   .     S
Cu244  O258    1.966   .     S
Cu244  N252    2.007   .     S
Cu244  O254    1.972   .     S
C261   H266    1.111   .     S
C261   H267    1.109   .     S
C261   C262    1.535   .     S
C262   H264    1.110   .     S
C262   H265    1.110   .     S
C262   H263    1.110   .     S
C268   C269    1.532   .     S
C268   H274    1.109   .     S
C268   H273    1.103   .     S
C269   H271    1.111   .     S
C269   H272    1.111   .     S
C269   H270    1.106   .     S
C275   H281    1.110   .     S
C275   C276    1.528   .     S
C275   H280    1.111   .     S
C276   H279    1.110   .     S
C276   H278    1.109   .     S
C276   H913    1.110   1_545 S
H277   C594    1.110   .     S
C282   C283    1.529   .     S
C282   H288    1.110   .     S
C282   H287    1.107   .     S
C283   H286    1.110   .     S
C283   H284    1.109   .     S
C283   H603    1.110   .     S
H285   C919    1.110   1_545 S
C291   H296    1.107   .     S
C291   H297    1.109   .     S
C291   C292    1.531   .     S
C292   H295    1.104   .     S
C292   H294    1.108   .     S
C292   H293    1.108   .     S
C298   H303    1.108   .     S
C298   C299    1.528   .     S
C298   H304    1.111   .     S
C299   H300    1.107   .     S
C299   H301    1.109   .     S
C299   H302    1.111   .     S
C305   C306    1.526   .     S
C305   H311    1.100   .     S
C305   H310    1.105   .     S
C306   H307    1.111   .     S
C306   H309    1.111   .     S
C306   H308    1.102   .     S
C312   H317    1.108   .     S
C312   H318    1.110   .     S
C312   C313    1.533   .     S
C313   H314    1.109   .     S
C313   H315    1.110   .     S
C313   H316    1.111   .     S
C319   O362    1.295   .     A
C319   O359    1.295   .     A
C319   C328    1.477   .     S
C320   O361    1.300   .     A
C320   O360    1.287   .     A
C320   C327    1.475   .     S
C321   C346    1.409   .     A
C321   F395    1.359   .     S
C321   C1301   1.400   1_554 S
C322   F396    1.355   .     S
C322   C345    1.414   .     A
C322   C1302   1.399   .     S
C323   C397    1.525   .     S
C323   C328    1.419   .     A
C323   C537    1.422   1_455 S
C324   C327    1.421   .     A
C324   C404    1.530   .     S
C324   C432    1.391   .     S
C325   C411    1.542   .     S
C325   C327    1.442   .     A
C325   C429    1.422   .     S
C326   C418    1.524   .     S
C326   C328    1.404   .     A
C326   C536    1.391   1_455 S
C329   H353    1.081   .     S
C329   N358    1.367   .     A
C330   H354    1.080   .     S
C330   N357    1.365   .     A
C330   C649    1.412   .     S
C331   N358    1.366   .     A
C331   H355    1.080   .     S
C332   N357    1.367   .     A
C332   H356    1.082   .     S
C332   C647    1.414   .     S
C333   O366    1.289   .     A
C333   C338    1.457   .     S
C333   O363    1.290   .     A
C334   O365    1.287   .     A
C334   O364    1.293   .     A
C334   C337    1.459   .     S
C335   C345    1.422   .     A
C335   C367    1.532   .     S
C335   C337    1.414   .     A
C336   C338    1.411   .     A
C336   C374    1.534   .     S
C336   C346    1.419   .     A
C337   C339    1.389   .     A
C338   C340    1.390   .     A
C339   H351    1.080   .     S
C339   C341    1.394   .     A
C340   H352    1.079   .     S
C340   C342    1.396   .     A
C341   C347    1.418   .     A
C341   C343    1.418   .     A
C342   C344    1.416   .     A
C342   C348    1.416   .     A
C343   C345    1.425   .     A
C343   C1298   1.411   .     S
C344   C346    1.423   .     A
C344   C1297   1.411   1_554 S
C347   C381    1.524   .     S
C347   C1275   1.400   .     S
C348   C388    1.525   .     S
C348   C1276   1.399   1_554 S
Cu349  O361    1.970   .     S
Cu349  O365    1.966   .     S
Cu349  Cu350   2.671   .     S
Cu349  O359    1.972   .     S
Cu349  N357    2.007   .     S
Cu349  O363    1.966   .     S
Cu350  O366    1.966   .     S
Cu350  O362    1.970   .     S
Cu350  O364    1.966   .     S
Cu350  N358    2.007   .     S
Cu350  O360    1.972   .     S
C367   H372    1.111   .     S
C367   H373    1.109   .     S
C367   C368    1.535   .     S
C368   H370    1.110   .     S
C368   H371    1.110   .     S
C368   H369    1.110   .     S
C374   C375    1.532   .     S
C374   H380    1.109   .     S
C374   H379    1.103   .     S
C375   H377    1.111   .     S
C375   H378    1.111   .     S
C375   H376    1.106   .     S
C381   H387    1.110   .     S
C381   C382    1.528   .     S
C381   H386    1.111   .     S
C382   H385    1.110   .     S
C382   H384    1.109   .     S
H383   C700    1.110   .     S
C388   C389    1.529   .     S
C388   H394    1.110   .     S
C388   H393    1.107   .     S
C389   H392    1.110   .     S
C389   H390    1.109   .     S
C389   H709    1.110   .     S
C397   H402    1.107   .     S
C397   H403    1.109   .     S
C397   C398    1.531   .     S
C398   H401    1.104   .     S
C398   H400    1.108   .     S
C398   H399    1.108   .     S
C404   H409    1.108   .     S
C404   C405    1.528   .     S
C404   H410    1.111   .     S
C405   H406    1.107   .     S
C405   H407    1.109   .     S
C405   H408    1.111   .     S
C411   C412    1.526   .     S
C411   H417    1.100   .     S
C411   H416    1.105   .     S
C412   H413    1.111   .     S
C412   H415    1.111   .     S
C412   H414    1.102   .     S
C418   H423    1.108   .     S
C418   H424    1.110   .     S
C418   C419    1.533   .     S
C419   H420    1.109   .     S
C419   H421    1.110   .     S
C419   H422    1.111   .     S
C425   O468    1.295   .     A
C425   O465    1.295   .     A
C425   C434    1.477   .     S
C426   O467    1.300   .     A
C426   O466    1.287   .     A
C426   C433    1.475   .     S
C427   C452    1.409   .     A
C427   F501    1.359   .     S
C427   C1407   1.400   1_554 S
C428   F502    1.355   .     S
C428   C451    1.414   .     A
C428   C1408   1.399   .     S
C429   C503    1.525   .     S
C429   C434    1.419   .     A
C430   C433    1.421   .     A
C430   C510    1.530   .     S
C430   C538    1.391   .     S
C431   C517    1.542   .     S
C431   C433    1.442   .     A
C431   C535    1.422   .     S
C432   C524    1.524   .     S
C432   C434    1.404   .     A
C435   H459    1.081   .     S
C435   N464    1.367   .     A
C436   H460    1.080   .     S
C436   N463    1.365   .     A
C436   C755    1.412   .     S
C437   N464    1.366   .     A
C437   H461    1.080   .     S
C438   N463    1.367   .     A
C438   H462    1.082   .     S
C438   C753    1.414   .     S
C439   O472    1.289   .     A
C439   C444    1.457   .     S
C439   O469    1.290   .     A
C440   O471    1.287   .     A
C440   O470    1.293   .     A
C440   C443    1.459   .     S
C441   C451    1.422   .     A
C441   C473    1.532   .     S
C441   C443    1.414   .     A
C442   C444    1.411   .     A
C442   C480    1.534   .     S
C442   C452    1.419   .     A
C443   C445    1.389   .     A
C444   C446    1.390   .     A
C445   H457    1.080   .     S
C445   C447    1.394   .     A
C446   H458    1.079   .     S
C446   C448    1.396   .     A
C447   C453    1.418   .     A
C447   C449    1.418   .     A
C448   C450    1.416   .     A
C448   C454    1.416   .     A
C449   C451    1.425   .     A
C449   C1404   1.411   .     S
C450   C452    1.423   .     A
C450   C1403   1.411   1_554 S
C453   C487    1.524   .     S
C453   C1381   1.400   .     S
C454   C494    1.525   .     S
C454   C1382   1.399   1_554 S
Cu455  O467    1.970   .     S
Cu455  O471    1.966   .     S
Cu455  Cu456   2.671   .     S
Cu455  O465    1.972   .     S
Cu455  N463    2.007   .     S
Cu455  O469    1.966   .     S
Cu456  O472    1.966   .     S
Cu456  O468    1.970   .     S
Cu456  O470    1.966   .     S
Cu456  N464    2.007   .     S
Cu456  O466    1.972   .     S
C473   H478    1.111   .     S
C473   H479    1.109   .     S
C473   C474    1.535   .     S
C474   H476    1.110   .     S
C474   H477    1.110   .     S
C474   H475    1.110   .     S
C480   C481    1.532   .     S
C480   H486    1.109   .     S
C480   H485    1.103   .     S
C481   H483    1.111   .     S
C481   H484    1.111   .     S
C481   H482    1.106   .     S
C487   H493    1.110   .     S
C487   C488    1.528   .     S
C487   H492    1.111   .     S
C488   H491    1.110   .     S
C488   H490    1.109   .     S
H489   C806    1.110   .     S
C494   C495    1.529   .     S
C494   H500    1.110   .     S
C494   H499    1.107   .     S
C495   H498    1.110   .     S
C495   H496    1.109   .     S
C495   H815    1.110   .     S
C503   H508    1.107   .     S
C503   H509    1.109   .     S
C503   C504    1.531   .     S
C504   H507    1.104   .     S
C504   H506    1.108   .     S
C504   H505    1.108   .     S
C510   H515    1.108   .     S
C510   C511    1.528   .     S
C510   H516    1.111   .     S
C511   H512    1.107   .     S
C511   H513    1.109   .     S
C511   H514    1.111   .     S
C517   C518    1.526   .     S
C517   H523    1.100   .     S
C517   H522    1.105   .     S
C518   H519    1.111   .     S
C518   H521    1.111   .     S
C518   H520    1.102   .     S
C524   H529    1.108   .     S
C524   H530    1.110   .     S
C524   C525    1.533   .     S
C525   H526    1.109   .     S
C525   H527    1.110   .     S
C525   H528    1.111   .     S
C531   O574    1.295   .     A
C531   O571    1.295   .     A
C531   C540    1.477   .     S
C532   O573    1.300   .     A
C532   O572    1.287   .     A
C532   C539    1.475   .     S
C533   C558    1.409   .     A
C533   F607    1.359   .     S
C533   C1513   1.400   1_554 S
C534   F608    1.355   .     S
C534   C557    1.414   .     A
C534   C1514   1.399   .     S
C535   C609    1.525   .     S
C535   C540    1.419   .     A
C536   C539    1.421   .     A
C536   C616    1.530   .     S
C536   C326    1.391   1_655 S
C537   C623    1.542   .     S
C537   C539    1.442   .     A
C537   C323    1.422   1_655 S
C538   C630    1.524   .     S
C538   C540    1.404   .     A
C541   H565    1.081   .     S
C541   N570    1.367   .     A
C542   H566    1.080   .     S
C542   N569    1.365   .     A
C542   C861    1.412   .     S
C543   N570    1.366   .     A
C543   H567    1.080   .     S
C544   N569    1.367   .     A
C544   H568    1.082   .     S
C544   C859    1.414   .     S
C545   O578    1.289   .     A
C545   C550    1.457   .     S
C545   O575    1.290   .     A
C546   O577    1.287   .     A
C546   O576    1.293   .     A
C546   C549    1.459   .     S
C547   C557    1.422   .     A
C547   C579    1.532   .     S
C547   C549    1.414   .     A
C548   C550    1.411   .     A
C548   C586    1.534   .     S
C548   C558    1.419   .     A
C549   C551    1.389   .     A
C550   C552    1.390   .     A
C551   H563    1.080   .     S
C551   C553    1.394   .     A
C552   H564    1.079   .     S
C552   C554    1.396   .     A
C553   C559    1.418   .     A
C553   C555    1.418   .     A
C554   C556    1.416   .     A
C554   C560    1.416   .     A
C555   C557    1.425   .     A
C555   C1510   1.411   .     S
C556   C558    1.423   .     A
C556   C1509   1.411   1_554 S
C559   C593    1.524   .     S
C559   C1487   1.400   .     S
C560   C600    1.525   .     S
C560   C1488   1.399   1_554 S
Cu561  O573    1.970   .     S
Cu561  O577    1.966   .     S
Cu561  Cu562   2.671   .     S
Cu561  O571    1.972   .     S
Cu561  N569    2.007   .     S
Cu561  O575    1.966   .     S
Cu562  O578    1.966   .     S
Cu562  O574    1.970   .     S
Cu562  O576    1.966   .     S
Cu562  N570    2.007   .     S
Cu562  O572    1.972   .     S
C579   H584    1.111   .     S
C579   H585    1.109   .     S
C579   C580    1.535   .     S
C580   H582    1.110   .     S
C580   H583    1.110   .     S
C580   H581    1.110   .     S
C586   C587    1.532   .     S
C586   H592    1.109   .     S
C586   H591    1.103   .     S
C587   H589    1.111   .     S
C587   H590    1.111   .     S
C587   H588    1.106   .     S
C593   H599    1.110   .     S
C593   C594    1.528   .     S
C593   H598    1.111   .     S
C594   H597    1.110   .     S
C594   H596    1.109   .     S
H595   C912    1.110   .     S
C600   C601    1.529   .     S
C600   H606    1.110   .     S
C600   H605    1.107   .     S
C601   H604    1.110   .     S
C601   H602    1.109   .     S
C601   H921    1.110   .     S
C609   H614    1.107   .     S
C609   H615    1.109   .     S
C609   C610    1.531   .     S
C610   H613    1.104   .     S
C610   H612    1.108   .     S
C610   H611    1.108   .     S
C616   H621    1.108   .     S
C616   C617    1.528   .     S
C616   H622    1.111   .     S
C617   H618    1.107   .     S
C617   H619    1.109   .     S
C617   H620    1.111   .     S
C623   C624    1.526   .     S
C623   H629    1.100   .     S
C623   H628    1.105   .     S
C624   H625    1.111   .     S
C624   H627    1.111   .     S
C624   H626    1.102   .     S
C630   H635    1.108   .     S
C630   H636    1.110   .     S
C630   C631    1.533   .     S
C631   H632    1.109   .     S
C631   H633    1.110   .     S
C631   H634    1.111   .     S
C637   O680    1.295   .     A
C637   O677    1.295   .     A
C637   C646    1.477   .     S
C638   O679    1.300   .     A
C638   O678    1.287   .     A
C638   C645    1.475   .     S
C639   C664    1.409   .     A
C639   F713    1.359   .     S
C639   C1619   1.400   1_554 S
C640   F714    1.355   .     S
C640   C663    1.414   .     A
C640   C1620   1.399   .     S
C641   C715    1.525   .     S
C641   C646    1.419   .     A
C641   C855    1.422   1_455 S
C642   C645    1.421   .     A
C642   C722    1.530   .     S
C642   C750    1.391   .     S
C643   C729    1.542   .     S
C643   C645    1.442   .     A
C643   C747    1.422   .     S
C644   C736    1.524   .     S
C644   C646    1.404   .     A
C644   C854    1.391   1_455 S
C647   H671    1.081   .     S
C647   N676    1.367   .     A
C648   H672    1.080   .     S
C648   N675    1.365   .     A
C648   C13     1.412   1_565 S
C649   N676    1.366   .     A
C649   H673    1.080   .     S
C650   N675    1.367   .     A
C650   H674    1.082   .     S
C650   C11     1.414   1_565 S
C651   O684    1.289   .     A
C651   C656    1.457   .     S
C651   O681    1.290   .     A
C652   O683    1.287   .     A
C652   O682    1.293   .     A
C652   C655    1.459   .     S
C653   C663    1.422   .     A
C653   C685    1.532   .     S
C653   C655    1.414   .     A
C654   C656    1.411   .     A
C654   C692    1.534   .     S
C654   C664    1.419   .     A
C655   C657    1.389   .     A
C656   C658    1.390   .     A
C657   H669    1.080   .     S
C657   C659    1.394   .     A
C658   H670    1.079   .     S
C658   C660    1.396   .     A
C659   C665    1.418   .     A
C659   C661    1.418   .     A
C660   C662    1.416   .     A
C660   C666    1.416   .     A
C661   C663    1.425   .     A
C661   C1616   1.411   .     S
C662   C664    1.423   .     A
C662   C1615   1.411   1_554 S
C665   C699    1.524   .     S
C665   C1593   1.400   .     S
C666   C706    1.525   .     S
C666   C1594   1.399   1_554 S
Cu667  O679    1.970   .     S
Cu667  O683    1.966   .     S
Cu667  Cu668   2.671   .     S
Cu667  O677    1.972   .     S
Cu667  N675    2.007   .     S
Cu667  O681    1.966   .     S
Cu668  O684    1.966   .     S
Cu668  O680    1.970   .     S
Cu668  O682    1.966   .     S
Cu668  N676    2.007   .     S
Cu668  O678    1.972   .     S
C685   H690    1.111   .     S
C685   H691    1.109   .     S
C685   C686    1.535   .     S
C686   H688    1.110   .     S
C686   H689    1.110   .     S
C686   H687    1.110   .     S
C692   C693    1.532   .     S
C692   H698    1.109   .     S
C692   H697    1.103   .     S
C693   H695    1.111   .     S
C693   H696    1.111   .     S
C693   H694    1.106   .     S
C699   H705    1.110   .     S
C699   C700    1.528   .     S
C699   H704    1.111   .     S
C700   H703    1.110   .     S
C700   H702    1.109   .     S
H701   C64     1.110   1_565 S
C706   C707    1.529   .     S
C706   H712    1.110   .     S
C706   H711    1.107   .     S
C707   H710    1.110   .     S
C707   H708    1.109   .     S
C707   H73     1.110   1_565 S
C715   H720    1.107   .     S
C715   H721    1.109   .     S
C715   C716    1.531   .     S
C716   H719    1.104   .     S
C716   H718    1.108   .     S
C716   H717    1.108   .     S
C722   H727    1.108   .     S
C722   C723    1.528   .     S
C722   H728    1.111   .     S
C723   H724    1.107   .     S
C723   H725    1.109   .     S
C723   H726    1.111   .     S
C729   C730    1.526   .     S
C729   H735    1.100   .     S
C729   H734    1.105   .     S
C730   H731    1.111   .     S
C730   H733    1.111   .     S
C730   H732    1.102   .     S
C736   H741    1.108   .     S
C736   H742    1.110   .     S
C736   C737    1.533   .     S
C737   H738    1.109   .     S
C737   H739    1.110   .     S
C737   H740    1.111   .     S
C743   O786    1.295   .     A
C743   O783    1.295   .     A
C743   C752    1.477   .     S
C744   O785    1.300   .     A
C744   O784    1.287   .     A
C744   C751    1.475   .     S
C745   C770    1.409   .     A
C745   F819    1.359   .     S
C745   C1725   1.400   1_554 S
C746   F820    1.355   .     S
C746   C769    1.414   .     A
C746   C1726   1.399   .     S
C747   C821    1.525   .     S
C747   C752    1.419   .     A
C748   C751    1.421   .     A
C748   C828    1.530   .     S
C748   C856    1.391   .     S
C749   C835    1.542   .     S
C749   C751    1.442   .     A
C749   C853    1.422   .     S
C750   C842    1.524   .     S
C750   C752    1.404   .     A
C753   H777    1.081   .     S
C753   N782    1.367   .     A
C754   H778    1.080   .     S
C754   N781    1.365   .     A
C754   C119    1.412   1_565 S
C755   N782    1.366   .     A
C755   H779    1.080   .     S
C756   N781    1.367   .     A
C756   H780    1.082   .     S
C756   C117    1.414   1_565 S
C757   O790    1.289   .     A
C757   C762    1.457   .     S
C757   O787    1.290   .     A
C758   O789    1.287   .     A
C758   O788    1.293   .     A
C758   C761    1.459   .     S
C759   C769    1.422   .     A
C759   C791    1.532   .     S
C759   C761    1.414   .     A
C760   C762    1.411   .     A
C760   C798    1.534   .     S
C760   C770    1.419   .     A
C761   C763    1.389   .     A
C762   C764    1.390   .     A
C763   H775    1.080   .     S
C763   C765    1.394   .     A
C764   H776    1.079   .     S
C764   C766    1.396   .     A
C765   C771    1.418   .     A
C765   C767    1.418   .     A
C766   C768    1.416   .     A
C766   C772    1.416   .     A
C767   C769    1.425   .     A
C767   C1722   1.411   .     S
C768   C770    1.423   .     A
C768   C1721   1.411   1_554 S
C771   C805    1.524   .     S
C771   C1699   1.400   .     S
C772   C812    1.525   .     S
C772   C1700   1.399   1_554 S
Cu773  O785    1.970   .     S
Cu773  O789    1.966   .     S
Cu773  Cu774   2.671   .     S
Cu773  O783    1.972   .     S
Cu773  N781    2.007   .     S
Cu773  O787    1.966   .     S
Cu774  O790    1.966   .     S
Cu774  O786    1.970   .     S
Cu774  O788    1.966   .     S
Cu774  N782    2.007   .     S
Cu774  O784    1.972   .     S
C791   H796    1.111   .     S
C791   H797    1.109   .     S
C791   C792    1.535   .     S
C792   H794    1.110   .     S
C792   H795    1.110   .     S
C792   H793    1.110   .     S
C798   C799    1.532   .     S
C798   H804    1.109   .     S
C798   H803    1.103   .     S
C799   H801    1.111   .     S
C799   H802    1.111   .     S
C799   H800    1.106   .     S
C805   H811    1.110   .     S
C805   C806    1.528   .     S
C805   H810    1.111   .     S
C806   H809    1.110   .     S
C806   H808    1.109   .     S
H807   C170    1.110   1_565 S
C812   C813    1.529   .     S
C812   H818    1.110   .     S
C812   H817    1.107   .     S
C813   H816    1.110   .     S
C813   H814    1.109   .     S
C813   H179    1.110   1_565 S
C821   H826    1.107   .     S
C821   H827    1.109   .     S
C821   C822    1.531   .     S
C822   H825    1.104   .     S
C822   H824    1.108   .     S
C822   H823    1.108   .     S
C828   H833    1.108   .     S
C828   C829    1.528   .     S
C828   H834    1.111   .     S
C829   H830    1.107   .     S
C829   H831    1.109   .     S
C829   H832    1.111   .     S
C835   C836    1.526   .     S
C835   H841    1.100   .     S
C835   H840    1.105   .     S
C836   H837    1.111   .     S
C836   H839    1.111   .     S
C836   H838    1.102   .     S
C842   H847    1.108   .     S
C842   H848    1.110   .     S
C842   C843    1.533   .     S
C843   H844    1.109   .     S
C843   H845    1.110   .     S
C843   H846    1.111   .     S
C849   O892    1.295   .     A
C849   O889    1.295   .     A
C849   C858    1.477   .     S
C850   O891    1.300   .     A
C850   O890    1.287   .     A
C850   C857    1.475   .     S
C851   C876    1.409   .     A
C851   F925    1.359   .     S
C851   C1831   1.400   1_554 S
C852   F926    1.355   .     S
C852   C875    1.414   .     A
C852   C1832   1.399   .     S
C853   C927    1.525   .     S
C853   C858    1.419   .     A
C854   C857    1.421   .     A
C854   C934    1.530   .     S
C854   C644    1.391   1_655 S
C855   C941    1.542   .     S
C855   C857    1.442   .     A
C855   C641    1.422   1_655 S
C856   C948    1.524   .     S
C856   C858    1.404   .     A
C859   H883    1.081   .     S
C859   N888    1.367   .     A
C860   H884    1.080   .     S
C860   N887    1.365   .     A
C860   C225    1.412   1_565 S
C861   N888    1.366   .     A
C861   H885    1.080   .     S
C862   N887    1.367   .     A
C862   H886    1.082   .     S
C862   C223    1.414   1_565 S
C863   O896    1.289   .     A
C863   C868    1.457   .     S
C863   O893    1.290   .     A
C864   O895    1.287   .     A
C864   O894    1.293   .     A
C864   C867    1.459   .     S
C865   C875    1.422   .     A
C865   C897    1.532   .     S
C865   C867    1.414   .     A
C866   C868    1.411   .     A
C866   C904    1.534   .     S
C866   C876    1.419   .     A
C867   C869    1.389   .     A
C868   C870    1.390   .     A
C869   H881    1.080   .     S
C869   C871    1.394   .     A
C870   H882    1.079   .     S
C870   C872    1.396   .     A
C871   C877    1.418   .     A
C871   C873    1.418   .     A
C872   C874    1.416   .     A
C872   C878    1.416   .     A
C873   C875    1.425   .     A
C873   C1828   1.411   .     S
C874   C876    1.423   .     A
C874   C1827   1.411   1_554 S
C877   C911    1.524   .     S
C877   C1805   1.400   .     S
C878   C918    1.525   .     S
C878   C1806   1.399   1_554 S
Cu879  O891    1.970   .     S
Cu879  O895    1.966   .     S
Cu879  Cu880   2.671   .     S
Cu879  O889    1.972   .     S
Cu879  N887    2.007   .     S
Cu879  O893    1.966   .     S
Cu880  O896    1.966   .     S
Cu880  O892    1.970   .     S
Cu880  O894    1.966   .     S
Cu880  N888    2.007   .     S
Cu880  O890    1.972   .     S
C897   H902    1.111   .     S
C897   H903    1.109   .     S
C897   C898    1.535   .     S
C898   H900    1.110   .     S
C898   H901    1.110   .     S
C898   H899    1.110   .     S
C904   C905    1.532   .     S
C904   H910    1.109   .     S
C904   H909    1.103   .     S
C905   H907    1.111   .     S
C905   H908    1.111   .     S
C905   H906    1.106   .     S
C911   H917    1.110   .     S
C911   C912    1.528   .     S
C911   H916    1.111   .     S
C912   H915    1.110   .     S
C912   H914    1.109   .     S
H913   C276    1.110   1_565 S
C918   C919    1.529   .     S
C918   H924    1.110   .     S
C918   H923    1.107   .     S
C919   H922    1.110   .     S
C919   H920    1.109   .     S
C919   H285    1.110   1_565 S
C927   H932    1.107   .     S
C927   H933    1.109   .     S
C927   C928    1.531   .     S
C928   H931    1.104   .     S
C928   H930    1.108   .     S
C928   H929    1.108   .     S
C934   H939    1.108   .     S
C934   C935    1.528   .     S
C934   H940    1.111   .     S
C935   H936    1.107   .     S
C935   H937    1.109   .     S
C935   H938    1.111   .     S
C941   C942    1.526   .     S
C941   H947    1.100   .     S
C941   H946    1.105   .     S
C942   H943    1.111   .     S
C942   H945    1.111   .     S
C942   H944    1.102   .     S
C948   H953    1.108   .     S
C948   H954    1.110   .     S
C948   C949    1.533   .     S
C949   H950    1.109   .     S
C949   H951    1.110   .     S
C949   H952    1.111   .     S
C955   O998    1.295   .     A
C955   O995    1.295   .     A
C955   C964    1.477   .     S
C956   O997    1.300   .     A
C956   O996    1.287   .     A
C956   C963    1.475   .     S
C957   C982    1.409   .     A
C957   F1031   1.359   .     S
C958   F1032   1.355   .     S
C958   C981    1.414   .     A
C958   C30     1.399   1_556 S
C959   C1033   1.525   .     S
C959   C964    1.419   .     A
C959   C1173   1.422   1_455 S
C960   C963    1.421   .     A
C960   C1040   1.530   .     S
C960   C1068   1.391   .     S
C961   C1047   1.542   .     S
C961   C963    1.442   .     A
C961   C1065   1.422   .     S
C962   C1054   1.524   .     S
C962   C964    1.404   .     A
C962   C1172   1.391   1_455 S
C965   H989    1.081   .     S
C965   N994    1.367   .     A
C965   C1604   1.414   1_545 S
C966   H990    1.080   .     S
C966   N993    1.365   .     A
C966   C1285   1.412   .     S
C967   N994    1.366   .     A
C967   H991    1.080   .     S
C967   C1602   1.412   1_545 S
C968   N993    1.367   .     A
C968   H992    1.082   .     S
C968   C1283   1.414   .     S
C969   O1002   1.289   .     A
C969   C974    1.457   .     S
C969   O999    1.290   .     A
C970   O1001   1.287   .     A
C970   O1000   1.293   .     A
C970   C973    1.459   .     S
C971   C981    1.422   .     A
C971   C1003   1.532   .     S
C971   C973    1.414   .     A
C972   C974    1.411   .     A
C972   C1010   1.534   .     S
C972   C982    1.419   .     A
C973   C975    1.389   .     A
C974   C976    1.390   .     A
C975   H987    1.080   .     S
C975   C977    1.394   .     A
C976   H988    1.079   .     S
C976   C978    1.396   .     A
C977   C983    1.418   .     A
C977   C979    1.418   .     A
C978   C980    1.416   .     A
C978   C984    1.416   .     A
C979   C981    1.425   .     A
C979   C26     1.411   1_556 S
C980   C982    1.423   .     A
C983   C1017   1.524   .     S
C983   C3      1.400   1_556 S
C984   C1024   1.525   .     S
Cu985  O997    1.970   .     S
Cu985  O1001   1.966   .     S
Cu985  Cu986   2.671   .     S
Cu985  O995    1.972   .     S
Cu985  N993    2.007   .     S
Cu985  O999    1.966   .     S
Cu986  O1002   1.966   .     S
Cu986  O998    1.970   .     S
Cu986  O1000   1.966   .     S
Cu986  N994    2.007   .     S
Cu986  O996    1.972   .     S
C1003  H1008   1.111   .     S
C1003  H1009   1.109   .     S
C1003  C1004   1.535   .     S
C1004  H1006   1.110   .     S
C1004  H1007   1.110   .     S
C1004  H1005   1.110   .     S
C1010  C1011   1.532   .     S
C1010  H1016   1.109   .     S
C1010  H1015   1.103   .     S
C1011  H1013   1.111   .     S
C1011  H1014   1.111   .     S
C1011  H1012   1.106   .     S
C1017  H1023   1.110   .     S
C1017  C1018   1.528   .     S
C1017  H1022   1.111   .     S
C1018  H1021   1.110   .     S
C1018  H1020   1.109   .     S
C1018  H1655   1.110   1_545 S
H1019  C1336   1.110   .     S
C1024  C1025   1.529   .     S
C1024  H1030   1.110   .     S
C1024  H1029   1.107   .     S
C1025  H1028   1.110   .     S
C1025  H1026   1.109   .     S
C1025  H1345   1.110   .     S
H1027  C1661   1.110   1_545 S
C1033  H1038   1.107   .     S
C1033  H1039   1.109   .     S
C1033  C1034   1.531   .     S
C1034  H1037   1.104   .     S
C1034  H1036   1.108   .     S
C1034  H1035   1.108   .     S
C1040  H1045   1.108   .     S
C1040  C1041   1.528   .     S
C1040  H1046   1.111   .     S
C1041  H1042   1.107   .     S
C1041  H1043   1.109   .     S
C1041  H1044   1.111   .     S
C1047  C1048   1.526   .     S
C1047  H1053   1.100   .     S
C1047  H1052   1.105   .     S
C1048  H1049   1.111   .     S
C1048  H1051   1.111   .     S
C1048  H1050   1.102   .     S
C1054  H1059   1.108   .     S
C1054  H1060   1.110   .     S
C1054  C1055   1.533   .     S
C1055  H1056   1.109   .     S
C1055  H1057   1.110   .     S
C1055  H1058   1.111   .     S
C1061  O1104   1.295   .     A
C1061  O1101   1.295   .     A
C1061  C1070   1.477   .     S
C1062  O1103   1.300   .     A
C1062  O1102   1.287   .     A
C1062  C1069   1.475   .     S
C1063  C1088   1.409   .     A
C1063  F1137   1.359   .     S
C1064  F1138   1.355   .     S
C1064  C1087   1.414   .     A
C1064  C136    1.399   1_556 S
C1065  C1139   1.525   .     S
C1065  C1070   1.419   .     A
C1066  C1069   1.421   .     A
C1066  C1146   1.530   .     S
C1066  C1174   1.391   .     S
C1067  C1153   1.542   .     S
C1067  C1069   1.442   .     A
C1067  C1171   1.422   .     S
C1068  C1160   1.524   .     S
C1068  C1070   1.404   .     A
C1071  H1095   1.081   .     S
C1071  N1100   1.367   .     A
C1071  C1710   1.414   1_545 S
C1072  H1096   1.080   .     S
C1072  N1099   1.365   .     A
C1072  C1391   1.412   .     S
C1073  N1100   1.366   .     A
C1073  H1097   1.080   .     S
C1073  C1708   1.412   1_545 S
C1074  N1099   1.367   .     A
C1074  H1098   1.082   .     S
C1074  C1389   1.414   .     S
C1075  O1108   1.289   .     A
C1075  C1080   1.457   .     S
C1075  O1105   1.290   .     A
C1076  O1107   1.287   .     A
C1076  O1106   1.293   .     A
C1076  C1079   1.459   .     S
C1077  C1087   1.422   .     A
C1077  C1109   1.532   .     S
C1077  C1079   1.414   .     A
C1078  C1080   1.411   .     A
C1078  C1116   1.534   .     S
C1078  C1088   1.419   .     A
C1079  C1081   1.389   .     A
C1080  C1082   1.390   .     A
C1081  H1093   1.080   .     S
C1081  C1083   1.394   .     A
C1082  H1094   1.079   .     S
C1082  C1084   1.396   .     A
C1083  C1089   1.418   .     A
C1083  C1085   1.418   .     A
C1084  C1086   1.416   .     A
C1084  C1090   1.416   .     A
C1085  C1087   1.425   .     A
C1085  C132    1.411   1_556 S
C1086  C1088   1.423   .     A
C1089  C1123   1.524   .     S
C1089  C109    1.400   1_556 S
C1090  C1130   1.525   .     S
Cu1091 O1103   1.970   .     S
Cu1091 O1107   1.966   .     S
Cu1091 Cu1092  2.671   .     S
Cu1091 O1101   1.972   .     S
Cu1091 N1099   2.007   .     S
Cu1091 O1105   1.966   .     S
Cu1092 O1108   1.966   .     S
Cu1092 O1104   1.970   .     S
Cu1092 O1106   1.966   .     S
Cu1092 N1100   2.007   .     S
Cu1092 O1102   1.972   .     S
C1109  H1114   1.111   .     S
C1109  H1115   1.109   .     S
C1109  C1110   1.535   .     S
C1110  H1112   1.110   .     S
C1110  H1113   1.110   .     S
C1110  H1111   1.110   .     S
C1116  C1117   1.532   .     S
C1116  H1122   1.109   .     S
C1116  H1121   1.103   .     S
C1117  H1119   1.111   .     S
C1117  H1120   1.111   .     S
C1117  H1118   1.106   .     S
C1123  H1129   1.110   .     S
C1123  C1124   1.528   .     S
C1123  H1128   1.111   .     S
C1124  H1127   1.110   .     S
C1124  H1126   1.109   .     S
C1124  H1761   1.110   1_545 S
H1125  C1442   1.110   .     S
C1130  C1131   1.529   .     S
C1130  H1136   1.110   .     S
C1130  H1135   1.107   .     S
C1131  H1134   1.110   .     S
C1131  H1132   1.109   .     S
C1131  H1451   1.110   .     S
H1133  C1767   1.110   1_545 S
C1139  H1144   1.107   .     S
C1139  H1145   1.109   .     S
C1139  C1140   1.531   .     S
C1140  H1143   1.104   .     S
C1140  H1142   1.108   .     S
C1140  H1141   1.108   .     S
C1146  H1151   1.108   .     S
C1146  C1147   1.528   .     S
C1146  H1152   1.111   .     S
C1147  H1148   1.107   .     S
C1147  H1149   1.109   .     S
C1147  H1150   1.111   .     S
C1153  C1154   1.526   .     S
C1153  H1159   1.100   .     S
C1153  H1158   1.105   .     S
C1154  H1155   1.111   .     S
C1154  H1157   1.111   .     S
C1154  H1156   1.102   .     S
C1160  H1165   1.108   .     S
C1160  H1166   1.110   .     S
C1160  C1161   1.533   .     S
C1161  H1162   1.109   .     S
C1161  H1163   1.110   .     S
C1161  H1164   1.111   .     S
C1167  O1210   1.295   .     A
C1167  O1207   1.295   .     A
C1167  C1176   1.477   .     S
C1168  O1209   1.300   .     A
C1168  O1208   1.287   .     A
C1168  C1175   1.475   .     S
C1169  C1194   1.409   .     A
C1169  F1243   1.359   .     S
C1170  F1244   1.355   .     S
C1170  C1193   1.414   .     A
C1170  C242    1.399   1_556 S
C1171  C1245   1.525   .     S
C1171  C1176   1.419   .     A
C1172  C1175   1.421   .     A
C1172  C1252   1.530   .     S
C1172  C962    1.391   1_655 S
C1173  C1259   1.542   .     S
C1173  C1175   1.442   .     A
C1173  C959    1.422   1_655 S
C1174  C1266   1.524   .     S
C1174  C1176   1.404   .     A
C1177  H1201   1.081   .     S
C1177  N1206   1.367   .     A
C1177  C1816   1.414   1_545 S
C1178  H1202   1.080   .     S
C1178  N1205   1.365   .     A
C1178  C1497   1.412   .     S
C1179  N1206   1.366   .     A
C1179  H1203   1.080   .     S
C1179  C1814   1.412   1_545 S
C1180  N1205   1.367   .     A
C1180  H1204   1.082   .     S
C1180  C1495   1.414   .     S
C1181  O1214   1.289   .     A
C1181  C1186   1.457   .     S
C1181  O1211   1.290   .     A
C1182  O1213   1.287   .     A
C1182  O1212   1.293   .     A
C1182  C1185   1.459   .     S
C1183  C1193   1.422   .     A
C1183  C1215   1.532   .     S
C1183  C1185   1.414   .     A
C1184  C1186   1.411   .     A
C1184  C1222   1.534   .     S
C1184  C1194   1.419   .     A
C1185  C1187   1.389   .     A
C1186  C1188   1.390   .     A
C1187  H1199   1.080   .     S
C1187  C1189   1.394   .     A
C1188  H1200   1.079   .     S
C1188  C1190   1.396   .     A
C1189  C1195   1.418   .     A
C1189  C1191   1.418   .     A
C1190  C1192   1.416   .     A
C1190  C1196   1.416   .     A
C1191  C1193   1.425   .     A
C1191  C238    1.411   1_556 S
C1192  C1194   1.423   .     A
C1195  C1229   1.524   .     S
C1195  C215    1.400   1_556 S
C1196  C1236   1.525   .     S
Cu1197 O1209   1.970   .     S
Cu1197 O1213   1.966   .     S
Cu1197 Cu1198  2.671   .     S
Cu1197 O1207   1.972   .     S
Cu1197 N1205   2.007   .     S
Cu1197 O1211   1.966   .     S
Cu1198 O1214   1.966   .     S
Cu1198 O1210   1.970   .     S
Cu1198 O1212   1.966   .     S
Cu1198 N1206   2.007   .     S
Cu1198 O1208   1.972   .     S
C1215  H1220   1.111   .     S
C1215  H1221   1.109   .     S
C1215  C1216   1.535   .     S
C1216  H1218   1.110   .     S
C1216  H1219   1.110   .     S
C1216  H1217   1.110   .     S
C1222  C1223   1.532   .     S
C1222  H1228   1.109   .     S
C1222  H1227   1.103   .     S
C1223  H1225   1.111   .     S
C1223  H1226   1.111   .     S
C1223  H1224   1.106   .     S
C1229  H1235   1.110   .     S
C1229  C1230   1.528   .     S
C1229  H1234   1.111   .     S
C1230  H1233   1.110   .     S
C1230  H1232   1.109   .     S
C1230  H1867   1.110   1_545 S
H1231  C1548   1.110   .     S
C1236  C1237   1.529   .     S
C1236  H1242   1.110   .     S
C1236  H1241   1.107   .     S
C1237  H1240   1.110   .     S
C1237  H1238   1.109   .     S
C1237  H1557   1.110   .     S
H1239  C1873   1.110   1_545 S
C1245  H1250   1.107   .     S
C1245  H1251   1.109   .     S
C1245  C1246   1.531   .     S
C1246  H1249   1.104   .     S
C1246  H1248   1.108   .     S
C1246  H1247   1.108   .     S
C1252  H1257   1.108   .     S
C1252  C1253   1.528   .     S
C1252  H1258   1.111   .     S
C1253  H1254   1.107   .     S
C1253  H1255   1.109   .     S
C1253  H1256   1.111   .     S
C1259  C1260   1.526   .     S
C1259  H1265   1.100   .     S
C1259  H1264   1.105   .     S
C1260  H1261   1.111   .     S
C1260  H1263   1.111   .     S
C1260  H1262   1.102   .     S
C1266  H1271   1.108   .     S
C1266  H1272   1.110   .     S
C1266  C1267   1.533   .     S
C1267  H1268   1.109   .     S
C1267  H1269   1.110   .     S
C1267  H1270   1.111   .     S
C1273  O1316   1.295   .     A
C1273  O1313   1.295   .     A
C1273  C1282   1.477   .     S
C1274  O1315   1.300   .     A
C1274  O1314   1.287   .     A
C1274  C1281   1.475   .     S
C1275  C1300   1.409   .     A
C1275  F1349   1.359   .     S
C1276  F1350   1.355   .     S
C1276  C1299   1.414   .     A
C1276  C348    1.399   1_556 S
C1277  C1351   1.525   .     S
C1277  C1282   1.419   .     A
C1277  C1491   1.422   1_455 S
C1278  C1281   1.421   .     A
C1278  C1358   1.530   .     S
C1278  C1386   1.391   .     S
C1279  C1365   1.542   .     S
C1279  C1281   1.442   .     A
C1279  C1383   1.422   .     S
C1280  C1372   1.524   .     S
C1280  C1282   1.404   .     A
C1280  C1490   1.391   1_455 S
C1283  H1307   1.081   .     S
C1283  N1312   1.367   .     A
C1284  H1308   1.080   .     S
C1284  N1311   1.365   .     A
C1284  C1603   1.412   .     S
C1285  N1312   1.366   .     A
C1285  H1309   1.080   .     S
C1286  N1311   1.367   .     A
C1286  H1310   1.082   .     S
C1286  C1601   1.414   .     S
C1287  O1320   1.289   .     A
C1287  C1292   1.457   .     S
C1287  O1317   1.290   .     A
C1288  O1319   1.287   .     A
C1288  O1318   1.293   .     A
C1288  C1291   1.459   .     S
C1289  C1299   1.422   .     A
C1289  C1321   1.532   .     S
C1289  C1291   1.414   .     A
C1290  C1292   1.411   .     A
C1290  C1328   1.534   .     S
C1290  C1300   1.419   .     A
C1291  C1293   1.389   .     A
C1292  C1294   1.390   .     A
C1293  H1305   1.080   .     S
C1293  C1295   1.394   .     A
C1294  H1306   1.079   .     S
C1294  C1296   1.396   .     A
C1295  C1301   1.418   .     A
C1295  C1297   1.418   .     A
C1296  C1298   1.416   .     A
C1296  C1302   1.416   .     A
C1297  C1299   1.425   .     A
C1297  C344    1.411   1_556 S
C1298  C1300   1.423   .     A
C1301  C1335   1.524   .     S
C1301  C321    1.400   1_556 S
C1302  C1342   1.525   .     S
Cu1303 O1315   1.970   .     S
Cu1303 O1319   1.966   .     S
Cu1303 Cu1304  2.671   .     S
Cu1303 O1313   1.972   .     S
Cu1303 N1311   2.007   .     S
Cu1303 O1317   1.966   .     S
Cu1304 O1320   1.966   .     S
Cu1304 O1316   1.970   .     S
Cu1304 O1318   1.966   .     S
Cu1304 N1312   2.007   .     S
Cu1304 O1314   1.972   .     S
C1321  H1326   1.111   .     S
C1321  H1327   1.109   .     S
C1321  C1322   1.535   .     S
C1322  H1324   1.110   .     S
C1322  H1325   1.110   .     S
C1322  H1323   1.110   .     S
C1328  C1329   1.532   .     S
C1328  H1334   1.109   .     S
C1328  H1333   1.103   .     S
C1329  H1331   1.111   .     S
C1329  H1332   1.111   .     S
C1329  H1330   1.106   .     S
C1335  H1341   1.110   .     S
C1335  C1336   1.528   .     S
C1335  H1340   1.111   .     S
C1336  H1339   1.110   .     S
C1336  H1338   1.109   .     S
H1337  C1654   1.110   .     S
C1342  C1343   1.529   .     S
C1342  H1348   1.110   .     S
C1342  H1347   1.107   .     S
C1343  H1346   1.110   .     S
C1343  H1344   1.109   .     S
C1343  H1663   1.110   .     S
C1351  H1356   1.107   .     S
C1351  H1357   1.109   .     S
C1351  C1352   1.531   .     S
C1352  H1355   1.104   .     S
C1352  H1354   1.108   .     S
C1352  H1353   1.108   .     S
C1358  H1363   1.108   .     S
C1358  C1359   1.528   .     S
C1358  H1364   1.111   .     S
C1359  H1360   1.107   .     S
C1359  H1361   1.109   .     S
C1359  H1362   1.111   .     S
C1365  C1366   1.526   .     S
C1365  H1371   1.100   .     S
C1365  H1370   1.105   .     S
C1366  H1367   1.111   .     S
C1366  H1369   1.111   .     S
C1366  H1368   1.102   .     S
C1372  H1377   1.108   .     S
C1372  H1378   1.110   .     S
C1372  C1373   1.533   .     S
C1373  H1374   1.109   .     S
C1373  H1375   1.110   .     S
C1373  H1376   1.111   .     S
C1379  O1422   1.295   .     A
C1379  O1419   1.295   .     A
C1379  C1388   1.477   .     S
C1380  O1421   1.300   .     A
C1380  O1420   1.287   .     A
C1380  C1387   1.475   .     S
C1381  C1406   1.409   .     A
C1381  F1455   1.359   .     S
C1382  F1456   1.355   .     S
C1382  C1405   1.414   .     A
C1382  C454    1.399   1_556 S
C1383  C1457   1.525   .     S
C1383  C1388   1.419   .     A
C1384  C1387   1.421   .     A
C1384  C1464   1.530   .     S
C1384  C1492   1.391   .     S
C1385  C1471   1.542   .     S
C1385  C1387   1.442   .     A
C1385  C1489   1.422   .     S
C1386  C1478   1.524   .     S
C1386  C1388   1.404   .     A
C1389  H1413   1.081   .     S
C1389  N1418   1.367   .     A
C1390  H1414   1.080   .     S
C1390  N1417   1.365   .     A
C1390  C1709   1.412   .     S
C1391  N1418   1.366   .     A
C1391  H1415   1.080   .     S
C1392  N1417   1.367   .     A
C1392  H1416   1.082   .     S
C1392  C1707   1.414   .     S
C1393  O1426   1.289   .     A
C1393  C1398   1.457   .     S
C1393  O1423   1.290   .     A
C1394  O1425   1.287   .     A
C1394  O1424   1.293   .     A
C1394  C1397   1.459   .     S
C1395  C1405   1.422   .     A
C1395  C1427   1.532   .     S
C1395  C1397   1.414   .     A
C1396  C1398   1.411   .     A
C1396  C1434   1.534   .     S
C1396  C1406   1.419   .     A
C1397  C1399   1.389   .     A
C1398  C1400   1.390   .     A
C1399  H1411   1.080   .     S
C1399  C1401   1.394   .     A
C1400  H1412   1.079   .     S
C1400  C1402   1.396   .     A
C1401  C1407   1.418   .     A
C1401  C1403   1.418   .     A
C1402  C1404   1.416   .     A
C1402  C1408   1.416   .     A
C1403  C1405   1.425   .     A
C1403  C450    1.411   1_556 S
C1404  C1406   1.423   .     A
C1407  C1441   1.524   .     S
C1407  C427    1.400   1_556 S
C1408  C1448   1.525   .     S
Cu1409 O1421   1.970   .     S
Cu1409 O1425   1.966   .     S
Cu1409 Cu1410  2.671   .     S
Cu1409 O1419   1.972   .     S
Cu1409 N1417   2.007   .     S
Cu1409 O1423   1.966   .     S
Cu1410 O1426   1.966   .     S
Cu1410 O1422   1.970   .     S
Cu1410 O1424   1.966   .     S
Cu1410 N1418   2.007   .     S
Cu1410 O1420   1.972   .     S
C1427  H1432   1.111   .     S
C1427  H1433   1.109   .     S
C1427  C1428   1.535   .     S
C1428  H1430   1.110   .     S
C1428  H1431   1.110   .     S
C1428  H1429   1.110   .     S
C1434  C1435   1.532   .     S
C1434  H1440   1.109   .     S
C1434  H1439   1.103   .     S
C1435  H1437   1.111   .     S
C1435  H1438   1.111   .     S
C1435  H1436   1.106   .     S
C1441  H1447   1.110   .     S
C1441  C1442   1.528   .     S
C1441  H1446   1.111   .     S
C1442  H1445   1.110   .     S
C1442  H1444   1.109   .     S
H1443  C1760   1.110   .     S
C1448  C1449   1.529   .     S
C1448  H1454   1.110   .     S
C1448  H1453   1.107   .     S
C1449  H1452   1.110   .     S
C1449  H1450   1.109   .     S
C1449  H1769   1.110   .     S
C1457  H1462   1.107   .     S
C1457  H1463   1.109   .     S
C1457  C1458   1.531   .     S
C1458  H1461   1.104   .     S
C1458  H1460   1.108   .     S
C1458  H1459   1.108   .     S
C1464  H1469   1.108   .     S
C1464  C1465   1.528   .     S
C1464  H1470   1.111   .     S
C1465  H1466   1.107   .     S
C1465  H1467   1.109   .     S
C1465  H1468   1.111   .     S
C1471  C1472   1.526   .     S
C1471  H1477   1.100   .     S
C1471  H1476   1.105   .     S
C1472  H1473   1.111   .     S
C1472  H1475   1.111   .     S
C1472  H1474   1.102   .     S
C1478  H1483   1.108   .     S
C1478  H1484   1.110   .     S
C1478  C1479   1.533   .     S
C1479  H1480   1.109   .     S
C1479  H1481   1.110   .     S
C1479  H1482   1.111   .     S
C1485  O1528   1.295   .     A
C1485  O1525   1.295   .     A
C1485  C1494   1.477   .     S
C1486  O1527   1.300   .     A
C1486  O1526   1.287   .     A
C1486  C1493   1.475   .     S
C1487  C1512   1.409   .     A
C1487  F1561   1.359   .     S
C1488  F1562   1.355   .     S
C1488  C1511   1.414   .     A
C1488  C560    1.399   1_556 S
C1489  C1563   1.525   .     S
C1489  C1494   1.419   .     A
C1490  C1493   1.421   .     A
C1490  C1570   1.530   .     S
C1490  C1280   1.391   1_655 S
C1491  C1577   1.542   .     S
C1491  C1493   1.442   .     A
C1491  C1277   1.422   1_655 S
C1492  C1584   1.524   .     S
C1492  C1494   1.404   .     A
C1495  H1519   1.081   .     S
C1495  N1524   1.367   .     A
C1496  H1520   1.080   .     S
C1496  N1523   1.365   .     A
C1496  C1815   1.412   .     S
C1497  N1524   1.366   .     A
C1497  H1521   1.080   .     S
C1498  N1523   1.367   .     A
C1498  H1522   1.082   .     S
C1498  C1813   1.414   .     S
C1499  O1532   1.289   .     A
C1499  C1504   1.457   .     S
C1499  O1529   1.290   .     A
C1500  O1531   1.287   .     A
C1500  O1530   1.293   .     A
C1500  C1503   1.459   .     S
C1501  C1511   1.422   .     A
C1501  C1533   1.532   .     S
C1501  C1503   1.414   .     A
C1502  C1504   1.411   .     A
C1502  C1540   1.534   .     S
C1502  C1512   1.419   .     A
C1503  C1505   1.389   .     A
C1504  C1506   1.390   .     A
C1505  H1517   1.080   .     S
C1505  C1507   1.394   .     A
C1506  H1518   1.079   .     S
C1506  C1508   1.396   .     A
C1507  C1513   1.418   .     A
C1507  C1509   1.418   .     A
C1508  C1510   1.416   .     A
C1508  C1514   1.416   .     A
C1509  C1511   1.425   .     A
C1509  C556    1.411   1_556 S
C1510  C1512   1.423   .     A
C1513  C1547   1.524   .     S
C1513  C533    1.400   1_556 S
C1514  C1554   1.525   .     S
Cu1515 O1527   1.970   .     S
Cu1515 O1531   1.966   .     S
Cu1515 Cu1516  2.671   .     S
Cu1515 O1525   1.972   .     S
Cu1515 N1523   2.007   .     S
Cu1515 O1529   1.966   .     S
Cu1516 O1532   1.966   .     S
Cu1516 O1528   1.970   .     S
Cu1516 O1530   1.966   .     S
Cu1516 N1524   2.007   .     S
Cu1516 O1526   1.972   .     S
C1533  H1538   1.111   .     S
C1533  H1539   1.109   .     S
C1533  C1534   1.535   .     S
C1534  H1536   1.110   .     S
C1534  H1537   1.110   .     S
C1534  H1535   1.110   .     S
C1540  C1541   1.532   .     S
C1540  H1546   1.109   .     S
C1540  H1545   1.103   .     S
C1541  H1543   1.111   .     S
C1541  H1544   1.111   .     S
C1541  H1542   1.106   .     S
C1547  H1553   1.110   .     S
C1547  C1548   1.528   .     S
C1547  H1552   1.111   .     S
C1548  H1551   1.110   .     S
C1548  H1550   1.109   .     S
H1549  C1866   1.110   .     S
C1554  C1555   1.529   .     S
C1554  H1560   1.110   .     S
C1554  H1559   1.107   .     S
C1555  H1558   1.110   .     S
C1555  H1556   1.109   .     S
C1555  H1875   1.110   .     S
C1563  H1568   1.107   .     S
C1563  H1569   1.109   .     S
C1563  C1564   1.531   .     S
C1564  H1567   1.104   .     S
C1564  H1566   1.108   .     S
C1564  H1565   1.108   .     S
C1570  H1575   1.108   .     S
C1570  C1571   1.528   .     S
C1570  H1576   1.111   .     S
C1571  H1572   1.107   .     S
C1571  H1573   1.109   .     S
C1571  H1574   1.111   .     S
C1577  C1578   1.526   .     S
C1577  H1583   1.100   .     S
C1577  H1582   1.105   .     S
C1578  H1579   1.111   .     S
C1578  H1581   1.111   .     S
C1578  H1580   1.102   .     S
C1584  H1589   1.108   .     S
C1584  H1590   1.110   .     S
C1584  C1585   1.533   .     S
C1585  H1586   1.109   .     S
C1585  H1587   1.110   .     S
C1585  H1588   1.111   .     S
C1591  O1634   1.295   .     A
C1591  O1631   1.295   .     A
C1591  C1600   1.477   .     S
C1592  O1633   1.300   .     A
C1592  O1632   1.287   .     A
C1592  C1599   1.475   .     S
C1593  C1618   1.409   .     A
C1593  F1667   1.359   .     S
C1594  F1668   1.355   .     S
C1594  C1617   1.414   .     A
C1594  C666    1.399   1_556 S
C1595  C1669   1.525   .     S
C1595  C1600   1.419   .     A
C1595  C1809   1.422   1_455 S
C1596  C1599   1.421   .     A
C1596  C1676   1.530   .     S
C1596  C1704   1.391   .     S
C1597  C1683   1.542   .     S
C1597  C1599   1.442   .     A
C1597  C1701   1.422   .     S
C1598  C1690   1.524   .     S
C1598  C1600   1.404   .     A
C1598  C1808   1.391   1_455 S
C1601  H1625   1.081   .     S
C1601  N1630   1.367   .     A
C1602  H1626   1.080   .     S
C1602  N1629   1.365   .     A
C1602  C967    1.412   1_565 S
C1603  N1630   1.366   .     A
C1603  H1627   1.080   .     S
C1604  N1629   1.367   .     A
C1604  H1628   1.082   .     S
C1604  C965    1.414   1_565 S
C1605  O1638   1.289   .     A
C1605  C1610   1.457   .     S
C1605  O1635   1.290   .     A
C1606  O1637   1.287   .     A
C1606  O1636   1.293   .     A
C1606  C1609   1.459   .     S
C1607  C1617   1.422   .     A
C1607  C1639   1.532   .     S
C1607  C1609   1.414   .     A
C1608  C1610   1.411   .     A
C1608  C1646   1.534   .     S
C1608  C1618   1.419   .     A
C1609  C1611   1.389   .     A
C1610  C1612   1.390   .     A
C1611  H1623   1.080   .     S
C1611  C1613   1.394   .     A
C1612  H1624   1.079   .     S
C1612  C1614   1.396   .     A
C1613  C1619   1.418   .     A
C1613  C1615   1.418   .     A
C1614  C1616   1.416   .     A
C1614  C1620   1.416   .     A
C1615  C1617   1.425   .     A
C1615  C662    1.411   1_556 S
C1616  C1618   1.423   .     A
C1619  C1653   1.524   .     S
C1619  C639    1.400   1_556 S
C1620  C1660   1.525   .     S
Cu1621 O1633   1.970   .     S
Cu1621 O1637   1.966   .     S
Cu1621 Cu1622  2.671   .     S
Cu1621 O1631   1.972   .     S
Cu1621 N1629   2.007   .     S
Cu1621 O1635   1.966   .     S
Cu1622 O1638   1.966   .     S
Cu1622 O1634   1.970   .     S
Cu1622 O1636   1.966   .     S
Cu1622 N1630   2.007   .     S
Cu1622 O1632   1.972   .     S
C1639  H1644   1.111   .     S
C1639  H1645   1.109   .     S
C1639  C1640   1.535   .     S
C1640  H1642   1.110   .     S
C1640  H1643   1.110   .     S
C1640  H1641   1.110   .     S
C1646  C1647   1.532   .     S
C1646  H1652   1.109   .     S
C1646  H1651   1.103   .     S
C1647  H1649   1.111   .     S
C1647  H1650   1.111   .     S
C1647  H1648   1.106   .     S
C1653  H1659   1.110   .     S
C1653  C1654   1.528   .     S
C1653  H1658   1.111   .     S
C1654  H1657   1.110   .     S
C1654  H1656   1.109   .     S
H1655  C1018   1.110   1_565 S
C1660  C1661   1.529   .     S
C1660  H1666   1.110   .     S
C1660  H1665   1.107   .     S
C1661  H1664   1.110   .     S
C1661  H1662   1.109   .     S
C1661  H1027   1.110   1_565 S
C1669  H1674   1.107   .     S
C1669  H1675   1.109   .     S
C1669  C1670   1.531   .     S
C1670  H1673   1.104   .     S
C1670  H1672   1.108   .     S
C1670  H1671   1.108   .     S
C1676  H1681   1.108   .     S
C1676  C1677   1.528   .     S
C1676  H1682   1.111   .     S
C1677  H1678   1.107   .     S
C1677  H1679   1.109   .     S
C1677  H1680   1.111   .     S
C1683  C1684   1.526   .     S
C1683  H1689   1.100   .     S
C1683  H1688   1.105   .     S
C1684  H1685   1.111   .     S
C1684  H1687   1.111   .     S
C1684  H1686   1.102   .     S
C1690  H1695   1.108   .     S
C1690  H1696   1.110   .     S
C1690  C1691   1.533   .     S
C1691  H1692   1.109   .     S
C1691  H1693   1.110   .     S
C1691  H1694   1.111   .     S
C1697  O1740   1.295   .     A
C1697  O1737   1.295   .     A
C1697  C1706   1.477   .     S
C1698  O1739   1.300   .     A
C1698  O1738   1.287   .     A
C1698  C1705   1.475   .     S
C1699  C1724   1.409   .     A
C1699  F1773   1.359   .     S
C1700  F1774   1.355   .     S
C1700  C1723   1.414   .     A
C1700  C772    1.399   1_556 S
C1701  C1775   1.525   .     S
C1701  C1706   1.419   .     A
C1702  C1705   1.421   .     A
C1702  C1782   1.530   .     S
C1702  C1810   1.391   .     S
C1703  C1789   1.542   .     S
C1703  C1705   1.442   .     A
C1703  C1807   1.422   .     S
C1704  C1796   1.524   .     S
C1704  C1706   1.404   .     A
C1707  H1731   1.081   .     S
C1707  N1736   1.367   .     A
C1708  H1732   1.080   .     S
C1708  N1735   1.365   .     A
C1708  C1073   1.412   1_565 S
C1709  N1736   1.366   .     A
C1709  H1733   1.080   .     S
C1710  N1735   1.367   .     A
C1710  H1734   1.082   .     S
C1710  C1071   1.414   1_565 S
C1711  O1744   1.289   .     A
C1711  C1716   1.457   .     S
C1711  O1741   1.290   .     A
C1712  O1743   1.287   .     A
C1712  O1742   1.293   .     A
C1712  C1715   1.459   .     S
C1713  C1723   1.422   .     A
C1713  C1745   1.532   .     S
C1713  C1715   1.414   .     A
C1714  C1716   1.411   .     A
C1714  C1752   1.534   .     S
C1714  C1724   1.419   .     A
C1715  C1717   1.389   .     A
C1716  C1718   1.390   .     A
C1717  H1729   1.080   .     S
C1717  C1719   1.394   .     A
C1718  H1730   1.079   .     S
C1718  C1720   1.396   .     A
C1719  C1725   1.418   .     A
C1719  C1721   1.418   .     A
C1720  C1722   1.416   .     A
C1720  C1726   1.416   .     A
C1721  C1723   1.425   .     A
C1721  C768    1.411   1_556 S
C1722  C1724   1.423   .     A
C1725  C1759   1.524   .     S
C1725  C745    1.400   1_556 S
C1726  C1766   1.525   .     S
Cu1727 O1739   1.970   .     S
Cu1727 O1743   1.966   .     S
Cu1727 Cu1728  2.671   .     S
Cu1727 O1737   1.972   .     S
Cu1727 N1735   2.007   .     S
Cu1727 O1741   1.966   .     S
Cu1728 O1744   1.966   .     S
Cu1728 O1740   1.970   .     S
Cu1728 O1742   1.966   .     S
Cu1728 N1736   2.007   .     S
Cu1728 O1738   1.972   .     S
C1745  H1750   1.111   .     S
C1745  H1751   1.109   .     S
C1745  C1746   1.535   .     S
C1746  H1748   1.110   .     S
C1746  H1749   1.110   .     S
C1746  H1747   1.110   .     S
C1752  C1753   1.532   .     S
C1752  H1758   1.109   .     S
C1752  H1757   1.103   .     S
C1753  H1755   1.111   .     S
C1753  H1756   1.111   .     S
C1753  H1754   1.106   .     S
C1759  H1765   1.110   .     S
C1759  C1760   1.528   .     S
C1759  H1764   1.111   .     S
C1760  H1763   1.110   .     S
C1760  H1762   1.109   .     S
H1761  C1124   1.110   1_565 S
C1766  C1767   1.529   .     S
C1766  H1772   1.110   .     S
C1766  H1771   1.107   .     S
C1767  H1770   1.110   .     S
C1767  H1768   1.109   .     S
C1767  H1133   1.110   1_565 S
C1775  H1780   1.107   .     S
C1775  H1781   1.109   .     S
C1775  C1776   1.531   .     S
C1776  H1779   1.104   .     S
C1776  H1778   1.108   .     S
C1776  H1777   1.108   .     S
C1782  H1787   1.108   .     S
C1782  C1783   1.528   .     S
C1782  H1788   1.111   .     S
C1783  H1784   1.107   .     S
C1783  H1785   1.109   .     S
C1783  H1786   1.111   .     S
C1789  C1790   1.526   .     S
C1789  H1795   1.100   .     S
C1789  H1794   1.105   .     S
C1790  H1791   1.111   .     S
C1790  H1793   1.111   .     S
C1790  H1792   1.102   .     S
C1796  H1801   1.108   .     S
C1796  H1802   1.110   .     S
C1796  C1797   1.533   .     S
C1797  H1798   1.109   .     S
C1797  H1799   1.110   .     S
C1797  H1800   1.111   .     S
C1803  O1846   1.295   .     A
C1803  O1843   1.295   .     A
C1803  C1812   1.477   .     S
C1804  O1845   1.300   .     A
C1804  O1844   1.287   .     A
C1804  C1811   1.475   .     S
C1805  C1830   1.409   .     A
C1805  F1879   1.359   .     S
C1806  F1880   1.355   .     S
C1806  C1829   1.414   .     A
C1806  C878    1.399   1_556 S
C1807  C1881   1.525   .     S
C1807  C1812   1.419   .     A
C1808  C1811   1.421   .     A
C1808  C1888   1.530   .     S
C1808  C1598   1.391   1_655 S
C1809  C1895   1.542   .     S
C1809  C1811   1.442   .     A
C1809  C1595   1.422   1_655 S
C1810  C1902   1.524   .     S
C1810  C1812   1.404   .     A
C1813  H1837   1.081   .     S
C1813  N1842   1.367   .     A
C1814  H1838   1.080   .     S
C1814  N1841   1.365   .     A
C1814  C1179   1.412   1_565 S
C1815  N1842   1.366   .     A
C1815  H1839   1.080   .     S
C1816  N1841   1.367   .     A
C1816  H1840   1.082   .     S
C1816  C1177   1.414   1_565 S
C1817  O1850   1.289   .     A
C1817  C1822   1.457   .     S
C1817  O1847   1.290   .     A
C1818  O1849   1.287   .     A
C1818  O1848   1.293   .     A
C1818  C1821   1.459   .     S
C1819  C1829   1.422   .     A
C1819  C1851   1.532   .     S
C1819  C1821   1.414   .     A
C1820  C1822   1.411   .     A
C1820  C1858   1.534   .     S
C1820  C1830   1.419   .     A
C1821  C1823   1.389   .     A
C1822  C1824   1.390   .     A
C1823  H1835   1.080   .     S
C1823  C1825   1.394   .     A
C1824  H1836   1.079   .     S
C1824  C1826   1.396   .     A
C1825  C1831   1.418   .     A
C1825  C1827   1.418   .     A
C1826  C1828   1.416   .     A
C1826  C1832   1.416   .     A
C1827  C1829   1.425   .     A
C1827  C874    1.411   1_556 S
C1828  C1830   1.423   .     A
C1831  C1865   1.524   .     S
C1831  C851    1.400   1_556 S
C1832  C1872   1.525   .     S
Cu1833 O1845   1.970   .     S
Cu1833 O1849   1.966   .     S
Cu1833 Cu1834  2.671   .     S
Cu1833 O1843   1.972   .     S
Cu1833 N1841   2.007   .     S
Cu1833 O1847   1.966   .     S
Cu1834 O1850   1.966   .     S
Cu1834 O1846   1.970   .     S
Cu1834 O1848   1.966   .     S
Cu1834 N1842   2.007   .     S
Cu1834 O1844   1.972   .     S
C1851  H1856   1.111   .     S
C1851  H1857   1.109   .     S
C1851  C1852   1.535   .     S
C1852  H1854   1.110   .     S
C1852  H1855   1.110   .     S
C1852  H1853   1.110   .     S
C1858  C1859   1.532   .     S
C1858  H1864   1.109   .     S
C1858  H1863   1.103   .     S
C1859  H1861   1.111   .     S
C1859  H1862   1.111   .     S
C1859  H1860   1.106   .     S
C1865  H1871   1.110   .     S
C1865  C1866   1.528   .     S
C1865  H1870   1.111   .     S
C1866  H1869   1.110   .     S
C1866  H1868   1.109   .     S
H1867  C1230   1.110   1_565 S
C1872  C1873   1.529   .     S
C1872  H1878   1.110   .     S
C1872  H1877   1.107   .     S
C1873  H1876   1.110   .     S
C1873  H1874   1.109   .     S
C1873  H1239   1.110   1_565 S
C1881  H1886   1.107   .     S
C1881  H1887   1.109   .     S
C1881  C1882   1.531   .     S
C1882  H1885   1.104   .     S
C1882  H1884   1.108   .     S
C1882  H1883   1.108   .     S
C1888  H1893   1.108   .     S
C1888  C1889   1.528   .     S
C1888  H1894   1.111   .     S
C1889  H1890   1.107   .     S
C1889  H1891   1.109   .     S
C1889  H1892   1.111   .     S
C1895  C1896   1.526   .     S
C1895  H1901   1.100   .     S
C1895  H1900   1.105   .     S
C1896  H1897   1.111   .     S
C1896  H1899   1.111   .     S
C1896  H1898   1.102   .     S
C1902  H1907   1.108   .     S
C1902  H1908   1.110   .     S
C1902  C1903   1.533   .     S
C1903  H1904   1.109   .     S
C1903  H1905   1.110   .     S
C1903  H1906   1.111   .     S
