data_str_m2_o1_o10_pcu_sym.134
_audit_creation_date              2020-01-03
_audit_creation_method            'Materials Studio'
_symmetry_space_group_name_H-M    'P1'
_symmetry_Int_Tables_number       1
_symmetry_cell_setting            triclinic
loop_
_symmetry_equiv_pos_as_xyz
  x,y,z
_cell_length_a                    26.1278
_cell_length_b                    32.6185
_cell_length_c                    28.8817
_cell_angle_alpha                 92.4576
_cell_angle_beta                  98.2239
_cell_angle_gamma                 92.3572
loop_
_atom_site_label
_atom_site_type_symbol
_atom_site_fract_x
_atom_site_fract_y
_atom_site_fract_z
_atom_site_U_iso_or_equiv
_atom_site_adp_type
_atom_site_occupancy
C1     C     0.16750   0.08743   0.16568   0.00000  Uiso   1.00
C2     C     0.16872   0.24592   0.16784   0.00000  Uiso   1.00
C3     C     0.06799   0.16641   0.15457   0.00000  Uiso   1.00
C4     C     0.26530   0.16655   0.17874   0.00000  Uiso   1.00
C5     C     0.01251   0.16577   0.14800   0.00000  Uiso   1.00
C6     C     0.32071   0.16646   0.18523   0.00000  Uiso   1.00
C7     C     0.14290   0.01763   0.12757   0.00000  Uiso   1.00
C8     C     0.20900   0.31526   0.19803   0.00000  Uiso   1.00
C9     C     0.13480   0.30939   0.13558   0.00000  Uiso   1.00
C10    C     0.20698   0.02503   0.19782   0.00000  Uiso   1.00
C11    C     0.16967   0.29083   0.16911   0.00000  Uiso   1.00
C12    C     0.17162   0.04274   0.16405   0.00000  Uiso   1.00
C13    C     0.13002   0.14392   0.01872   0.00000  Uiso   1.00
C14    C     0.20285   0.18949   0.31470   0.00000  Uiso   1.00
C15    C     0.13044   0.14347   0.30281   0.00000  Uiso   1.00
C16    C     0.20233   0.19027   0.03048   0.00000  Uiso   1.00
Cu17   Cu    0.16667   0.16667   0.21355   0.00000  Uiso   1.00
Cu18   Cu    0.16667   0.16666   0.11978   0.00000  Uiso   1.00
H19    H     0.32564   0.16479   0.11233   0.00000  Uiso   1.00
H20    H     0.00756   0.16762   0.22090   0.00000  Uiso   1.00
N21    N     0.16668   0.16668   0.28403   0.00000  Uiso   1.00
N22    N     0.16665   0.16666   0.04931   0.00000  Uiso   1.00
O23    O     0.16666   0.10655   0.20625   0.00000  Uiso   1.00
O24    O     0.16667   0.22678   0.12709   0.00000  Uiso   1.00
O25    O     0.16666   0.10654   0.12706   0.00000  Uiso   1.00
O26    O     0.16667   0.22679   0.20628   0.00000  Uiso   1.00
O27    O     0.09161   0.16667   0.19712   0.00000  Uiso   1.00
O28    O     0.24172   0.16666   0.13621   0.00000  Uiso   1.00
O29    O     0.09161   0.16666   0.11793   0.00000  Uiso   1.00
O30    O     0.24172   0.16667   0.21540   0.00000  Uiso   1.00
C31    C     0.14328   0.02820   0.07796   0.00000  Uiso   1.00
C32    C     0.09889   0.02267   0.04413   0.00000  Uiso   1.00
C33    C     0.10274   0.02613   0.32993   0.00000  Uiso   1.00
C34    C     0.15054   0.03561   0.31576   0.00000  Uiso   1.00
C35    C     0.19457   0.04236   0.01575   0.00000  Uiso   1.00
C36    C     0.19118   0.03819   0.06312   0.00000  Uiso   1.00
H37    H     0.06131   0.01601   0.05439   0.00000  Uiso   1.00
H38    H     0.06851   0.02238   0.30403   0.00000  Uiso   1.00
H39    H     0.15322   0.03838   0.27900   0.00000  Uiso   1.00
H40    H     0.23154   0.05018   0.00486   0.00000  Uiso   1.00
H41    H     0.22629   0.04175   0.08819   0.00000  Uiso   1.00
C42    C     0.25681   0.29748   0.22160   0.00000  Uiso   1.00
C43    C     0.27394   0.30616   0.26957   0.00000  Uiso   1.00
C44    C     0.32325   0.29556   0.28974   0.00000  Uiso   1.00
C45    C     0.02244   0.27592   0.26233   0.00000  Uiso   1.00
C46    C     0.00575   0.26704   0.21470   0.00000  Uiso   1.00
C47    C     0.28985   0.27768   0.19439   0.00000  Uiso   1.00
H48    H     0.24925   0.32140   0.29122   0.00000  Uiso   1.00
H49    H     0.00261   0.30218   0.32672   0.00000  Uiso   1.00
H50    H     0.06059   0.26771   0.27797   0.00000  Uiso   1.00
H51    H     0.03131   0.25248   0.19334   0.00000  Uiso   1.00
H52    H     0.27829   0.27196   0.15710   0.00000  Uiso   1.00
Cl53   Cl    0.08336   0.27986   0.10114   0.00000  Uiso   1.00
Cl54   Cl    0.25559   0.05738   0.23254   0.00000  Uiso   1.00
Cl55   Cl    0.07967   0.11617   0.03948   0.00000  Uiso   1.00
Cl56   Cl    0.25212   0.21743   0.29401   0.00000  Uiso   1.00
Cl57   Cl    0.08397   0.11146   0.26634   0.00000  Uiso   1.00
Cl58   Cl    0.24705   0.22398   0.06664   0.00000  Uiso   1.00
C59    C     0.50083   0.08743   0.16568   0.00000  Uiso   1.00
C60    C     0.50205   0.24592   0.16784   0.00000  Uiso   1.00
C61    C     0.40132   0.16641   0.15457   0.00000  Uiso   1.00
C62    C     0.59864   0.16655   0.17874   0.00000  Uiso   1.00
C63    C     0.34584   0.16577   0.14800   0.00000  Uiso   1.00
C64    C     0.65405   0.16646   0.18523   0.00000  Uiso   1.00
C65    C     0.47623   0.01763   0.12757   0.00000  Uiso   1.00
C66    C     0.54233   0.31526   0.19803   0.00000  Uiso   1.00
C67    C     0.46814   0.30939   0.13558   0.00000  Uiso   1.00
C68    C     0.54031   0.02503   0.19782   0.00000  Uiso   1.00
C69    C     0.50300   0.29083   0.16911   0.00000  Uiso   1.00
C70    C     0.50495   0.04274   0.16405   0.00000  Uiso   1.00
C71    C     0.46336   0.14392   0.01872   0.00000  Uiso   1.00
C72    C     0.53618   0.18949   0.31470   0.00000  Uiso   1.00
C73    C     0.46377   0.14347   0.30281   0.00000  Uiso   1.00
C74    C     0.53566   0.19027   0.03048   0.00000  Uiso   1.00
Cu75   Cu    0.50000   0.16667   0.21355   0.00000  Uiso   1.00
Cu76   Cu    0.50000   0.16666   0.11978   0.00000  Uiso   1.00
H77    H     0.65897   0.16479   0.11233   0.00000  Uiso   1.00
H78    H     0.34089   0.16762   0.22090   0.00000  Uiso   1.00
N79    N     0.50001   0.16668   0.28403   0.00000  Uiso   1.00
N80    N     0.49999   0.16666   0.04931   0.00000  Uiso   1.00
O81    O     0.50000   0.10655   0.20625   0.00000  Uiso   1.00
O82    O     0.50000   0.22678   0.12709   0.00000  Uiso   1.00
O83    O     0.50000   0.10654   0.12706   0.00000  Uiso   1.00
O84    O     0.50000   0.22679   0.20628   0.00000  Uiso   1.00
O85    O     0.42495   0.16667   0.19712   0.00000  Uiso   1.00
O86    O     0.57505   0.16666   0.13621   0.00000  Uiso   1.00
O87    O     0.42494   0.16666   0.11793   0.00000  Uiso   1.00
O88    O     0.57506   0.16667   0.21540   0.00000  Uiso   1.00
C89    C     0.47662   0.02820   0.07796   0.00000  Uiso   1.00
C90    C     0.43222   0.02267   0.04413   0.00000  Uiso   1.00
C91    C     0.43607   0.02613   0.32993   0.00000  Uiso   1.00
C92    C     0.48387   0.03561   0.31576   0.00000  Uiso   1.00
C93    C     0.52791   0.04236   0.01575   0.00000  Uiso   1.00
C94    C     0.52452   0.03819   0.06312   0.00000  Uiso   1.00
H95    H     0.39464   0.01601   0.05439   0.00000  Uiso   1.00
H96    H     0.40184   0.02238   0.30403   0.00000  Uiso   1.00
H97    H     0.48656   0.03838   0.27900   0.00000  Uiso   1.00
H98    H     0.56488   0.05018   0.00486   0.00000  Uiso   1.00
H99    H     0.55963   0.04175   0.08819   0.00000  Uiso   1.00
C100   C     0.59015   0.29748   0.22160   0.00000  Uiso   1.00
C101   C     0.60727   0.30616   0.26957   0.00000  Uiso   1.00
C102   C     0.65659   0.29556   0.28974   0.00000  Uiso   1.00
C103   C     0.35578   0.27592   0.26233   0.00000  Uiso   1.00
C104   C     0.33909   0.26704   0.21470   0.00000  Uiso   1.00
C105   C     0.62318   0.27768   0.19439   0.00000  Uiso   1.00
H106   H     0.58258   0.32140   0.29122   0.00000  Uiso   1.00
H107   H     0.33594   0.30218   0.32672   0.00000  Uiso   1.00
H108   H     0.39392   0.26771   0.27797   0.00000  Uiso   1.00
H109   H     0.36465   0.25248   0.19334   0.00000  Uiso   1.00
H110   H     0.61162   0.27196   0.15710   0.00000  Uiso   1.00
Cl111  Cl    0.41670   0.27986   0.10114   0.00000  Uiso   1.00
Cl112  Cl    0.58892   0.05738   0.23254   0.00000  Uiso   1.00
Cl113  Cl    0.41300   0.11617   0.03948   0.00000  Uiso   1.00
Cl114  Cl    0.58545   0.21743   0.29401   0.00000  Uiso   1.00
Cl115  Cl    0.41730   0.11146   0.26634   0.00000  Uiso   1.00
Cl116  Cl    0.58038   0.22398   0.06664   0.00000  Uiso   1.00
C117   C     0.83416   0.08743   0.16568   0.00000  Uiso   1.00
C118   C     0.83538   0.24592   0.16784   0.00000  Uiso   1.00
C119   C     0.73466   0.16641   0.15457   0.00000  Uiso   1.00
C120   C     0.93197   0.16655   0.17874   0.00000  Uiso   1.00
C121   C     0.67917   0.16577   0.14800   0.00000  Uiso   1.00
C122   C     0.98738   0.16646   0.18523   0.00000  Uiso   1.00
C123   C     0.80956   0.01763   0.12757   0.00000  Uiso   1.00
C124   C     0.87566   0.31526   0.19803   0.00000  Uiso   1.00
C125   C     0.80147   0.30939   0.13558   0.00000  Uiso   1.00
C126   C     0.87364   0.02503   0.19782   0.00000  Uiso   1.00
C127   C     0.83633   0.29083   0.16911   0.00000  Uiso   1.00
C128   C     0.83828   0.04274   0.16405   0.00000  Uiso   1.00
C129   C     0.79669   0.14392   0.01872   0.00000  Uiso   1.00
C130   C     0.86952   0.18949   0.31470   0.00000  Uiso   1.00
C131   C     0.79710   0.14347   0.30281   0.00000  Uiso   1.00
C132   C     0.86900   0.19027   0.03048   0.00000  Uiso   1.00
Cu133  Cu    0.83333   0.16667   0.21355   0.00000  Uiso   1.00
Cu134  Cu    0.83333   0.16666   0.11978   0.00000  Uiso   1.00
H135   H     0.99231   0.16479   0.11233   0.00000  Uiso   1.00
H136   H     0.67423   0.16762   0.22090   0.00000  Uiso   1.00
N137   N     0.83335   0.16668   0.28403   0.00000  Uiso   1.00
N138   N     0.83332   0.16666   0.04931   0.00000  Uiso   1.00
O139   O     0.83333   0.10655   0.20625   0.00000  Uiso   1.00
O140   O     0.83334   0.22678   0.12709   0.00000  Uiso   1.00
O141   O     0.83333   0.10654   0.12706   0.00000  Uiso   1.00
O142   O     0.83334   0.22679   0.20628   0.00000  Uiso   1.00
O143   O     0.75828   0.16667   0.19712   0.00000  Uiso   1.00
O144   O     0.90839   0.16666   0.13621   0.00000  Uiso   1.00
O145   O     0.75828   0.16666   0.11793   0.00000  Uiso   1.00
O146   O     0.90839   0.16667   0.21540   0.00000  Uiso   1.00
C147   C     0.80995   0.02820   0.07796   0.00000  Uiso   1.00
C148   C     0.76555   0.02267   0.04413   0.00000  Uiso   1.00
C149   C     0.76940   0.02613   0.32993   0.00000  Uiso   1.00
C150   C     0.81720   0.03561   0.31576   0.00000  Uiso   1.00
C151   C     0.86124   0.04236   0.01575   0.00000  Uiso   1.00
C152   C     0.85785   0.03819   0.06312   0.00000  Uiso   1.00
H153   H     0.72798   0.01601   0.05439   0.00000  Uiso   1.00
H154   H     0.73517   0.02238   0.30403   0.00000  Uiso   1.00
H155   H     0.81989   0.03838   0.27900   0.00000  Uiso   1.00
H156   H     0.89821   0.05018   0.00486   0.00000  Uiso   1.00
H157   H     0.89296   0.04175   0.08819   0.00000  Uiso   1.00
C158   C     0.92348   0.29748   0.22160   0.00000  Uiso   1.00
C159   C     0.94060   0.30616   0.26957   0.00000  Uiso   1.00
C160   C     0.98992   0.29556   0.28974   0.00000  Uiso   1.00
C161   C     0.68911   0.27592   0.26233   0.00000  Uiso   1.00
C162   C     0.67242   0.26704   0.21470   0.00000  Uiso   1.00
C163   C     0.95652   0.27768   0.19439   0.00000  Uiso   1.00
H164   H     0.91592   0.32140   0.29122   0.00000  Uiso   1.00
H165   H     0.66927   0.30218   0.32672   0.00000  Uiso   1.00
H166   H     0.72726   0.26771   0.27797   0.00000  Uiso   1.00
H167   H     0.69798   0.25248   0.19334   0.00000  Uiso   1.00
H168   H     0.94496   0.27196   0.15710   0.00000  Uiso   1.00
Cl169  Cl    0.75003   0.27986   0.10114   0.00000  Uiso   1.00
Cl170  Cl    0.92225   0.05738   0.23254   0.00000  Uiso   1.00
Cl171  Cl    0.74634   0.11617   0.03948   0.00000  Uiso   1.00
Cl172  Cl    0.91878   0.21743   0.29401   0.00000  Uiso   1.00
Cl173  Cl    0.75063   0.11146   0.26634   0.00000  Uiso   1.00
Cl174  Cl    0.91371   0.22398   0.06664   0.00000  Uiso   1.00
C175   C     0.16750   0.42076   0.16568   0.00000  Uiso   1.00
C176   C     0.16872   0.57926   0.16784   0.00000  Uiso   1.00
C177   C     0.06799   0.49974   0.15457   0.00000  Uiso   1.00
C178   C     0.26530   0.49989   0.17874   0.00000  Uiso   1.00
C179   C     0.01251   0.49911   0.14800   0.00000  Uiso   1.00
C180   C     0.32071   0.49979   0.18523   0.00000  Uiso   1.00
C181   C     0.14290   0.35097   0.12757   0.00000  Uiso   1.00
C182   C     0.20900   0.64859   0.19803   0.00000  Uiso   1.00
C183   C     0.13480   0.64272   0.13558   0.00000  Uiso   1.00
C184   C     0.20698   0.35836   0.19782   0.00000  Uiso   1.00
C185   C     0.16967   0.62417   0.16911   0.00000  Uiso   1.00
C186   C     0.17162   0.37608   0.16405   0.00000  Uiso   1.00
C187   C     0.13002   0.47726   0.01872   0.00000  Uiso   1.00
C188   C     0.20285   0.52283   0.31470   0.00000  Uiso   1.00
C189   C     0.13044   0.47680   0.30281   0.00000  Uiso   1.00
C190   C     0.20233   0.52360   0.03048   0.00000  Uiso   1.00
Cu191  Cu    0.16667   0.50001   0.21355   0.00000  Uiso   1.00
Cu192  Cu    0.16667   0.49999   0.11978   0.00000  Uiso   1.00
H193   H     0.32564   0.49812   0.11233   0.00000  Uiso   1.00
H194   H     0.00756   0.50096   0.22090   0.00000  Uiso   1.00
N195   N     0.16668   0.50001   0.28403   0.00000  Uiso   1.00
N196   N     0.16665   0.49999   0.04931   0.00000  Uiso   1.00
O197   O     0.16666   0.43989   0.20625   0.00000  Uiso   1.00
O198   O     0.16667   0.56011   0.12709   0.00000  Uiso   1.00
O199   O     0.16666   0.43988   0.12706   0.00000  Uiso   1.00
O200   O     0.16667   0.56012   0.20628   0.00000  Uiso   1.00
O201   O     0.09161   0.50000   0.19712   0.00000  Uiso   1.00
O202   O     0.24172   0.50000   0.13621   0.00000  Uiso   1.00
O203   O     0.09161   0.49999   0.11793   0.00000  Uiso   1.00
O204   O     0.24172   0.50001   0.21540   0.00000  Uiso   1.00
C205   C     0.14328   0.36153   0.07796   0.00000  Uiso   1.00
C206   C     0.09889   0.35601   0.04413   0.00000  Uiso   1.00
C207   C     0.10274   0.35946   0.32993   0.00000  Uiso   1.00
C208   C     0.15054   0.36895   0.31576   0.00000  Uiso   1.00
C209   C     0.19457   0.37569   0.01575   0.00000  Uiso   1.00
C210   C     0.19118   0.37153   0.06312   0.00000  Uiso   1.00
H211   H     0.06131   0.34934   0.05439   0.00000  Uiso   1.00
H212   H     0.06851   0.35571   0.30403   0.00000  Uiso   1.00
H213   H     0.15322   0.37171   0.27900   0.00000  Uiso   1.00
H214   H     0.23154   0.38352   0.00486   0.00000  Uiso   1.00
H215   H     0.22629   0.37508   0.08819   0.00000  Uiso   1.00
C216   C     0.25681   0.63081   0.22160   0.00000  Uiso   1.00
C217   C     0.27394   0.63949   0.26957   0.00000  Uiso   1.00
C218   C     0.32325   0.62890   0.28974   0.00000  Uiso   1.00
C219   C     0.02244   0.60925   0.26233   0.00000  Uiso   1.00
C220   C     0.00575   0.60038   0.21470   0.00000  Uiso   1.00
C221   C     0.28985   0.61101   0.19439   0.00000  Uiso   1.00
H222   H     0.24925   0.65473   0.29122   0.00000  Uiso   1.00
H223   H     0.00261   0.63551   0.32672   0.00000  Uiso   1.00
H224   H     0.06059   0.60104   0.27797   0.00000  Uiso   1.00
H225   H     0.03131   0.58582   0.19334   0.00000  Uiso   1.00
H226   H     0.27829   0.60529   0.15710   0.00000  Uiso   1.00
Cl227  Cl    0.08336   0.61319   0.10114   0.00000  Uiso   1.00
Cl228  Cl    0.25559   0.39071   0.23254   0.00000  Uiso   1.00
Cl229  Cl    0.07967   0.44950   0.03948   0.00000  Uiso   1.00
Cl230  Cl    0.25212   0.55076   0.29401   0.00000  Uiso   1.00
Cl231  Cl    0.08397   0.44479   0.26634   0.00000  Uiso   1.00
Cl232  Cl    0.24705   0.55731   0.06664   0.00000  Uiso   1.00
C233   C     0.50083   0.42076   0.16568   0.00000  Uiso   1.00
C234   C     0.50205   0.57926   0.16784   0.00000  Uiso   1.00
C235   C     0.40132   0.49974   0.15457   0.00000  Uiso   1.00
C236   C     0.59864   0.49989   0.17874   0.00000  Uiso   1.00
C237   C     0.34584   0.49911   0.14800   0.00000  Uiso   1.00
C238   C     0.65405   0.49979   0.18523   0.00000  Uiso   1.00
C239   C     0.47623   0.35097   0.12757   0.00000  Uiso   1.00
C240   C     0.54233   0.64859   0.19803   0.00000  Uiso   1.00
C241   C     0.46814   0.64272   0.13558   0.00000  Uiso   1.00
C242   C     0.54031   0.35836   0.19782   0.00000  Uiso   1.00
C243   C     0.50300   0.62417   0.16911   0.00000  Uiso   1.00
C244   C     0.50495   0.37608   0.16405   0.00000  Uiso   1.00
C245   C     0.46336   0.47726   0.01872   0.00000  Uiso   1.00
C246   C     0.53618   0.52283   0.31470   0.00000  Uiso   1.00
C247   C     0.46377   0.47680   0.30281   0.00000  Uiso   1.00
C248   C     0.53566   0.52360   0.03048   0.00000  Uiso   1.00
Cu249  Cu    0.50000   0.50001   0.21355   0.00000  Uiso   1.00
Cu250  Cu    0.50000   0.49999   0.11978   0.00000  Uiso   1.00
H251   H     0.65897   0.49812   0.11233   0.00000  Uiso   1.00
H252   H     0.34089   0.50096   0.22090   0.00000  Uiso   1.00
N253   N     0.50001   0.50001   0.28403   0.00000  Uiso   1.00
N254   N     0.49999   0.49999   0.04931   0.00000  Uiso   1.00
O255   O     0.50000   0.43989   0.20625   0.00000  Uiso   1.00
O256   O     0.50000   0.56011   0.12709   0.00000  Uiso   1.00
O257   O     0.50000   0.43988   0.12706   0.00000  Uiso   1.00
O258   O     0.50000   0.56012   0.20628   0.00000  Uiso   1.00
O259   O     0.42495   0.50000   0.19712   0.00000  Uiso   1.00
O260   O     0.57505   0.50000   0.13621   0.00000  Uiso   1.00
O261   O     0.42494   0.49999   0.11793   0.00000  Uiso   1.00
O262   O     0.57506   0.50001   0.21540   0.00000  Uiso   1.00
C263   C     0.47662   0.36153   0.07796   0.00000  Uiso   1.00
C264   C     0.43222   0.35601   0.04413   0.00000  Uiso   1.00
C265   C     0.43607   0.35946   0.32993   0.00000  Uiso   1.00
C266   C     0.48387   0.36895   0.31576   0.00000  Uiso   1.00
C267   C     0.52791   0.37569   0.01575   0.00000  Uiso   1.00
C268   C     0.52452   0.37153   0.06312   0.00000  Uiso   1.00
H269   H     0.39464   0.34934   0.05439   0.00000  Uiso   1.00
H270   H     0.40184   0.35571   0.30403   0.00000  Uiso   1.00
H271   H     0.48656   0.37171   0.27900   0.00000  Uiso   1.00
H272   H     0.56488   0.38352   0.00486   0.00000  Uiso   1.00
H273   H     0.55963   0.37508   0.08819   0.00000  Uiso   1.00
C274   C     0.59015   0.63081   0.22160   0.00000  Uiso   1.00
C275   C     0.60727   0.63949   0.26957   0.00000  Uiso   1.00
C276   C     0.65659   0.62890   0.28974   0.00000  Uiso   1.00
C277   C     0.35578   0.60925   0.26233   0.00000  Uiso   1.00
C278   C     0.33909   0.60038   0.21470   0.00000  Uiso   1.00
C279   C     0.62318   0.61101   0.19439   0.00000  Uiso   1.00
H280   H     0.58258   0.65473   0.29122   0.00000  Uiso   1.00
H281   H     0.33594   0.63551   0.32672   0.00000  Uiso   1.00
H282   H     0.39392   0.60104   0.27797   0.00000  Uiso   1.00
H283   H     0.36465   0.58582   0.19334   0.00000  Uiso   1.00
H284   H     0.61162   0.60529   0.15710   0.00000  Uiso   1.00
Cl285  Cl    0.41670   0.61319   0.10114   0.00000  Uiso   1.00
Cl286  Cl    0.58892   0.39071   0.23254   0.00000  Uiso   1.00
Cl287  Cl    0.41300   0.44950   0.03948   0.00000  Uiso   1.00
Cl288  Cl    0.58545   0.55076   0.29401   0.00000  Uiso   1.00
Cl289  Cl    0.41730   0.44479   0.26634   0.00000  Uiso   1.00
Cl290  Cl    0.58038   0.55731   0.06664   0.00000  Uiso   1.00
C291   C     0.83416   0.42076   0.16568   0.00000  Uiso   1.00
C292   C     0.83538   0.57926   0.16784   0.00000  Uiso   1.00
C293   C     0.73466   0.49974   0.15457   0.00000  Uiso   1.00
C294   C     0.93197   0.49989   0.17874   0.00000  Uiso   1.00
C295   C     0.67917   0.49911   0.14800   0.00000  Uiso   1.00
C296   C     0.98738   0.49979   0.18523   0.00000  Uiso   1.00
C297   C     0.80956   0.35097   0.12757   0.00000  Uiso   1.00
C298   C     0.87566   0.64859   0.19803   0.00000  Uiso   1.00
C299   C     0.80147   0.64272   0.13558   0.00000  Uiso   1.00
C300   C     0.87364   0.35836   0.19782   0.00000  Uiso   1.00
C301   C     0.83633   0.62417   0.16911   0.00000  Uiso   1.00
C302   C     0.83828   0.37608   0.16405   0.00000  Uiso   1.00
C303   C     0.79669   0.47726   0.01872   0.00000  Uiso   1.00
C304   C     0.86952   0.52283   0.31470   0.00000  Uiso   1.00
C305   C     0.79710   0.47680   0.30281   0.00000  Uiso   1.00
C306   C     0.86900   0.52360   0.03048   0.00000  Uiso   1.00
Cu307  Cu    0.83333   0.50001   0.21355   0.00000  Uiso   1.00
Cu308  Cu    0.83333   0.49999   0.11978   0.00000  Uiso   1.00
H309   H     0.99231   0.49812   0.11233   0.00000  Uiso   1.00
H310   H     0.67423   0.50096   0.22090   0.00000  Uiso   1.00
N311   N     0.83335   0.50001   0.28403   0.00000  Uiso   1.00
N312   N     0.83332   0.49999   0.04931   0.00000  Uiso   1.00
O313   O     0.83333   0.43989   0.20625   0.00000  Uiso   1.00
O314   O     0.83334   0.56011   0.12709   0.00000  Uiso   1.00
O315   O     0.83333   0.43988   0.12706   0.00000  Uiso   1.00
O316   O     0.83334   0.56012   0.20628   0.00000  Uiso   1.00
O317   O     0.75828   0.50000   0.19712   0.00000  Uiso   1.00
O318   O     0.90839   0.50000   0.13621   0.00000  Uiso   1.00
O319   O     0.75828   0.49999   0.11793   0.00000  Uiso   1.00
O320   O     0.90839   0.50001   0.21540   0.00000  Uiso   1.00
C321   C     0.80995   0.36153   0.07796   0.00000  Uiso   1.00
C322   C     0.76555   0.35601   0.04413   0.00000  Uiso   1.00
C323   C     0.76940   0.35946   0.32993   0.00000  Uiso   1.00
C324   C     0.81720   0.36895   0.31576   0.00000  Uiso   1.00
C325   C     0.86124   0.37569   0.01575   0.00000  Uiso   1.00
C326   C     0.85785   0.37153   0.06312   0.00000  Uiso   1.00
H327   H     0.72798   0.34934   0.05439   0.00000  Uiso   1.00
H328   H     0.73517   0.35571   0.30403   0.00000  Uiso   1.00
H329   H     0.81989   0.37171   0.27900   0.00000  Uiso   1.00
H330   H     0.89821   0.38352   0.00486   0.00000  Uiso   1.00
H331   H     0.89296   0.37508   0.08819   0.00000  Uiso   1.00
C332   C     0.92348   0.63081   0.22160   0.00000  Uiso   1.00
C333   C     0.94060   0.63949   0.26957   0.00000  Uiso   1.00
C334   C     0.98992   0.62890   0.28974   0.00000  Uiso   1.00
C335   C     0.68911   0.60925   0.26233   0.00000  Uiso   1.00
C336   C     0.67242   0.60038   0.21470   0.00000  Uiso   1.00
C337   C     0.95652   0.61101   0.19439   0.00000  Uiso   1.00
H338   H     0.91592   0.65473   0.29122   0.00000  Uiso   1.00
H339   H     0.66927   0.63551   0.32672   0.00000  Uiso   1.00
H340   H     0.72726   0.60104   0.27797   0.00000  Uiso   1.00
H341   H     0.69798   0.58582   0.19334   0.00000  Uiso   1.00
H342   H     0.94496   0.60529   0.15710   0.00000  Uiso   1.00
Cl343  Cl    0.75003   0.61319   0.10114   0.00000  Uiso   1.00
Cl344  Cl    0.92225   0.39071   0.23254   0.00000  Uiso   1.00
Cl345  Cl    0.74634   0.44950   0.03948   0.00000  Uiso   1.00
Cl346  Cl    0.91878   0.55076   0.29401   0.00000  Uiso   1.00
Cl347  Cl    0.75063   0.44479   0.26634   0.00000  Uiso   1.00
Cl348  Cl    0.91371   0.55731   0.06664   0.00000  Uiso   1.00
C349   C     0.16750   0.75410   0.16568   0.00000  Uiso   1.00
C350   C     0.16872   0.91259   0.16784   0.00000  Uiso   1.00
C351   C     0.06799   0.83307   0.15457   0.00000  Uiso   1.00
C352   C     0.26530   0.83322   0.17874   0.00000  Uiso   1.00
C353   C     0.01251   0.83244   0.14800   0.00000  Uiso   1.00
C354   C     0.32071   0.83312   0.18523   0.00000  Uiso   1.00
C355   C     0.14290   0.68430   0.12757   0.00000  Uiso   1.00
C356   C     0.20900   0.98193   0.19803   0.00000  Uiso   1.00
C357   C     0.13480   0.97606   0.13558   0.00000  Uiso   1.00
C358   C     0.20698   0.69169   0.19782   0.00000  Uiso   1.00
C359   C     0.16967   0.95750   0.16911   0.00000  Uiso   1.00
C360   C     0.17162   0.70941   0.16405   0.00000  Uiso   1.00
C361   C     0.13002   0.81059   0.01872   0.00000  Uiso   1.00
C362   C     0.20285   0.85616   0.31470   0.00000  Uiso   1.00
C363   C     0.13044   0.81013   0.30281   0.00000  Uiso   1.00
C364   C     0.20233   0.85694   0.03048   0.00000  Uiso   1.00
Cu365  Cu    0.16667   0.83334   0.21355   0.00000  Uiso   1.00
Cu366  Cu    0.16667   0.83333   0.11978   0.00000  Uiso   1.00
H367   H     0.32564   0.83146   0.11233   0.00000  Uiso   1.00
H368   H     0.00756   0.83429   0.22090   0.00000  Uiso   1.00
N369   N     0.16668   0.83334   0.28403   0.00000  Uiso   1.00
N370   N     0.16665   0.83332   0.04931   0.00000  Uiso   1.00
O371   O     0.16666   0.77322   0.20625   0.00000  Uiso   1.00
O372   O     0.16667   0.89345   0.12709   0.00000  Uiso   1.00
O373   O     0.16666   0.77321   0.12706   0.00000  Uiso   1.00
O374   O     0.16667   0.89346   0.20628   0.00000  Uiso   1.00
O375   O     0.09161   0.83334   0.19712   0.00000  Uiso   1.00
O376   O     0.24172   0.83333   0.13621   0.00000  Uiso   1.00
O377   O     0.09161   0.83333   0.11793   0.00000  Uiso   1.00
O378   O     0.24172   0.83334   0.21540   0.00000  Uiso   1.00
C379   C     0.14328   0.69486   0.07796   0.00000  Uiso   1.00
C380   C     0.09889   0.68934   0.04413   0.00000  Uiso   1.00
C381   C     0.10274   0.69280   0.32993   0.00000  Uiso   1.00
C382   C     0.15054   0.70228   0.31576   0.00000  Uiso   1.00
C383   C     0.19457   0.70903   0.01575   0.00000  Uiso   1.00
C384   C     0.19118   0.70486   0.06312   0.00000  Uiso   1.00
H385   H     0.06131   0.68267   0.05439   0.00000  Uiso   1.00
H386   H     0.06851   0.68904   0.30403   0.00000  Uiso   1.00
H387   H     0.15322   0.70504   0.27900   0.00000  Uiso   1.00
H388   H     0.23154   0.71685   0.00486   0.00000  Uiso   1.00
H389   H     0.22629   0.70842   0.08819   0.00000  Uiso   1.00
C390   C     0.25681   0.96414   0.22160   0.00000  Uiso   1.00
C391   C     0.27394   0.97283   0.26957   0.00000  Uiso   1.00
C392   C     0.32325   0.96223   0.28974   0.00000  Uiso   1.00
C393   C     0.02244   0.94259   0.26233   0.00000  Uiso   1.00
C394   C     0.00575   0.93371   0.21470   0.00000  Uiso   1.00
C395   C     0.28985   0.94435   0.19439   0.00000  Uiso   1.00
H396   H     0.24925   0.98807   0.29122   0.00000  Uiso   1.00
H397   H     0.00261   0.96885   0.32672   0.00000  Uiso   1.00
H398   H     0.06059   0.93438   0.27797   0.00000  Uiso   1.00
H399   H     0.03131   0.91915   0.19334   0.00000  Uiso   1.00
H400   H     0.27829   0.93863   0.15710   0.00000  Uiso   1.00
Cl401  Cl    0.08336   0.94653   0.10114   0.00000  Uiso   1.00
Cl402  Cl    0.25559   0.72405   0.23254   0.00000  Uiso   1.00
Cl403  Cl    0.07967   0.78284   0.03948   0.00000  Uiso   1.00
Cl404  Cl    0.25212   0.88409   0.29401   0.00000  Uiso   1.00
Cl405  Cl    0.08397   0.77813   0.26634   0.00000  Uiso   1.00
Cl406  Cl    0.24705   0.89065   0.06664   0.00000  Uiso   1.00
C407   C     0.50083   0.75410   0.16568   0.00000  Uiso   1.00
C408   C     0.50205   0.91259   0.16784   0.00000  Uiso   1.00
C409   C     0.40132   0.83307   0.15457   0.00000  Uiso   1.00
C410   C     0.59864   0.83322   0.17874   0.00000  Uiso   1.00
C411   C     0.34584   0.83244   0.14800   0.00000  Uiso   1.00
C412   C     0.65405   0.83312   0.18523   0.00000  Uiso   1.00
C413   C     0.47623   0.68430   0.12757   0.00000  Uiso   1.00
C414   C     0.54233   0.98193   0.19803   0.00000  Uiso   1.00
C415   C     0.46814   0.97606   0.13558   0.00000  Uiso   1.00
C416   C     0.54031   0.69169   0.19782   0.00000  Uiso   1.00
C417   C     0.50300   0.95750   0.16911   0.00000  Uiso   1.00
C418   C     0.50495   0.70941   0.16405   0.00000  Uiso   1.00
C419   C     0.46336   0.81059   0.01872   0.00000  Uiso   1.00
C420   C     0.53618   0.85616   0.31470   0.00000  Uiso   1.00
C421   C     0.46377   0.81013   0.30281   0.00000  Uiso   1.00
C422   C     0.53566   0.85694   0.03048   0.00000  Uiso   1.00
Cu423  Cu    0.50000   0.83334   0.21355   0.00000  Uiso   1.00
Cu424  Cu    0.50000   0.83333   0.11978   0.00000  Uiso   1.00
H425   H     0.65897   0.83146   0.11233   0.00000  Uiso   1.00
H426   H     0.34089   0.83429   0.22090   0.00000  Uiso   1.00
N427   N     0.50001   0.83334   0.28403   0.00000  Uiso   1.00
N428   N     0.49999   0.83332   0.04931   0.00000  Uiso   1.00
O429   O     0.50000   0.77322   0.20625   0.00000  Uiso   1.00
O430   O     0.50000   0.89345   0.12709   0.00000  Uiso   1.00
O431   O     0.50000   0.77321   0.12706   0.00000  Uiso   1.00
O432   O     0.50000   0.89346   0.20628   0.00000  Uiso   1.00
O433   O     0.42495   0.83334   0.19712   0.00000  Uiso   1.00
O434   O     0.57505   0.83333   0.13621   0.00000  Uiso   1.00
O435   O     0.42494   0.83333   0.11793   0.00000  Uiso   1.00
O436   O     0.57506   0.83334   0.21540   0.00000  Uiso   1.00
C437   C     0.47662   0.69486   0.07796   0.00000  Uiso   1.00
C438   C     0.43222   0.68934   0.04413   0.00000  Uiso   1.00
C439   C     0.43607   0.69280   0.32993   0.00000  Uiso   1.00
C440   C     0.48387   0.70228   0.31576   0.00000  Uiso   1.00
C441   C     0.52791   0.70903   0.01575   0.00000  Uiso   1.00
C442   C     0.52452   0.70486   0.06312   0.00000  Uiso   1.00
H443   H     0.39464   0.68267   0.05439   0.00000  Uiso   1.00
H444   H     0.40184   0.68904   0.30403   0.00000  Uiso   1.00
H445   H     0.48656   0.70504   0.27900   0.00000  Uiso   1.00
H446   H     0.56488   0.71685   0.00486   0.00000  Uiso   1.00
H447   H     0.55963   0.70842   0.08819   0.00000  Uiso   1.00
C448   C     0.59015   0.96414   0.22160   0.00000  Uiso   1.00
C449   C     0.60727   0.97283   0.26957   0.00000  Uiso   1.00
C450   C     0.65659   0.96223   0.28974   0.00000  Uiso   1.00
C451   C     0.35578   0.94259   0.26233   0.00000  Uiso   1.00
C452   C     0.33909   0.93371   0.21470   0.00000  Uiso   1.00
C453   C     0.62318   0.94435   0.19439   0.00000  Uiso   1.00
H454   H     0.58258   0.98807   0.29122   0.00000  Uiso   1.00
H455   H     0.33594   0.96885   0.32672   0.00000  Uiso   1.00
H456   H     0.39392   0.93438   0.27797   0.00000  Uiso   1.00
H457   H     0.36465   0.91915   0.19334   0.00000  Uiso   1.00
H458   H     0.61162   0.93863   0.15710   0.00000  Uiso   1.00
Cl459  Cl    0.41670   0.94653   0.10114   0.00000  Uiso   1.00
Cl460  Cl    0.58892   0.72405   0.23254   0.00000  Uiso   1.00
Cl461  Cl    0.41300   0.78284   0.03948   0.00000  Uiso   1.00
Cl462  Cl    0.58545   0.88409   0.29401   0.00000  Uiso   1.00
Cl463  Cl    0.41730   0.77813   0.26634   0.00000  Uiso   1.00
Cl464  Cl    0.58038   0.89065   0.06664   0.00000  Uiso   1.00
C465   C     0.83416   0.75410   0.16568   0.00000  Uiso   1.00
C466   C     0.83538   0.91259   0.16784   0.00000  Uiso   1.00
C467   C     0.73466   0.83307   0.15457   0.00000  Uiso   1.00
C468   C     0.93197   0.83322   0.17874   0.00000  Uiso   1.00
C469   C     0.67917   0.83244   0.14800   0.00000  Uiso   1.00
C470   C     0.98738   0.83312   0.18523   0.00000  Uiso   1.00
C471   C     0.80956   0.68430   0.12757   0.00000  Uiso   1.00
C472   C     0.87566   0.98193   0.19803   0.00000  Uiso   1.00
C473   C     0.80147   0.97606   0.13558   0.00000  Uiso   1.00
C474   C     0.87364   0.69169   0.19782   0.00000  Uiso   1.00
C475   C     0.83633   0.95750   0.16911   0.00000  Uiso   1.00
C476   C     0.83828   0.70941   0.16405   0.00000  Uiso   1.00
C477   C     0.79669   0.81059   0.01872   0.00000  Uiso   1.00
C478   C     0.86952   0.85616   0.31470   0.00000  Uiso   1.00
C479   C     0.79710   0.81013   0.30281   0.00000  Uiso   1.00
C480   C     0.86900   0.85694   0.03048   0.00000  Uiso   1.00
Cu481  Cu    0.83333   0.83334   0.21355   0.00000  Uiso   1.00
Cu482  Cu    0.83333   0.83333   0.11978   0.00000  Uiso   1.00
H483   H     0.99231   0.83146   0.11233   0.00000  Uiso   1.00
H484   H     0.67423   0.83429   0.22090   0.00000  Uiso   1.00
N485   N     0.83335   0.83334   0.28403   0.00000  Uiso   1.00
N486   N     0.83332   0.83332   0.04931   0.00000  Uiso   1.00
O487   O     0.83333   0.77322   0.20625   0.00000  Uiso   1.00
O488   O     0.83334   0.89345   0.12709   0.00000  Uiso   1.00
O489   O     0.83333   0.77321   0.12706   0.00000  Uiso   1.00
O490   O     0.83334   0.89346   0.20628   0.00000  Uiso   1.00
O491   O     0.75828   0.83334   0.19712   0.00000  Uiso   1.00
O492   O     0.90839   0.83333   0.13621   0.00000  Uiso   1.00
O493   O     0.75828   0.83333   0.11793   0.00000  Uiso   1.00
O494   O     0.90839   0.83334   0.21540   0.00000  Uiso   1.00
C495   C     0.80995   0.69486   0.07796   0.00000  Uiso   1.00
C496   C     0.76555   0.68934   0.04413   0.00000  Uiso   1.00
C497   C     0.76940   0.69280   0.32993   0.00000  Uiso   1.00
C498   C     0.81720   0.70228   0.31576   0.00000  Uiso   1.00
C499   C     0.86124   0.70903   0.01575   0.00000  Uiso   1.00
C500   C     0.85785   0.70486   0.06312   0.00000  Uiso   1.00
H501   H     0.72798   0.68267   0.05439   0.00000  Uiso   1.00
H502   H     0.73517   0.68904   0.30403   0.00000  Uiso   1.00
H503   H     0.81989   0.70504   0.27900   0.00000  Uiso   1.00
H504   H     0.89821   0.71685   0.00486   0.00000  Uiso   1.00
H505   H     0.89296   0.70842   0.08819   0.00000  Uiso   1.00
C506   C     0.92348   0.96414   0.22160   0.00000  Uiso   1.00
C507   C     0.94060   0.97283   0.26957   0.00000  Uiso   1.00
C508   C     0.98992   0.96223   0.28974   0.00000  Uiso   1.00
C509   C     0.68911   0.94259   0.26233   0.00000  Uiso   1.00
C510   C     0.67242   0.93371   0.21470   0.00000  Uiso   1.00
C511   C     0.95652   0.94435   0.19439   0.00000  Uiso   1.00
H512   H     0.91592   0.98807   0.29122   0.00000  Uiso   1.00
H513   H     0.66927   0.96885   0.32672   0.00000  Uiso   1.00
H514   H     0.72726   0.93438   0.27797   0.00000  Uiso   1.00
H515   H     0.69798   0.91915   0.19334   0.00000  Uiso   1.00
H516   H     0.94496   0.93863   0.15710   0.00000  Uiso   1.00
Cl517  Cl    0.75003   0.94653   0.10114   0.00000  Uiso   1.00
Cl518  Cl    0.92225   0.72405   0.23254   0.00000  Uiso   1.00
Cl519  Cl    0.74634   0.78284   0.03948   0.00000  Uiso   1.00
Cl520  Cl    0.91878   0.88409   0.29401   0.00000  Uiso   1.00
Cl521  Cl    0.75063   0.77813   0.26634   0.00000  Uiso   1.00
Cl522  Cl    0.91371   0.89065   0.06664   0.00000  Uiso   1.00
C523   C     0.16750   0.08743   0.49901   0.00000  Uiso   1.00
C524   C     0.16872   0.24592   0.50117   0.00000  Uiso   1.00
C525   C     0.06799   0.16641   0.48790   0.00000  Uiso   1.00
C526   C     0.26530   0.16655   0.51207   0.00000  Uiso   1.00
C527   C     0.01251   0.16577   0.48133   0.00000  Uiso   1.00
C528   C     0.32071   0.16646   0.51856   0.00000  Uiso   1.00
C529   C     0.14290   0.01763   0.46091   0.00000  Uiso   1.00
C530   C     0.20900   0.31526   0.53137   0.00000  Uiso   1.00
C531   C     0.13480   0.30939   0.46891   0.00000  Uiso   1.00
C532   C     0.20698   0.02503   0.53115   0.00000  Uiso   1.00
C533   C     0.16967   0.29083   0.50245   0.00000  Uiso   1.00
C534   C     0.17162   0.04274   0.49739   0.00000  Uiso   1.00
C535   C     0.13002   0.14392   0.35206   0.00000  Uiso   1.00
C536   C     0.20285   0.18949   0.64803   0.00000  Uiso   1.00
C537   C     0.13044   0.14347   0.63615   0.00000  Uiso   1.00
C538   C     0.20233   0.19027   0.36382   0.00000  Uiso   1.00
Cu539  Cu    0.16667   0.16667   0.54689   0.00000  Uiso   1.00
Cu540  Cu    0.16667   0.16666   0.45311   0.00000  Uiso   1.00
H541   H     0.32564   0.16479   0.44567   0.00000  Uiso   1.00
H542   H     0.00756   0.16762   0.55423   0.00000  Uiso   1.00
N543   N     0.16668   0.16668   0.61736   0.00000  Uiso   1.00
N544   N     0.16665   0.16666   0.38264   0.00000  Uiso   1.00
O545   O     0.16666   0.10655   0.53958   0.00000  Uiso   1.00
O546   O     0.16667   0.22678   0.46042   0.00000  Uiso   1.00
O547   O     0.16666   0.10654   0.46039   0.00000  Uiso   1.00
O548   O     0.16667   0.22679   0.53961   0.00000  Uiso   1.00
O549   O     0.09161   0.16667   0.53046   0.00000  Uiso   1.00
O550   O     0.24172   0.16666   0.46954   0.00000  Uiso   1.00
O551   O     0.09161   0.16666   0.45127   0.00000  Uiso   1.00
O552   O     0.24172   0.16667   0.54873   0.00000  Uiso   1.00
C553   C     0.14328   0.02820   0.41130   0.00000  Uiso   1.00
C554   C     0.09889   0.02267   0.37746   0.00000  Uiso   1.00
C555   C     0.10274   0.02613   0.66326   0.00000  Uiso   1.00
C556   C     0.15054   0.03561   0.64909   0.00000  Uiso   1.00
C557   C     0.19457   0.04236   0.34908   0.00000  Uiso   1.00
C558   C     0.19118   0.03819   0.39646   0.00000  Uiso   1.00
H559   H     0.06131   0.01601   0.38772   0.00000  Uiso   1.00
H560   H     0.06851   0.02238   0.63736   0.00000  Uiso   1.00
H561   H     0.15322   0.03838   0.61233   0.00000  Uiso   1.00
H562   H     0.23154   0.05018   0.33820   0.00000  Uiso   1.00
H563   H     0.22629   0.04175   0.42153   0.00000  Uiso   1.00
C564   C     0.25681   0.29748   0.55493   0.00000  Uiso   1.00
C565   C     0.27394   0.30616   0.60291   0.00000  Uiso   1.00
C566   C     0.32325   0.29556   0.62307   0.00000  Uiso   1.00
C567   C     0.02244   0.27592   0.59567   0.00000  Uiso   1.00
C568   C     0.00575   0.26704   0.54803   0.00000  Uiso   1.00
C569   C     0.28985   0.27768   0.52772   0.00000  Uiso   1.00
H570   H     0.24925   0.32140   0.62455   0.00000  Uiso   1.00
H571   H     0.00261   0.30218   0.66005   0.00000  Uiso   1.00
H572   H     0.06059   0.26771   0.61130   0.00000  Uiso   1.00
H573   H     0.03131   0.25248   0.52667   0.00000  Uiso   1.00
H574   H     0.27829   0.27196   0.49044   0.00000  Uiso   1.00
Cl575  Cl    0.08336   0.27986   0.43447   0.00000  Uiso   1.00
Cl576  Cl    0.25559   0.05738   0.56587   0.00000  Uiso   1.00
Cl577  Cl    0.07967   0.11617   0.37282   0.00000  Uiso   1.00
Cl578  Cl    0.25212   0.21743   0.62734   0.00000  Uiso   1.00
Cl579  Cl    0.08397   0.11146   0.59967   0.00000  Uiso   1.00
Cl580  Cl    0.24705   0.22398   0.39998   0.00000  Uiso   1.00
C581   C     0.50083   0.08743   0.49901   0.00000  Uiso   1.00
C582   C     0.50205   0.24592   0.50117   0.00000  Uiso   1.00
C583   C     0.40132   0.16641   0.48790   0.00000  Uiso   1.00
C584   C     0.59864   0.16655   0.51207   0.00000  Uiso   1.00
C585   C     0.34584   0.16577   0.48133   0.00000  Uiso   1.00
C586   C     0.65405   0.16646   0.51856   0.00000  Uiso   1.00
C587   C     0.47623   0.01763   0.46091   0.00000  Uiso   1.00
C588   C     0.54233   0.31526   0.53137   0.00000  Uiso   1.00
C589   C     0.46814   0.30939   0.46891   0.00000  Uiso   1.00
C590   C     0.54031   0.02503   0.53115   0.00000  Uiso   1.00
C591   C     0.50300   0.29083   0.50245   0.00000  Uiso   1.00
C592   C     0.50495   0.04274   0.49739   0.00000  Uiso   1.00
C593   C     0.46336   0.14392   0.35206   0.00000  Uiso   1.00
C594   C     0.53618   0.18949   0.64803   0.00000  Uiso   1.00
C595   C     0.46377   0.14347   0.63615   0.00000  Uiso   1.00
C596   C     0.53566   0.19027   0.36382   0.00000  Uiso   1.00
Cu597  Cu    0.50000   0.16667   0.54689   0.00000  Uiso   1.00
Cu598  Cu    0.50000   0.16666   0.45311   0.00000  Uiso   1.00
H599   H     0.65897   0.16479   0.44567   0.00000  Uiso   1.00
H600   H     0.34089   0.16762   0.55423   0.00000  Uiso   1.00
N601   N     0.50001   0.16668   0.61736   0.00000  Uiso   1.00
N602   N     0.49999   0.16666   0.38264   0.00000  Uiso   1.00
O603   O     0.50000   0.10655   0.53958   0.00000  Uiso   1.00
O604   O     0.50000   0.22678   0.46042   0.00000  Uiso   1.00
O605   O     0.50000   0.10654   0.46039   0.00000  Uiso   1.00
O606   O     0.50000   0.22679   0.53961   0.00000  Uiso   1.00
O607   O     0.42495   0.16667   0.53046   0.00000  Uiso   1.00
O608   O     0.57505   0.16666   0.46954   0.00000  Uiso   1.00
O609   O     0.42494   0.16666   0.45127   0.00000  Uiso   1.00
O610   O     0.57506   0.16667   0.54873   0.00000  Uiso   1.00
C611   C     0.47662   0.02820   0.41130   0.00000  Uiso   1.00
C612   C     0.43222   0.02267   0.37746   0.00000  Uiso   1.00
C613   C     0.43607   0.02613   0.66326   0.00000  Uiso   1.00
C614   C     0.48387   0.03561   0.64909   0.00000  Uiso   1.00
C615   C     0.52791   0.04236   0.34908   0.00000  Uiso   1.00
C616   C     0.52452   0.03819   0.39646   0.00000  Uiso   1.00
H617   H     0.39464   0.01601   0.38772   0.00000  Uiso   1.00
H618   H     0.40184   0.02238   0.63736   0.00000  Uiso   1.00
H619   H     0.48656   0.03838   0.61233   0.00000  Uiso   1.00
H620   H     0.56488   0.05018   0.33820   0.00000  Uiso   1.00
H621   H     0.55963   0.04175   0.42153   0.00000  Uiso   1.00
C622   C     0.59015   0.29748   0.55493   0.00000  Uiso   1.00
C623   C     0.60727   0.30616   0.60291   0.00000  Uiso   1.00
C624   C     0.65659   0.29556   0.62307   0.00000  Uiso   1.00
C625   C     0.35578   0.27592   0.59567   0.00000  Uiso   1.00
C626   C     0.33909   0.26704   0.54803   0.00000  Uiso   1.00
C627   C     0.62318   0.27768   0.52772   0.00000  Uiso   1.00
H628   H     0.58258   0.32140   0.62455   0.00000  Uiso   1.00
H629   H     0.33594   0.30218   0.66005   0.00000  Uiso   1.00
H630   H     0.39392   0.26771   0.61130   0.00000  Uiso   1.00
H631   H     0.36465   0.25248   0.52667   0.00000  Uiso   1.00
H632   H     0.61162   0.27196   0.49044   0.00000  Uiso   1.00
Cl633  Cl    0.41670   0.27986   0.43447   0.00000  Uiso   1.00
Cl634  Cl    0.58892   0.05738   0.56587   0.00000  Uiso   1.00
Cl635  Cl    0.41300   0.11617   0.37282   0.00000  Uiso   1.00
Cl636  Cl    0.58545   0.21743   0.62734   0.00000  Uiso   1.00
Cl637  Cl    0.41730   0.11146   0.59967   0.00000  Uiso   1.00
Cl638  Cl    0.58038   0.22398   0.39998   0.00000  Uiso   1.00
C639   C     0.83416   0.08743   0.49901   0.00000  Uiso   1.00
C640   C     0.83538   0.24592   0.50117   0.00000  Uiso   1.00
C641   C     0.73466   0.16641   0.48790   0.00000  Uiso   1.00
C642   C     0.93197   0.16655   0.51207   0.00000  Uiso   1.00
C643   C     0.67917   0.16577   0.48133   0.00000  Uiso   1.00
C644   C     0.98738   0.16646   0.51856   0.00000  Uiso   1.00
C645   C     0.80956   0.01763   0.46091   0.00000  Uiso   1.00
C646   C     0.87566   0.31526   0.53137   0.00000  Uiso   1.00
C647   C     0.80147   0.30939   0.46891   0.00000  Uiso   1.00
C648   C     0.87364   0.02503   0.53115   0.00000  Uiso   1.00
C649   C     0.83633   0.29083   0.50245   0.00000  Uiso   1.00
C650   C     0.83828   0.04274   0.49739   0.00000  Uiso   1.00
C651   C     0.79669   0.14392   0.35206   0.00000  Uiso   1.00
C652   C     0.86952   0.18949   0.64803   0.00000  Uiso   1.00
C653   C     0.79710   0.14347   0.63615   0.00000  Uiso   1.00
C654   C     0.86900   0.19027   0.36382   0.00000  Uiso   1.00
Cu655  Cu    0.83333   0.16667   0.54689   0.00000  Uiso   1.00
Cu656  Cu    0.83333   0.16666   0.45311   0.00000  Uiso   1.00
H657   H     0.99231   0.16479   0.44567   0.00000  Uiso   1.00
H658   H     0.67423   0.16762   0.55423   0.00000  Uiso   1.00
N659   N     0.83335   0.16668   0.61736   0.00000  Uiso   1.00
N660   N     0.83332   0.16666   0.38264   0.00000  Uiso   1.00
O661   O     0.83333   0.10655   0.53958   0.00000  Uiso   1.00
O662   O     0.83334   0.22678   0.46042   0.00000  Uiso   1.00
O663   O     0.83333   0.10654   0.46039   0.00000  Uiso   1.00
O664   O     0.83334   0.22679   0.53961   0.00000  Uiso   1.00
O665   O     0.75828   0.16667   0.53046   0.00000  Uiso   1.00
O666   O     0.90839   0.16666   0.46954   0.00000  Uiso   1.00
O667   O     0.75828   0.16666   0.45127   0.00000  Uiso   1.00
O668   O     0.90839   0.16667   0.54873   0.00000  Uiso   1.00
C669   C     0.80995   0.02820   0.41130   0.00000  Uiso   1.00
C670   C     0.76555   0.02267   0.37746   0.00000  Uiso   1.00
C671   C     0.76940   0.02613   0.66326   0.00000  Uiso   1.00
C672   C     0.81720   0.03561   0.64909   0.00000  Uiso   1.00
C673   C     0.86124   0.04236   0.34908   0.00000  Uiso   1.00
C674   C     0.85785   0.03819   0.39646   0.00000  Uiso   1.00
H675   H     0.72798   0.01601   0.38772   0.00000  Uiso   1.00
H676   H     0.73517   0.02238   0.63736   0.00000  Uiso   1.00
H677   H     0.81989   0.03838   0.61233   0.00000  Uiso   1.00
H678   H     0.89821   0.05018   0.33820   0.00000  Uiso   1.00
H679   H     0.89296   0.04175   0.42153   0.00000  Uiso   1.00
C680   C     0.92348   0.29748   0.55493   0.00000  Uiso   1.00
C681   C     0.94060   0.30616   0.60291   0.00000  Uiso   1.00
C682   C     0.98992   0.29556   0.62307   0.00000  Uiso   1.00
C683   C     0.68911   0.27592   0.59567   0.00000  Uiso   1.00
C684   C     0.67242   0.26704   0.54803   0.00000  Uiso   1.00
C685   C     0.95652   0.27768   0.52772   0.00000  Uiso   1.00
H686   H     0.91592   0.32140   0.62455   0.00000  Uiso   1.00
H687   H     0.66927   0.30218   0.66005   0.00000  Uiso   1.00
H688   H     0.72726   0.26771   0.61130   0.00000  Uiso   1.00
H689   H     0.69798   0.25248   0.52667   0.00000  Uiso   1.00
H690   H     0.94496   0.27196   0.49044   0.00000  Uiso   1.00
Cl691  Cl    0.75003   0.27986   0.43447   0.00000  Uiso   1.00
Cl692  Cl    0.92225   0.05738   0.56587   0.00000  Uiso   1.00
Cl693  Cl    0.74634   0.11617   0.37282   0.00000  Uiso   1.00
Cl694  Cl    0.91878   0.21743   0.62734   0.00000  Uiso   1.00
Cl695  Cl    0.75063   0.11146   0.59967   0.00000  Uiso   1.00
Cl696  Cl    0.91371   0.22398   0.39998   0.00000  Uiso   1.00
C697   C     0.16750   0.42076   0.49901   0.00000  Uiso   1.00
C698   C     0.16872   0.57926   0.50117   0.00000  Uiso   1.00
C699   C     0.06799   0.49974   0.48790   0.00000  Uiso   1.00
C700   C     0.26530   0.49989   0.51207   0.00000  Uiso   1.00
C701   C     0.01251   0.49911   0.48133   0.00000  Uiso   1.00
C702   C     0.32071   0.49979   0.51856   0.00000  Uiso   1.00
C703   C     0.14290   0.35097   0.46091   0.00000  Uiso   1.00
C704   C     0.20900   0.64859   0.53137   0.00000  Uiso   1.00
C705   C     0.13480   0.64272   0.46891   0.00000  Uiso   1.00
C706   C     0.20698   0.35836   0.53115   0.00000  Uiso   1.00
C707   C     0.16967   0.62417   0.50245   0.00000  Uiso   1.00
C708   C     0.17162   0.37608   0.49739   0.00000  Uiso   1.00
C709   C     0.13002   0.47726   0.35206   0.00000  Uiso   1.00
C710   C     0.20285   0.52283   0.64803   0.00000  Uiso   1.00
C711   C     0.13044   0.47680   0.63615   0.00000  Uiso   1.00
C712   C     0.20233   0.52360   0.36382   0.00000  Uiso   1.00
Cu713  Cu    0.16667   0.50001   0.54689   0.00000  Uiso   1.00
Cu714  Cu    0.16667   0.49999   0.45311   0.00000  Uiso   1.00
H715   H     0.32564   0.49812   0.44567   0.00000  Uiso   1.00
H716   H     0.00756   0.50096   0.55423   0.00000  Uiso   1.00
N717   N     0.16668   0.50001   0.61736   0.00000  Uiso   1.00
N718   N     0.16665   0.49999   0.38264   0.00000  Uiso   1.00
O719   O     0.16666   0.43989   0.53958   0.00000  Uiso   1.00
O720   O     0.16667   0.56011   0.46042   0.00000  Uiso   1.00
O721   O     0.16666   0.43988   0.46039   0.00000  Uiso   1.00
O722   O     0.16667   0.56012   0.53961   0.00000  Uiso   1.00
O723   O     0.09161   0.50000   0.53046   0.00000  Uiso   1.00
O724   O     0.24172   0.50000   0.46954   0.00000  Uiso   1.00
O725   O     0.09161   0.49999   0.45127   0.00000  Uiso   1.00
O726   O     0.24172   0.50001   0.54873   0.00000  Uiso   1.00
C727   C     0.14328   0.36153   0.41130   0.00000  Uiso   1.00
C728   C     0.09889   0.35601   0.37746   0.00000  Uiso   1.00
C729   C     0.10274   0.35946   0.66326   0.00000  Uiso   1.00
C730   C     0.15054   0.36895   0.64909   0.00000  Uiso   1.00
C731   C     0.19457   0.37569   0.34908   0.00000  Uiso   1.00
C732   C     0.19118   0.37153   0.39646   0.00000  Uiso   1.00
H733   H     0.06131   0.34934   0.38772   0.00000  Uiso   1.00
H734   H     0.06851   0.35571   0.63736   0.00000  Uiso   1.00
H735   H     0.15322   0.37171   0.61233   0.00000  Uiso   1.00
H736   H     0.23154   0.38352   0.33820   0.00000  Uiso   1.00
H737   H     0.22629   0.37508   0.42153   0.00000  Uiso   1.00
C738   C     0.25681   0.63081   0.55493   0.00000  Uiso   1.00
C739   C     0.27394   0.63949   0.60291   0.00000  Uiso   1.00
C740   C     0.32325   0.62890   0.62307   0.00000  Uiso   1.00
C741   C     0.02244   0.60925   0.59567   0.00000  Uiso   1.00
C742   C     0.00575   0.60038   0.54803   0.00000  Uiso   1.00
C743   C     0.28985   0.61101   0.52772   0.00000  Uiso   1.00
H744   H     0.24925   0.65473   0.62455   0.00000  Uiso   1.00
H745   H     0.00261   0.63551   0.66005   0.00000  Uiso   1.00
H746   H     0.06059   0.60104   0.61130   0.00000  Uiso   1.00
H747   H     0.03131   0.58582   0.52667   0.00000  Uiso   1.00
H748   H     0.27829   0.60529   0.49044   0.00000  Uiso   1.00
Cl749  Cl    0.08336   0.61319   0.43447   0.00000  Uiso   1.00
Cl750  Cl    0.25559   0.39071   0.56587   0.00000  Uiso   1.00
Cl751  Cl    0.07967   0.44950   0.37282   0.00000  Uiso   1.00
Cl752  Cl    0.25212   0.55076   0.62734   0.00000  Uiso   1.00
Cl753  Cl    0.08397   0.44479   0.59967   0.00000  Uiso   1.00
Cl754  Cl    0.24705   0.55731   0.39998   0.00000  Uiso   1.00
C755   C     0.50083   0.42076   0.49901   0.00000  Uiso   1.00
C756   C     0.50205   0.57926   0.50117   0.00000  Uiso   1.00
C757   C     0.40132   0.49974   0.48790   0.00000  Uiso   1.00
C758   C     0.59864   0.49989   0.51207   0.00000  Uiso   1.00
C759   C     0.34584   0.49911   0.48133   0.00000  Uiso   1.00
C760   C     0.65405   0.49979   0.51856   0.00000  Uiso   1.00
C761   C     0.47623   0.35097   0.46091   0.00000  Uiso   1.00
C762   C     0.54233   0.64859   0.53137   0.00000  Uiso   1.00
C763   C     0.46814   0.64272   0.46891   0.00000  Uiso   1.00
C764   C     0.54031   0.35836   0.53115   0.00000  Uiso   1.00
C765   C     0.50300   0.62417   0.50245   0.00000  Uiso   1.00
C766   C     0.50495   0.37608   0.49739   0.00000  Uiso   1.00
C767   C     0.46336   0.47726   0.35206   0.00000  Uiso   1.00
C768   C     0.53618   0.52283   0.64803   0.00000  Uiso   1.00
C769   C     0.46377   0.47680   0.63615   0.00000  Uiso   1.00
C770   C     0.53566   0.52360   0.36382   0.00000  Uiso   1.00
Cu771  Cu    0.50000   0.50001   0.54689   0.00000  Uiso   1.00
Cu772  Cu    0.50000   0.49999   0.45311   0.00000  Uiso   1.00
H773   H     0.65897   0.49812   0.44567   0.00000  Uiso   1.00
H774   H     0.34089   0.50096   0.55423   0.00000  Uiso   1.00
N775   N     0.50001   0.50001   0.61736   0.00000  Uiso   1.00
N776   N     0.49999   0.49999   0.38264   0.00000  Uiso   1.00
O777   O     0.50000   0.43989   0.53958   0.00000  Uiso   1.00
O778   O     0.50000   0.56011   0.46042   0.00000  Uiso   1.00
O779   O     0.50000   0.43988   0.46039   0.00000  Uiso   1.00
O780   O     0.50000   0.56012   0.53961   0.00000  Uiso   1.00
O781   O     0.42495   0.50000   0.53046   0.00000  Uiso   1.00
O782   O     0.57505   0.50000   0.46954   0.00000  Uiso   1.00
O783   O     0.42494   0.49999   0.45127   0.00000  Uiso   1.00
O784   O     0.57506   0.50001   0.54873   0.00000  Uiso   1.00
C785   C     0.47662   0.36153   0.41130   0.00000  Uiso   1.00
C786   C     0.43222   0.35601   0.37746   0.00000  Uiso   1.00
C787   C     0.43607   0.35946   0.66326   0.00000  Uiso   1.00
C788   C     0.48387   0.36895   0.64909   0.00000  Uiso   1.00
C789   C     0.52791   0.37569   0.34908   0.00000  Uiso   1.00
C790   C     0.52452   0.37153   0.39646   0.00000  Uiso   1.00
H791   H     0.39464   0.34934   0.38772   0.00000  Uiso   1.00
H792   H     0.40184   0.35571   0.63736   0.00000  Uiso   1.00
H793   H     0.48656   0.37171   0.61233   0.00000  Uiso   1.00
H794   H     0.56488   0.38352   0.33820   0.00000  Uiso   1.00
H795   H     0.55963   0.37508   0.42153   0.00000  Uiso   1.00
C796   C     0.59015   0.63081   0.55493   0.00000  Uiso   1.00
C797   C     0.60727   0.63949   0.60291   0.00000  Uiso   1.00
C798   C     0.65659   0.62890   0.62307   0.00000  Uiso   1.00
C799   C     0.35578   0.60925   0.59567   0.00000  Uiso   1.00
C800   C     0.33909   0.60038   0.54803   0.00000  Uiso   1.00
C801   C     0.62318   0.61101   0.52772   0.00000  Uiso   1.00
H802   H     0.58258   0.65473   0.62455   0.00000  Uiso   1.00
H803   H     0.33594   0.63551   0.66005   0.00000  Uiso   1.00
H804   H     0.39392   0.60104   0.61130   0.00000  Uiso   1.00
H805   H     0.36465   0.58582   0.52667   0.00000  Uiso   1.00
H806   H     0.61162   0.60529   0.49044   0.00000  Uiso   1.00
Cl807  Cl    0.41670   0.61319   0.43447   0.00000  Uiso   1.00
Cl808  Cl    0.58892   0.39071   0.56587   0.00000  Uiso   1.00
Cl809  Cl    0.41300   0.44950   0.37282   0.00000  Uiso   1.00
Cl810  Cl    0.58545   0.55076   0.62734   0.00000  Uiso   1.00
Cl811  Cl    0.41730   0.44479   0.59967   0.00000  Uiso   1.00
Cl812  Cl    0.58038   0.55731   0.39998   0.00000  Uiso   1.00
C813   C     0.83416   0.42076   0.49901   0.00000  Uiso   1.00
C814   C     0.83538   0.57926   0.50117   0.00000  Uiso   1.00
C815   C     0.73466   0.49974   0.48790   0.00000  Uiso   1.00
C816   C     0.93197   0.49989   0.51207   0.00000  Uiso   1.00
C817   C     0.67917   0.49911   0.48133   0.00000  Uiso   1.00
C818   C     0.98738   0.49979   0.51856   0.00000  Uiso   1.00
C819   C     0.80956   0.35097   0.46091   0.00000  Uiso   1.00
C820   C     0.87566   0.64859   0.53137   0.00000  Uiso   1.00
C821   C     0.80147   0.64272   0.46891   0.00000  Uiso   1.00
C822   C     0.87364   0.35836   0.53115   0.00000  Uiso   1.00
C823   C     0.83633   0.62417   0.50245   0.00000  Uiso   1.00
C824   C     0.83828   0.37608   0.49739   0.00000  Uiso   1.00
C825   C     0.79669   0.47726   0.35206   0.00000  Uiso   1.00
C826   C     0.86952   0.52283   0.64803   0.00000  Uiso   1.00
C827   C     0.79710   0.47680   0.63615   0.00000  Uiso   1.00
C828   C     0.86900   0.52360   0.36382   0.00000  Uiso   1.00
Cu829  Cu    0.83333   0.50001   0.54689   0.00000  Uiso   1.00
Cu830  Cu    0.83333   0.49999   0.45311   0.00000  Uiso   1.00
H831   H     0.99231   0.49812   0.44567   0.00000  Uiso   1.00
H832   H     0.67423   0.50096   0.55423   0.00000  Uiso   1.00
N833   N     0.83335   0.50001   0.61736   0.00000  Uiso   1.00
N834   N     0.83332   0.49999   0.38264   0.00000  Uiso   1.00
O835   O     0.83333   0.43989   0.53958   0.00000  Uiso   1.00
O836   O     0.83334   0.56011   0.46042   0.00000  Uiso   1.00
O837   O     0.83333   0.43988   0.46039   0.00000  Uiso   1.00
O838   O     0.83334   0.56012   0.53961   0.00000  Uiso   1.00
O839   O     0.75828   0.50000   0.53046   0.00000  Uiso   1.00
O840   O     0.90839   0.50000   0.46954   0.00000  Uiso   1.00
O841   O     0.75828   0.49999   0.45127   0.00000  Uiso   1.00
O842   O     0.90839   0.50001   0.54873   0.00000  Uiso   1.00
C843   C     0.80995   0.36153   0.41130   0.00000  Uiso   1.00
C844   C     0.76555   0.35601   0.37746   0.00000  Uiso   1.00
C845   C     0.76940   0.35946   0.66326   0.00000  Uiso   1.00
C846   C     0.81720   0.36895   0.64909   0.00000  Uiso   1.00
C847   C     0.86124   0.37569   0.34908   0.00000  Uiso   1.00
C848   C     0.85785   0.37153   0.39646   0.00000  Uiso   1.00
H849   H     0.72798   0.34934   0.38772   0.00000  Uiso   1.00
H850   H     0.73517   0.35571   0.63736   0.00000  Uiso   1.00
H851   H     0.81989   0.37171   0.61233   0.00000  Uiso   1.00
H852   H     0.89821   0.38352   0.33820   0.00000  Uiso   1.00
H853   H     0.89296   0.37508   0.42153   0.00000  Uiso   1.00
C854   C     0.92348   0.63081   0.55493   0.00000  Uiso   1.00
C855   C     0.94060   0.63949   0.60291   0.00000  Uiso   1.00
C856   C     0.98992   0.62890   0.62307   0.00000  Uiso   1.00
C857   C     0.68911   0.60925   0.59567   0.00000  Uiso   1.00
C858   C     0.67242   0.60038   0.54803   0.00000  Uiso   1.00
C859   C     0.95652   0.61101   0.52772   0.00000  Uiso   1.00
H860   H     0.91592   0.65473   0.62455   0.00000  Uiso   1.00
H861   H     0.66927   0.63551   0.66005   0.00000  Uiso   1.00
H862   H     0.72726   0.60104   0.61130   0.00000  Uiso   1.00
H863   H     0.69798   0.58582   0.52667   0.00000  Uiso   1.00
H864   H     0.94496   0.60529   0.49044   0.00000  Uiso   1.00
Cl865  Cl    0.75003   0.61319   0.43447   0.00000  Uiso   1.00
Cl866  Cl    0.92225   0.39071   0.56587   0.00000  Uiso   1.00
Cl867  Cl    0.74634   0.44950   0.37282   0.00000  Uiso   1.00
Cl868  Cl    0.91878   0.55076   0.62734   0.00000  Uiso   1.00
Cl869  Cl    0.75063   0.44479   0.59967   0.00000  Uiso   1.00
Cl870  Cl    0.91371   0.55731   0.39998   0.00000  Uiso   1.00
C871   C     0.16750   0.75410   0.49901   0.00000  Uiso   1.00
C872   C     0.16872   0.91259   0.50117   0.00000  Uiso   1.00
C873   C     0.06799   0.83307   0.48790   0.00000  Uiso   1.00
C874   C     0.26530   0.83322   0.51207   0.00000  Uiso   1.00
C875   C     0.01251   0.83244   0.48133   0.00000  Uiso   1.00
C876   C     0.32071   0.83312   0.51856   0.00000  Uiso   1.00
C877   C     0.14290   0.68430   0.46091   0.00000  Uiso   1.00
C878   C     0.20900   0.98193   0.53137   0.00000  Uiso   1.00
C879   C     0.13480   0.97606   0.46891   0.00000  Uiso   1.00
C880   C     0.20698   0.69169   0.53115   0.00000  Uiso   1.00
C881   C     0.16967   0.95750   0.50245   0.00000  Uiso   1.00
C882   C     0.17162   0.70941   0.49739   0.00000  Uiso   1.00
C883   C     0.13002   0.81059   0.35206   0.00000  Uiso   1.00
C884   C     0.20285   0.85616   0.64803   0.00000  Uiso   1.00
C885   C     0.13044   0.81013   0.63615   0.00000  Uiso   1.00
C886   C     0.20233   0.85694   0.36382   0.00000  Uiso   1.00
Cu887  Cu    0.16667   0.83334   0.54689   0.00000  Uiso   1.00
Cu888  Cu    0.16667   0.83333   0.45311   0.00000  Uiso   1.00
H889   H     0.32564   0.83146   0.44567   0.00000  Uiso   1.00
H890   H     0.00756   0.83429   0.55423   0.00000  Uiso   1.00
N891   N     0.16668   0.83334   0.61736   0.00000  Uiso   1.00
N892   N     0.16665   0.83332   0.38264   0.00000  Uiso   1.00
O893   O     0.16666   0.77322   0.53958   0.00000  Uiso   1.00
O894   O     0.16667   0.89345   0.46042   0.00000  Uiso   1.00
O895   O     0.16666   0.77321   0.46039   0.00000  Uiso   1.00
O896   O     0.16667   0.89346   0.53961   0.00000  Uiso   1.00
O897   O     0.09161   0.83334   0.53046   0.00000  Uiso   1.00
O898   O     0.24172   0.83333   0.46954   0.00000  Uiso   1.00
O899   O     0.09161   0.83333   0.45127   0.00000  Uiso   1.00
O900   O     0.24172   0.83334   0.54873   0.00000  Uiso   1.00
C901   C     0.14328   0.69486   0.41130   0.00000  Uiso   1.00
C902   C     0.09889   0.68934   0.37746   0.00000  Uiso   1.00
C903   C     0.10274   0.69280   0.66326   0.00000  Uiso   1.00
C904   C     0.15054   0.70228   0.64909   0.00000  Uiso   1.00
C905   C     0.19457   0.70903   0.34908   0.00000  Uiso   1.00
C906   C     0.19118   0.70486   0.39646   0.00000  Uiso   1.00
H907   H     0.06131   0.68267   0.38772   0.00000  Uiso   1.00
H908   H     0.06851   0.68904   0.63736   0.00000  Uiso   1.00
H909   H     0.15322   0.70504   0.61233   0.00000  Uiso   1.00
H910   H     0.23154   0.71685   0.33820   0.00000  Uiso   1.00
H911   H     0.22629   0.70842   0.42153   0.00000  Uiso   1.00
C912   C     0.25681   0.96414   0.55493   0.00000  Uiso   1.00
C913   C     0.27394   0.97283   0.60291   0.00000  Uiso   1.00
C914   C     0.32325   0.96223   0.62307   0.00000  Uiso   1.00
C915   C     0.02244   0.94259   0.59567   0.00000  Uiso   1.00
C916   C     0.00575   0.93371   0.54803   0.00000  Uiso   1.00
C917   C     0.28985   0.94435   0.52772   0.00000  Uiso   1.00
H918   H     0.24925   0.98807   0.62455   0.00000  Uiso   1.00
H919   H     0.00261   0.96885   0.66005   0.00000  Uiso   1.00
H920   H     0.06059   0.93438   0.61130   0.00000  Uiso   1.00
H921   H     0.03131   0.91915   0.52667   0.00000  Uiso   1.00
H922   H     0.27829   0.93863   0.49044   0.00000  Uiso   1.00
Cl923  Cl    0.08336   0.94653   0.43447   0.00000  Uiso   1.00
Cl924  Cl    0.25559   0.72405   0.56587   0.00000  Uiso   1.00
Cl925  Cl    0.07967   0.78284   0.37282   0.00000  Uiso   1.00
Cl926  Cl    0.25212   0.88409   0.62734   0.00000  Uiso   1.00
Cl927  Cl    0.08397   0.77813   0.59967   0.00000  Uiso   1.00
Cl928  Cl    0.24705   0.89065   0.39998   0.00000  Uiso   1.00
C929   C     0.50083   0.75410   0.49901   0.00000  Uiso   1.00
C930   C     0.50205   0.91259   0.50117   0.00000  Uiso   1.00
C931   C     0.40132   0.83307   0.48790   0.00000  Uiso   1.00
C932   C     0.59864   0.83322   0.51207   0.00000  Uiso   1.00
C933   C     0.34584   0.83244   0.48133   0.00000  Uiso   1.00
C934   C     0.65405   0.83312   0.51856   0.00000  Uiso   1.00
C935   C     0.47623   0.68430   0.46091   0.00000  Uiso   1.00
C936   C     0.54233   0.98193   0.53137   0.00000  Uiso   1.00
C937   C     0.46814   0.97606   0.46891   0.00000  Uiso   1.00
C938   C     0.54031   0.69169   0.53115   0.00000  Uiso   1.00
C939   C     0.50300   0.95750   0.50245   0.00000  Uiso   1.00
C940   C     0.50495   0.70941   0.49739   0.00000  Uiso   1.00
C941   C     0.46336   0.81059   0.35206   0.00000  Uiso   1.00
C942   C     0.53618   0.85616   0.64803   0.00000  Uiso   1.00
C943   C     0.46377   0.81013   0.63615   0.00000  Uiso   1.00
C944   C     0.53566   0.85694   0.36382   0.00000  Uiso   1.00
Cu945  Cu    0.50000   0.83334   0.54689   0.00000  Uiso   1.00
Cu946  Cu    0.50000   0.83333   0.45311   0.00000  Uiso   1.00
H947   H     0.65897   0.83146   0.44567   0.00000  Uiso   1.00
H948   H     0.34089   0.83429   0.55423   0.00000  Uiso   1.00
N949   N     0.50001   0.83334   0.61736   0.00000  Uiso   1.00
N950   N     0.49999   0.83332   0.38264   0.00000  Uiso   1.00
O951   O     0.50000   0.77322   0.53958   0.00000  Uiso   1.00
O952   O     0.50000   0.89345   0.46042   0.00000  Uiso   1.00
O953   O     0.50000   0.77321   0.46039   0.00000  Uiso   1.00
O954   O     0.50000   0.89346   0.53961   0.00000  Uiso   1.00
O955   O     0.42495   0.83334   0.53046   0.00000  Uiso   1.00
O956   O     0.57505   0.83333   0.46954   0.00000  Uiso   1.00
O957   O     0.42494   0.83333   0.45127   0.00000  Uiso   1.00
O958   O     0.57506   0.83334   0.54873   0.00000  Uiso   1.00
C959   C     0.47662   0.69486   0.41130   0.00000  Uiso   1.00
C960   C     0.43222   0.68934   0.37746   0.00000  Uiso   1.00
C961   C     0.43607   0.69280   0.66326   0.00000  Uiso   1.00
C962   C     0.48387   0.70228   0.64909   0.00000  Uiso   1.00
C963   C     0.52791   0.70903   0.34908   0.00000  Uiso   1.00
C964   C     0.52452   0.70486   0.39646   0.00000  Uiso   1.00
H965   H     0.39464   0.68267   0.38772   0.00000  Uiso   1.00
H966   H     0.40184   0.68904   0.63736   0.00000  Uiso   1.00
H967   H     0.48656   0.70504   0.61233   0.00000  Uiso   1.00
H968   H     0.56488   0.71685   0.33820   0.00000  Uiso   1.00
H969   H     0.55963   0.70842   0.42153   0.00000  Uiso   1.00
C970   C     0.59015   0.96414   0.55493   0.00000  Uiso   1.00
C971   C     0.60727   0.97283   0.60291   0.00000  Uiso   1.00
C972   C     0.65659   0.96223   0.62307   0.00000  Uiso   1.00
C973   C     0.35578   0.94259   0.59567   0.00000  Uiso   1.00
C974   C     0.33909   0.93371   0.54803   0.00000  Uiso   1.00
C975   C     0.62318   0.94435   0.52772   0.00000  Uiso   1.00
H976   H     0.58258   0.98807   0.62455   0.00000  Uiso   1.00
H977   H     0.33594   0.96885   0.66005   0.00000  Uiso   1.00
H978   H     0.39392   0.93438   0.61130   0.00000  Uiso   1.00
H979   H     0.36465   0.91915   0.52667   0.00000  Uiso   1.00
H980   H     0.61162   0.93863   0.49044   0.00000  Uiso   1.00
Cl981  Cl    0.41670   0.94653   0.43447   0.00000  Uiso   1.00
Cl982  Cl    0.58892   0.72405   0.56587   0.00000  Uiso   1.00
Cl983  Cl    0.41300   0.78284   0.37282   0.00000  Uiso   1.00
Cl984  Cl    0.58545   0.88409   0.62734   0.00000  Uiso   1.00
Cl985  Cl    0.41730   0.77813   0.59967   0.00000  Uiso   1.00
Cl986  Cl    0.58038   0.89065   0.39998   0.00000  Uiso   1.00
C987   C     0.83416   0.75410   0.49901   0.00000  Uiso   1.00
C988   C     0.83538   0.91259   0.50117   0.00000  Uiso   1.00
C989   C     0.73466   0.83307   0.48790   0.00000  Uiso   1.00
C990   C     0.93197   0.83322   0.51207   0.00000  Uiso   1.00
C991   C     0.67917   0.83244   0.48133   0.00000  Uiso   1.00
C992   C     0.98738   0.83312   0.51856   0.00000  Uiso   1.00
C993   C     0.80956   0.68430   0.46091   0.00000  Uiso   1.00
C994   C     0.87566   0.98193   0.53137   0.00000  Uiso   1.00
C995   C     0.80147   0.97606   0.46891   0.00000  Uiso   1.00
C996   C     0.87364   0.69169   0.53115   0.00000  Uiso   1.00
C997   C     0.83633   0.95750   0.50245   0.00000  Uiso   1.00
C998   C     0.83828   0.70941   0.49739   0.00000  Uiso   1.00
C999   C     0.79669   0.81059   0.35206   0.00000  Uiso   1.00
C1000  C     0.86952   0.85616   0.64803   0.00000  Uiso   1.00
C1001  C     0.79710   0.81013   0.63615   0.00000  Uiso   1.00
C1002  C     0.86900   0.85694   0.36382   0.00000  Uiso   1.00
Cu1003 Cu    0.83333   0.83334   0.54689   0.00000  Uiso   1.00
Cu1004 Cu    0.83333   0.83333   0.45311   0.00000  Uiso   1.00
H1005  H     0.99231   0.83146   0.44567   0.00000  Uiso   1.00
H1006  H     0.67423   0.83429   0.55423   0.00000  Uiso   1.00
N1007  N     0.83335   0.83334   0.61736   0.00000  Uiso   1.00
N1008  N     0.83332   0.83332   0.38264   0.00000  Uiso   1.00
O1009  O     0.83333   0.77322   0.53958   0.00000  Uiso   1.00
O1010  O     0.83334   0.89345   0.46042   0.00000  Uiso   1.00
O1011  O     0.83333   0.77321   0.46039   0.00000  Uiso   1.00
O1012  O     0.83334   0.89346   0.53961   0.00000  Uiso   1.00
O1013  O     0.75828   0.83334   0.53046   0.00000  Uiso   1.00
O1014  O     0.90839   0.83333   0.46954   0.00000  Uiso   1.00
O1015  O     0.75828   0.83333   0.45127   0.00000  Uiso   1.00
O1016  O     0.90839   0.83334   0.54873   0.00000  Uiso   1.00
C1017  C     0.80995   0.69486   0.41130   0.00000  Uiso   1.00
C1018  C     0.76555   0.68934   0.37746   0.00000  Uiso   1.00
C1019  C     0.76940   0.69280   0.66326   0.00000  Uiso   1.00
C1020  C     0.81720   0.70228   0.64909   0.00000  Uiso   1.00
C1021  C     0.86124   0.70903   0.34908   0.00000  Uiso   1.00
C1022  C     0.85785   0.70486   0.39646   0.00000  Uiso   1.00
H1023  H     0.72798   0.68267   0.38772   0.00000  Uiso   1.00
H1024  H     0.73517   0.68904   0.63736   0.00000  Uiso   1.00
H1025  H     0.81989   0.70504   0.61233   0.00000  Uiso   1.00
H1026  H     0.89821   0.71685   0.33820   0.00000  Uiso   1.00
H1027  H     0.89296   0.70842   0.42153   0.00000  Uiso   1.00
C1028  C     0.92348   0.96414   0.55493   0.00000  Uiso   1.00
C1029  C     0.94060   0.97283   0.60291   0.00000  Uiso   1.00
C1030  C     0.98992   0.96223   0.62307   0.00000  Uiso   1.00
C1031  C     0.68911   0.94259   0.59567   0.00000  Uiso   1.00
C1032  C     0.67242   0.93371   0.54803   0.00000  Uiso   1.00
C1033  C     0.95652   0.94435   0.52772   0.00000  Uiso   1.00
H1034  H     0.91592   0.98807   0.62455   0.00000  Uiso   1.00
H1035  H     0.66927   0.96885   0.66005   0.00000  Uiso   1.00
H1036  H     0.72726   0.93438   0.61130   0.00000  Uiso   1.00
H1037  H     0.69798   0.91915   0.52667   0.00000  Uiso   1.00
H1038  H     0.94496   0.93863   0.49044   0.00000  Uiso   1.00
Cl1039 Cl    0.75003   0.94653   0.43447   0.00000  Uiso   1.00
Cl1040 Cl    0.92225   0.72405   0.56587   0.00000  Uiso   1.00
Cl1041 Cl    0.74634   0.78284   0.37282   0.00000  Uiso   1.00
Cl1042 Cl    0.91878   0.88409   0.62734   0.00000  Uiso   1.00
Cl1043 Cl    0.75063   0.77813   0.59967   0.00000  Uiso   1.00
Cl1044 Cl    0.91371   0.89065   0.39998   0.00000  Uiso   1.00
C1045  C     0.16750   0.08743   0.83235   0.00000  Uiso   1.00
C1046  C     0.16872   0.24592   0.83451   0.00000  Uiso   1.00
C1047  C     0.06799   0.16641   0.82123   0.00000  Uiso   1.00
C1048  C     0.26530   0.16655   0.84540   0.00000  Uiso   1.00
C1049  C     0.01251   0.16577   0.81467   0.00000  Uiso   1.00
C1050  C     0.32071   0.16646   0.85190   0.00000  Uiso   1.00
C1051  C     0.14290   0.01763   0.79424   0.00000  Uiso   1.00
C1052  C     0.20900   0.31526   0.86470   0.00000  Uiso   1.00
C1053  C     0.13480   0.30939   0.80224   0.00000  Uiso   1.00
C1054  C     0.20698   0.02503   0.86448   0.00000  Uiso   1.00
C1055  C     0.16967   0.29083   0.83578   0.00000  Uiso   1.00
C1056  C     0.17162   0.04274   0.83072   0.00000  Uiso   1.00
C1057  C     0.13002   0.14392   0.68539   0.00000  Uiso   1.00
C1058  C     0.20285   0.18949   0.98136   0.00000  Uiso   1.00
C1059  C     0.13044   0.14347   0.96948   0.00000  Uiso   1.00
C1060  C     0.20233   0.19027   0.69715   0.00000  Uiso   1.00
Cu1061 Cu    0.16667   0.16667   0.88022   0.00000  Uiso   1.00
Cu1062 Cu    0.16667   0.16666   0.78645   0.00000  Uiso   1.00
H1063  H     0.32564   0.16479   0.77900   0.00000  Uiso   1.00
H1064  H     0.00756   0.16762   0.88756   0.00000  Uiso   1.00
N1065  N     0.16668   0.16668   0.95069   0.00000  Uiso   1.00
N1066  N     0.16665   0.16666   0.71597   0.00000  Uiso   1.00
O1067  O     0.16666   0.10655   0.87291   0.00000  Uiso   1.00
O1068  O     0.16667   0.22678   0.79375   0.00000  Uiso   1.00
O1069  O     0.16666   0.10654   0.79372   0.00000  Uiso   1.00
O1070  O     0.16667   0.22679   0.87294   0.00000  Uiso   1.00
O1071  O     0.09161   0.16667   0.86379   0.00000  Uiso   1.00
O1072  O     0.24172   0.16666   0.80288   0.00000  Uiso   1.00
O1073  O     0.09161   0.16666   0.78460   0.00000  Uiso   1.00
O1074  O     0.24172   0.16667   0.88207   0.00000  Uiso   1.00
C1075  C     0.14328   0.02820   0.74463   0.00000  Uiso   1.00
C1076  C     0.09889   0.02267   0.71079   0.00000  Uiso   1.00
C1077  C     0.10274   0.02613   0.99659   0.00000  Uiso   1.00
C1078  C     0.15054   0.03561   0.98243   0.00000  Uiso   1.00
C1079  C     0.19457   0.04236   0.68242   0.00000  Uiso   1.00
C1080  C     0.19118   0.03819   0.72979   0.00000  Uiso   1.00
H1081  H     0.06131   0.01601   0.72106   0.00000  Uiso   1.00
H1082  H     0.06851   0.02238   0.97069   0.00000  Uiso   1.00
H1083  H     0.15322   0.03838   0.94566   0.00000  Uiso   1.00
H1084  H     0.23154   0.05018   0.67153   0.00000  Uiso   1.00
H1085  H     0.22629   0.04175   0.75486   0.00000  Uiso   1.00
C1086  C     0.25681   0.29748   0.88827   0.00000  Uiso   1.00
C1087  C     0.27394   0.30616   0.93624   0.00000  Uiso   1.00
C1088  C     0.32325   0.29556   0.95640   0.00000  Uiso   1.00
C1089  C     0.02244   0.27592   0.92900   0.00000  Uiso   1.00
C1090  C     0.00575   0.26704   0.88136   0.00000  Uiso   1.00
C1091  C     0.28985   0.27768   0.86105   0.00000  Uiso   1.00
H1092  H     0.24925   0.32140   0.95788   0.00000  Uiso   1.00
H1093  H     0.00261   0.30218   0.99338   0.00000  Uiso   1.00
H1094  H     0.06059   0.26771   0.94464   0.00000  Uiso   1.00
H1095  H     0.03131   0.25248   0.86001   0.00000  Uiso   1.00
H1096  H     0.27829   0.27196   0.82377   0.00000  Uiso   1.00
Cl1097 Cl    0.08336   0.27986   0.76780   0.00000  Uiso   1.00
Cl1098 Cl    0.25559   0.05738   0.89920   0.00000  Uiso   1.00
Cl1099 Cl    0.07967   0.11617   0.70615   0.00000  Uiso   1.00
Cl1100 Cl    0.25212   0.21743   0.96067   0.00000  Uiso   1.00
Cl1101 Cl    0.08397   0.11146   0.93300   0.00000  Uiso   1.00
Cl1102 Cl    0.24705   0.22398   0.73331   0.00000  Uiso   1.00
C1103  C     0.50083   0.08743   0.83235   0.00000  Uiso   1.00
C1104  C     0.50205   0.24592   0.83451   0.00000  Uiso   1.00
C1105  C     0.40132   0.16641   0.82123   0.00000  Uiso   1.00
C1106  C     0.59864   0.16655   0.84540   0.00000  Uiso   1.00
C1107  C     0.34584   0.16577   0.81467   0.00000  Uiso   1.00
C1108  C     0.65405   0.16646   0.85190   0.00000  Uiso   1.00
C1109  C     0.47623   0.01763   0.79424   0.00000  Uiso   1.00
C1110  C     0.54233   0.31526   0.86470   0.00000  Uiso   1.00
C1111  C     0.46814   0.30939   0.80224   0.00000  Uiso   1.00
C1112  C     0.54031   0.02503   0.86448   0.00000  Uiso   1.00
C1113  C     0.50300   0.29083   0.83578   0.00000  Uiso   1.00
C1114  C     0.50495   0.04274   0.83072   0.00000  Uiso   1.00
C1115  C     0.46336   0.14392   0.68539   0.00000  Uiso   1.00
C1116  C     0.53618   0.18949   0.98136   0.00000  Uiso   1.00
C1117  C     0.46377   0.14347   0.96948   0.00000  Uiso   1.00
C1118  C     0.53566   0.19027   0.69715   0.00000  Uiso   1.00
Cu1119 Cu    0.50000   0.16667   0.88022   0.00000  Uiso   1.00
Cu1120 Cu    0.50000   0.16666   0.78645   0.00000  Uiso   1.00
H1121  H     0.65897   0.16479   0.77900   0.00000  Uiso   1.00
H1122  H     0.34089   0.16762   0.88756   0.00000  Uiso   1.00
N1123  N     0.50001   0.16668   0.95069   0.00000  Uiso   1.00
N1124  N     0.49999   0.16666   0.71597   0.00000  Uiso   1.00
O1125  O     0.50000   0.10655   0.87291   0.00000  Uiso   1.00
O1126  O     0.50000   0.22678   0.79375   0.00000  Uiso   1.00
O1127  O     0.50000   0.10654   0.79372   0.00000  Uiso   1.00
O1128  O     0.50000   0.22679   0.87294   0.00000  Uiso   1.00
O1129  O     0.42495   0.16667   0.86379   0.00000  Uiso   1.00
O1130  O     0.57505   0.16666   0.80288   0.00000  Uiso   1.00
O1131  O     0.42494   0.16666   0.78460   0.00000  Uiso   1.00
O1132  O     0.57506   0.16667   0.88207   0.00000  Uiso   1.00
C1133  C     0.47662   0.02820   0.74463   0.00000  Uiso   1.00
C1134  C     0.43222   0.02267   0.71079   0.00000  Uiso   1.00
C1135  C     0.43607   0.02613   0.99659   0.00000  Uiso   1.00
C1136  C     0.48387   0.03561   0.98243   0.00000  Uiso   1.00
C1137  C     0.52791   0.04236   0.68242   0.00000  Uiso   1.00
C1138  C     0.52452   0.03819   0.72979   0.00000  Uiso   1.00
H1139  H     0.39464   0.01601   0.72106   0.00000  Uiso   1.00
H1140  H     0.40184   0.02238   0.97069   0.00000  Uiso   1.00
H1141  H     0.48656   0.03838   0.94566   0.00000  Uiso   1.00
H1142  H     0.56488   0.05018   0.67153   0.00000  Uiso   1.00
H1143  H     0.55963   0.04175   0.75486   0.00000  Uiso   1.00
C1144  C     0.59015   0.29748   0.88827   0.00000  Uiso   1.00
C1145  C     0.60727   0.30616   0.93624   0.00000  Uiso   1.00
C1146  C     0.65659   0.29556   0.95640   0.00000  Uiso   1.00
C1147  C     0.35578   0.27592   0.92900   0.00000  Uiso   1.00
C1148  C     0.33909   0.26704   0.88136   0.00000  Uiso   1.00
C1149  C     0.62318   0.27768   0.86105   0.00000  Uiso   1.00
H1150  H     0.58258   0.32140   0.95788   0.00000  Uiso   1.00
H1151  H     0.33594   0.30218   0.99338   0.00000  Uiso   1.00
H1152  H     0.39392   0.26771   0.94464   0.00000  Uiso   1.00
H1153  H     0.36465   0.25248   0.86001   0.00000  Uiso   1.00
H1154  H     0.61162   0.27196   0.82377   0.00000  Uiso   1.00
Cl1155 Cl    0.41670   0.27986   0.76780   0.00000  Uiso   1.00
Cl1156 Cl    0.58892   0.05738   0.89920   0.00000  Uiso   1.00
Cl1157 Cl    0.41300   0.11617   0.70615   0.00000  Uiso   1.00
Cl1158 Cl    0.58545   0.21743   0.96067   0.00000  Uiso   1.00
Cl1159 Cl    0.41730   0.11146   0.93300   0.00000  Uiso   1.00
Cl1160 Cl    0.58038   0.22398   0.73331   0.00000  Uiso   1.00
C1161  C     0.83416   0.08743   0.83235   0.00000  Uiso   1.00
C1162  C     0.83538   0.24592   0.83451   0.00000  Uiso   1.00
C1163  C     0.73466   0.16641   0.82123   0.00000  Uiso   1.00
C1164  C     0.93197   0.16655   0.84540   0.00000  Uiso   1.00
C1165  C     0.67917   0.16577   0.81467   0.00000  Uiso   1.00
C1166  C     0.98738   0.16646   0.85190   0.00000  Uiso   1.00
C1167  C     0.80956   0.01763   0.79424   0.00000  Uiso   1.00
C1168  C     0.87566   0.31526   0.86470   0.00000  Uiso   1.00
C1169  C     0.80147   0.30939   0.80224   0.00000  Uiso   1.00
C1170  C     0.87364   0.02503   0.86448   0.00000  Uiso   1.00
C1171  C     0.83633   0.29083   0.83578   0.00000  Uiso   1.00
C1172  C     0.83828   0.04274   0.83072   0.00000  Uiso   1.00
C1173  C     0.79669   0.14392   0.68539   0.00000  Uiso   1.00
C1174  C     0.86952   0.18949   0.98136   0.00000  Uiso   1.00
C1175  C     0.79710   0.14347   0.96948   0.00000  Uiso   1.00
C1176  C     0.86900   0.19027   0.69715   0.00000  Uiso   1.00
Cu1177 Cu    0.83333   0.16667   0.88022   0.00000  Uiso   1.00
Cu1178 Cu    0.83333   0.16666   0.78645   0.00000  Uiso   1.00
H1179  H     0.99231   0.16479   0.77900   0.00000  Uiso   1.00
H1180  H     0.67423   0.16762   0.88756   0.00000  Uiso   1.00
N1181  N     0.83335   0.16668   0.95069   0.00000  Uiso   1.00
N1182  N     0.83332   0.16666   0.71597   0.00000  Uiso   1.00
O1183  O     0.83333   0.10655   0.87291   0.00000  Uiso   1.00
O1184  O     0.83334   0.22678   0.79375   0.00000  Uiso   1.00
O1185  O     0.83333   0.10654   0.79372   0.00000  Uiso   1.00
O1186  O     0.83334   0.22679   0.87294   0.00000  Uiso   1.00
O1187  O     0.75828   0.16667   0.86379   0.00000  Uiso   1.00
O1188  O     0.90839   0.16666   0.80288   0.00000  Uiso   1.00
O1189  O     0.75828   0.16666   0.78460   0.00000  Uiso   1.00
O1190  O     0.90839   0.16667   0.88207   0.00000  Uiso   1.00
C1191  C     0.80995   0.02820   0.74463   0.00000  Uiso   1.00
C1192  C     0.76555   0.02267   0.71079   0.00000  Uiso   1.00
C1193  C     0.76940   0.02613   0.99659   0.00000  Uiso   1.00
C1194  C     0.81720   0.03561   0.98243   0.00000  Uiso   1.00
C1195  C     0.86124   0.04236   0.68242   0.00000  Uiso   1.00
C1196  C     0.85785   0.03819   0.72979   0.00000  Uiso   1.00
H1197  H     0.72798   0.01601   0.72106   0.00000  Uiso   1.00
H1198  H     0.73517   0.02238   0.97069   0.00000  Uiso   1.00
H1199  H     0.81989   0.03838   0.94566   0.00000  Uiso   1.00
H1200  H     0.89821   0.05018   0.67153   0.00000  Uiso   1.00
H1201  H     0.89296   0.04175   0.75486   0.00000  Uiso   1.00
C1202  C     0.92348   0.29748   0.88827   0.00000  Uiso   1.00
C1203  C     0.94060   0.30616   0.93624   0.00000  Uiso   1.00
C1204  C     0.98992   0.29556   0.95640   0.00000  Uiso   1.00
C1205  C     0.68911   0.27592   0.92900   0.00000  Uiso   1.00
C1206  C     0.67242   0.26704   0.88136   0.00000  Uiso   1.00
C1207  C     0.95652   0.27768   0.86105   0.00000  Uiso   1.00
H1208  H     0.91592   0.32140   0.95788   0.00000  Uiso   1.00
H1209  H     0.66927   0.30218   0.99338   0.00000  Uiso   1.00
H1210  H     0.72726   0.26771   0.94464   0.00000  Uiso   1.00
H1211  H     0.69798   0.25248   0.86001   0.00000  Uiso   1.00
H1212  H     0.94496   0.27196   0.82377   0.00000  Uiso   1.00
Cl1213 Cl    0.75003   0.27986   0.76780   0.00000  Uiso   1.00
Cl1214 Cl    0.92225   0.05738   0.89920   0.00000  Uiso   1.00
Cl1215 Cl    0.74634   0.11617   0.70615   0.00000  Uiso   1.00
Cl1216 Cl    0.91878   0.21743   0.96067   0.00000  Uiso   1.00
Cl1217 Cl    0.75063   0.11146   0.93300   0.00000  Uiso   1.00
Cl1218 Cl    0.91371   0.22398   0.73331   0.00000  Uiso   1.00
C1219  C     0.16750   0.42076   0.83235   0.00000  Uiso   1.00
C1220  C     0.16872   0.57926   0.83451   0.00000  Uiso   1.00
C1221  C     0.06799   0.49974   0.82123   0.00000  Uiso   1.00
C1222  C     0.26530   0.49989   0.84540   0.00000  Uiso   1.00
C1223  C     0.01251   0.49911   0.81467   0.00000  Uiso   1.00
C1224  C     0.32071   0.49979   0.85190   0.00000  Uiso   1.00
C1225  C     0.14290   0.35097   0.79424   0.00000  Uiso   1.00
C1226  C     0.20900   0.64859   0.86470   0.00000  Uiso   1.00
C1227  C     0.13480   0.64272   0.80224   0.00000  Uiso   1.00
C1228  C     0.20698   0.35836   0.86448   0.00000  Uiso   1.00
C1229  C     0.16967   0.62417   0.83578   0.00000  Uiso   1.00
C1230  C     0.17162   0.37608   0.83072   0.00000  Uiso   1.00
C1231  C     0.13002   0.47726   0.68539   0.00000  Uiso   1.00
C1232  C     0.20285   0.52283   0.98136   0.00000  Uiso   1.00
C1233  C     0.13044   0.47680   0.96948   0.00000  Uiso   1.00
C1234  C     0.20233   0.52360   0.69715   0.00000  Uiso   1.00
Cu1235 Cu    0.16667   0.50001   0.88022   0.00000  Uiso   1.00
Cu1236 Cu    0.16667   0.49999   0.78645   0.00000  Uiso   1.00
H1237  H     0.32564   0.49812   0.77900   0.00000  Uiso   1.00
H1238  H     0.00756   0.50096   0.88756   0.00000  Uiso   1.00
N1239  N     0.16668   0.50001   0.95069   0.00000  Uiso   1.00
N1240  N     0.16665   0.49999   0.71597   0.00000  Uiso   1.00
O1241  O     0.16666   0.43989   0.87291   0.00000  Uiso   1.00
O1242  O     0.16667   0.56011   0.79375   0.00000  Uiso   1.00
O1243  O     0.16666   0.43988   0.79372   0.00000  Uiso   1.00
O1244  O     0.16667   0.56012   0.87294   0.00000  Uiso   1.00
O1245  O     0.09161   0.50000   0.86379   0.00000  Uiso   1.00
O1246  O     0.24172   0.50000   0.80288   0.00000  Uiso   1.00
O1247  O     0.09161   0.49999   0.78460   0.00000  Uiso   1.00
O1248  O     0.24172   0.50001   0.88207   0.00000  Uiso   1.00
C1249  C     0.14328   0.36153   0.74463   0.00000  Uiso   1.00
C1250  C     0.09889   0.35601   0.71079   0.00000  Uiso   1.00
C1251  C     0.10274   0.35946   0.99659   0.00000  Uiso   1.00
C1252  C     0.15054   0.36895   0.98243   0.00000  Uiso   1.00
C1253  C     0.19457   0.37569   0.68242   0.00000  Uiso   1.00
C1254  C     0.19118   0.37153   0.72979   0.00000  Uiso   1.00
H1255  H     0.06131   0.34934   0.72106   0.00000  Uiso   1.00
H1256  H     0.06851   0.35571   0.97069   0.00000  Uiso   1.00
H1257  H     0.15322   0.37171   0.94566   0.00000  Uiso   1.00
H1258  H     0.23154   0.38352   0.67153   0.00000  Uiso   1.00
H1259  H     0.22629   0.37508   0.75486   0.00000  Uiso   1.00
C1260  C     0.25681   0.63081   0.88827   0.00000  Uiso   1.00
C1261  C     0.27394   0.63949   0.93624   0.00000  Uiso   1.00
C1262  C     0.32325   0.62890   0.95640   0.00000  Uiso   1.00
C1263  C     0.02244   0.60925   0.92900   0.00000  Uiso   1.00
C1264  C     0.00575   0.60038   0.88136   0.00000  Uiso   1.00
C1265  C     0.28985   0.61101   0.86105   0.00000  Uiso   1.00
H1266  H     0.24925   0.65473   0.95788   0.00000  Uiso   1.00
H1267  H     0.00261   0.63551   0.99338   0.00000  Uiso   1.00
H1268  H     0.06059   0.60104   0.94464   0.00000  Uiso   1.00
H1269  H     0.03131   0.58582   0.86001   0.00000  Uiso   1.00
H1270  H     0.27829   0.60529   0.82377   0.00000  Uiso   1.00
Cl1271 Cl    0.08336   0.61319   0.76780   0.00000  Uiso   1.00
Cl1272 Cl    0.25559   0.39071   0.89920   0.00000  Uiso   1.00
Cl1273 Cl    0.07967   0.44950   0.70615   0.00000  Uiso   1.00
Cl1274 Cl    0.25212   0.55076   0.96067   0.00000  Uiso   1.00
Cl1275 Cl    0.08397   0.44479   0.93300   0.00000  Uiso   1.00
Cl1276 Cl    0.24705   0.55731   0.73331   0.00000  Uiso   1.00
C1277  C     0.50083   0.42076   0.83235   0.00000  Uiso   1.00
C1278  C     0.50205   0.57926   0.83451   0.00000  Uiso   1.00
C1279  C     0.40132   0.49974   0.82123   0.00000  Uiso   1.00
C1280  C     0.59864   0.49989   0.84540   0.00000  Uiso   1.00
C1281  C     0.34584   0.49911   0.81467   0.00000  Uiso   1.00
C1282  C     0.65405   0.49979   0.85190   0.00000  Uiso   1.00
C1283  C     0.47623   0.35097   0.79424   0.00000  Uiso   1.00
C1284  C     0.54233   0.64859   0.86470   0.00000  Uiso   1.00
C1285  C     0.46814   0.64272   0.80224   0.00000  Uiso   1.00
C1286  C     0.54031   0.35836   0.86448   0.00000  Uiso   1.00
C1287  C     0.50300   0.62417   0.83578   0.00000  Uiso   1.00
C1288  C     0.50495   0.37608   0.83072   0.00000  Uiso   1.00
C1289  C     0.46336   0.47726   0.68539   0.00000  Uiso   1.00
C1290  C     0.53618   0.52283   0.98136   0.00000  Uiso   1.00
C1291  C     0.46377   0.47680   0.96948   0.00000  Uiso   1.00
C1292  C     0.53566   0.52360   0.69715   0.00000  Uiso   1.00
Cu1293 Cu    0.50000   0.50001   0.88022   0.00000  Uiso   1.00
Cu1294 Cu    0.50000   0.49999   0.78645   0.00000  Uiso   1.00
H1295  H     0.65897   0.49812   0.77900   0.00000  Uiso   1.00
H1296  H     0.34089   0.50096   0.88756   0.00000  Uiso   1.00
N1297  N     0.50001   0.50001   0.95069   0.00000  Uiso   1.00
N1298  N     0.49999   0.49999   0.71597   0.00000  Uiso   1.00
O1299  O     0.50000   0.43989   0.87291   0.00000  Uiso   1.00
O1300  O     0.50000   0.56011   0.79375   0.00000  Uiso   1.00
O1301  O     0.50000   0.43988   0.79372   0.00000  Uiso   1.00
O1302  O     0.50000   0.56012   0.87294   0.00000  Uiso   1.00
O1303  O     0.42495   0.50000   0.86379   0.00000  Uiso   1.00
O1304  O     0.57505   0.50000   0.80288   0.00000  Uiso   1.00
O1305  O     0.42494   0.49999   0.78460   0.00000  Uiso   1.00
O1306  O     0.57506   0.50001   0.88207   0.00000  Uiso   1.00
C1307  C     0.47662   0.36153   0.74463   0.00000  Uiso   1.00
C1308  C     0.43222   0.35601   0.71079   0.00000  Uiso   1.00
C1309  C     0.43607   0.35946   0.99659   0.00000  Uiso   1.00
C1310  C     0.48387   0.36895   0.98243   0.00000  Uiso   1.00
C1311  C     0.52791   0.37569   0.68242   0.00000  Uiso   1.00
C1312  C     0.52452   0.37153   0.72979   0.00000  Uiso   1.00
H1313  H     0.39464   0.34934   0.72106   0.00000  Uiso   1.00
H1314  H     0.40184   0.35571   0.97069   0.00000  Uiso   1.00
H1315  H     0.48656   0.37171   0.94566   0.00000  Uiso   1.00
H1316  H     0.56488   0.38352   0.67153   0.00000  Uiso   1.00
H1317  H     0.55963   0.37508   0.75486   0.00000  Uiso   1.00
C1318  C     0.59015   0.63081   0.88827   0.00000  Uiso   1.00
C1319  C     0.60727   0.63949   0.93624   0.00000  Uiso   1.00
C1320  C     0.65659   0.62890   0.95640   0.00000  Uiso   1.00
C1321  C     0.35578   0.60925   0.92900   0.00000  Uiso   1.00
C1322  C     0.33909   0.60038   0.88136   0.00000  Uiso   1.00
C1323  C     0.62318   0.61101   0.86105   0.00000  Uiso   1.00
H1324  H     0.58258   0.65473   0.95788   0.00000  Uiso   1.00
H1325  H     0.33594   0.63551   0.99338   0.00000  Uiso   1.00
H1326  H     0.39392   0.60104   0.94464   0.00000  Uiso   1.00
H1327  H     0.36465   0.58582   0.86001   0.00000  Uiso   1.00
H1328  H     0.61162   0.60529   0.82377   0.00000  Uiso   1.00
Cl1329 Cl    0.41670   0.61319   0.76780   0.00000  Uiso   1.00
Cl1330 Cl    0.58892   0.39071   0.89920   0.00000  Uiso   1.00
Cl1331 Cl    0.41300   0.44950   0.70615   0.00000  Uiso   1.00
Cl1332 Cl    0.58545   0.55076   0.96067   0.00000  Uiso   1.00
Cl1333 Cl    0.41730   0.44479   0.93300   0.00000  Uiso   1.00
Cl1334 Cl    0.58038   0.55731   0.73331   0.00000  Uiso   1.00
C1335  C     0.83416   0.42076   0.83235   0.00000  Uiso   1.00
C1336  C     0.83538   0.57926   0.83451   0.00000  Uiso   1.00
C1337  C     0.73466   0.49974   0.82123   0.00000  Uiso   1.00
C1338  C     0.93197   0.49989   0.84540   0.00000  Uiso   1.00
C1339  C     0.67917   0.49911   0.81467   0.00000  Uiso   1.00
C1340  C     0.98738   0.49979   0.85190   0.00000  Uiso   1.00
C1341  C     0.80956   0.35097   0.79424   0.00000  Uiso   1.00
C1342  C     0.87566   0.64859   0.86470   0.00000  Uiso   1.00
C1343  C     0.80147   0.64272   0.80224   0.00000  Uiso   1.00
C1344  C     0.87364   0.35836   0.86448   0.00000  Uiso   1.00
C1345  C     0.83633   0.62417   0.83578   0.00000  Uiso   1.00
C1346  C     0.83828   0.37608   0.83072   0.00000  Uiso   1.00
C1347  C     0.79669   0.47726   0.68539   0.00000  Uiso   1.00
C1348  C     0.86952   0.52283   0.98136   0.00000  Uiso   1.00
C1349  C     0.79710   0.47680   0.96948   0.00000  Uiso   1.00
C1350  C     0.86900   0.52360   0.69715   0.00000  Uiso   1.00
Cu1351 Cu    0.83333   0.50001   0.88022   0.00000  Uiso   1.00
Cu1352 Cu    0.83333   0.49999   0.78645   0.00000  Uiso   1.00
H1353  H     0.99231   0.49812   0.77900   0.00000  Uiso   1.00
H1354  H     0.67423   0.50096   0.88756   0.00000  Uiso   1.00
N1355  N     0.83335   0.50001   0.95069   0.00000  Uiso   1.00
N1356  N     0.83332   0.49999   0.71597   0.00000  Uiso   1.00
O1357  O     0.83333   0.43989   0.87291   0.00000  Uiso   1.00
O1358  O     0.83334   0.56011   0.79375   0.00000  Uiso   1.00
O1359  O     0.83333   0.43988   0.79372   0.00000  Uiso   1.00
O1360  O     0.83334   0.56012   0.87294   0.00000  Uiso   1.00
O1361  O     0.75828   0.50000   0.86379   0.00000  Uiso   1.00
O1362  O     0.90839   0.50000   0.80288   0.00000  Uiso   1.00
O1363  O     0.75828   0.49999   0.78460   0.00000  Uiso   1.00
O1364  O     0.90839   0.50001   0.88207   0.00000  Uiso   1.00
C1365  C     0.80995   0.36153   0.74463   0.00000  Uiso   1.00
C1366  C     0.76555   0.35601   0.71079   0.00000  Uiso   1.00
C1367  C     0.76940   0.35946   0.99659   0.00000  Uiso   1.00
C1368  C     0.81720   0.36895   0.98243   0.00000  Uiso   1.00
C1369  C     0.86124   0.37569   0.68242   0.00000  Uiso   1.00
C1370  C     0.85785   0.37153   0.72979   0.00000  Uiso   1.00
H1371  H     0.72798   0.34934   0.72106   0.00000  Uiso   1.00
H1372  H     0.73517   0.35571   0.97069   0.00000  Uiso   1.00
H1373  H     0.81989   0.37171   0.94566   0.00000  Uiso   1.00
H1374  H     0.89821   0.38352   0.67153   0.00000  Uiso   1.00
H1375  H     0.89296   0.37508   0.75486   0.00000  Uiso   1.00
C1376  C     0.92348   0.63081   0.88827   0.00000  Uiso   1.00
C1377  C     0.94060   0.63949   0.93624   0.00000  Uiso   1.00
C1378  C     0.98992   0.62890   0.95640   0.00000  Uiso   1.00
C1379  C     0.68911   0.60925   0.92900   0.00000  Uiso   1.00
C1380  C     0.67242   0.60038   0.88136   0.00000  Uiso   1.00
C1381  C     0.95652   0.61101   0.86105   0.00000  Uiso   1.00
H1382  H     0.91592   0.65473   0.95788   0.00000  Uiso   1.00
H1383  H     0.66927   0.63551   0.99338   0.00000  Uiso   1.00
H1384  H     0.72726   0.60104   0.94464   0.00000  Uiso   1.00
H1385  H     0.69798   0.58582   0.86001   0.00000  Uiso   1.00
H1386  H     0.94496   0.60529   0.82377   0.00000  Uiso   1.00
Cl1387 Cl    0.75003   0.61319   0.76780   0.00000  Uiso   1.00
Cl1388 Cl    0.92225   0.39071   0.89920   0.00000  Uiso   1.00
Cl1389 Cl    0.74634   0.44950   0.70615   0.00000  Uiso   1.00
Cl1390 Cl    0.91878   0.55076   0.96067   0.00000  Uiso   1.00
Cl1391 Cl    0.75063   0.44479   0.93300   0.00000  Uiso   1.00
Cl1392 Cl    0.91371   0.55731   0.73331   0.00000  Uiso   1.00
C1393  C     0.16750   0.75410   0.83235   0.00000  Uiso   1.00
C1394  C     0.16872   0.91259   0.83451   0.00000  Uiso   1.00
C1395  C     0.06799   0.83307   0.82123   0.00000  Uiso   1.00
C1396  C     0.26530   0.83322   0.84540   0.00000  Uiso   1.00
C1397  C     0.01251   0.83244   0.81467   0.00000  Uiso   1.00
C1398  C     0.32071   0.83312   0.85190   0.00000  Uiso   1.00
C1399  C     0.14290   0.68430   0.79424   0.00000  Uiso   1.00
C1400  C     0.20900   0.98193   0.86470   0.00000  Uiso   1.00
C1401  C     0.13480   0.97606   0.80224   0.00000  Uiso   1.00
C1402  C     0.20698   0.69169   0.86448   0.00000  Uiso   1.00
C1403  C     0.16967   0.95750   0.83578   0.00000  Uiso   1.00
C1404  C     0.17162   0.70941   0.83072   0.00000  Uiso   1.00
C1405  C     0.13002   0.81059   0.68539   0.00000  Uiso   1.00
C1406  C     0.20285   0.85616   0.98136   0.00000  Uiso   1.00
C1407  C     0.13044   0.81013   0.96948   0.00000  Uiso   1.00
C1408  C     0.20233   0.85694   0.69715   0.00000  Uiso   1.00
Cu1409 Cu    0.16667   0.83334   0.88022   0.00000  Uiso   1.00
Cu1410 Cu    0.16667   0.83333   0.78645   0.00000  Uiso   1.00
H1411  H     0.32564   0.83146   0.77900   0.00000  Uiso   1.00
H1412  H     0.00756   0.83429   0.88756   0.00000  Uiso   1.00
N1413  N     0.16668   0.83334   0.95069   0.00000  Uiso   1.00
N1414  N     0.16665   0.83332   0.71597   0.00000  Uiso   1.00
O1415  O     0.16666   0.77322   0.87291   0.00000  Uiso   1.00
O1416  O     0.16667   0.89345   0.79375   0.00000  Uiso   1.00
O1417  O     0.16666   0.77321   0.79372   0.00000  Uiso   1.00
O1418  O     0.16667   0.89346   0.87294   0.00000  Uiso   1.00
O1419  O     0.09161   0.83334   0.86379   0.00000  Uiso   1.00
O1420  O     0.24172   0.83333   0.80288   0.00000  Uiso   1.00
O1421  O     0.09161   0.83333   0.78460   0.00000  Uiso   1.00
O1422  O     0.24172   0.83334   0.88207   0.00000  Uiso   1.00
C1423  C     0.14328   0.69486   0.74463   0.00000  Uiso   1.00
C1424  C     0.09889   0.68934   0.71079   0.00000  Uiso   1.00
C1425  C     0.10274   0.69280   0.99659   0.00000  Uiso   1.00
C1426  C     0.15054   0.70228   0.98243   0.00000  Uiso   1.00
C1427  C     0.19457   0.70903   0.68242   0.00000  Uiso   1.00
C1428  C     0.19118   0.70486   0.72979   0.00000  Uiso   1.00
H1429  H     0.06131   0.68267   0.72106   0.00000  Uiso   1.00
H1430  H     0.06851   0.68904   0.97069   0.00000  Uiso   1.00
H1431  H     0.15322   0.70504   0.94566   0.00000  Uiso   1.00
H1432  H     0.23154   0.71685   0.67153   0.00000  Uiso   1.00
H1433  H     0.22629   0.70842   0.75486   0.00000  Uiso   1.00
C1434  C     0.25681   0.96414   0.88827   0.00000  Uiso   1.00
C1435  C     0.27394   0.97283   0.93624   0.00000  Uiso   1.00
C1436  C     0.32325   0.96223   0.95640   0.00000  Uiso   1.00
C1437  C     0.02244   0.94259   0.92900   0.00000  Uiso   1.00
C1438  C     0.00575   0.93371   0.88136   0.00000  Uiso   1.00
C1439  C     0.28985   0.94435   0.86105   0.00000  Uiso   1.00
H1440  H     0.24925   0.98807   0.95788   0.00000  Uiso   1.00
H1441  H     0.00261   0.96885   0.99338   0.00000  Uiso   1.00
H1442  H     0.06059   0.93438   0.94464   0.00000  Uiso   1.00
H1443  H     0.03131   0.91915   0.86001   0.00000  Uiso   1.00
H1444  H     0.27829   0.93863   0.82377   0.00000  Uiso   1.00
Cl1445 Cl    0.08336   0.94653   0.76780   0.00000  Uiso   1.00
Cl1446 Cl    0.25559   0.72405   0.89920   0.00000  Uiso   1.00
Cl1447 Cl    0.07967   0.78284   0.70615   0.00000  Uiso   1.00
Cl1448 Cl    0.25212   0.88409   0.96067   0.00000  Uiso   1.00
Cl1449 Cl    0.08397   0.77813   0.93300   0.00000  Uiso   1.00
Cl1450 Cl    0.24705   0.89065   0.73331   0.00000  Uiso   1.00
C1451  C     0.50083   0.75410   0.83235   0.00000  Uiso   1.00
C1452  C     0.50205   0.91259   0.83451   0.00000  Uiso   1.00
C1453  C     0.40132   0.83307   0.82123   0.00000  Uiso   1.00
C1454  C     0.59864   0.83322   0.84540   0.00000  Uiso   1.00
C1455  C     0.34584   0.83244   0.81467   0.00000  Uiso   1.00
C1456  C     0.65405   0.83312   0.85190   0.00000  Uiso   1.00
C1457  C     0.47623   0.68430   0.79424   0.00000  Uiso   1.00
C1458  C     0.54233   0.98193   0.86470   0.00000  Uiso   1.00
C1459  C     0.46814   0.97606   0.80224   0.00000  Uiso   1.00
C1460  C     0.54031   0.69169   0.86448   0.00000  Uiso   1.00
C1461  C     0.50300   0.95750   0.83578   0.00000  Uiso   1.00
C1462  C     0.50495   0.70941   0.83072   0.00000  Uiso   1.00
C1463  C     0.46336   0.81059   0.68539   0.00000  Uiso   1.00
C1464  C     0.53618   0.85616   0.98136   0.00000  Uiso   1.00
C1465  C     0.46377   0.81013   0.96948   0.00000  Uiso   1.00
C1466  C     0.53566   0.85694   0.69715   0.00000  Uiso   1.00
Cu1467 Cu    0.50000   0.83334   0.88022   0.00000  Uiso   1.00
Cu1468 Cu    0.50000   0.83333   0.78645   0.00000  Uiso   1.00
H1469  H     0.65897   0.83146   0.77900   0.00000  Uiso   1.00
H1470  H     0.34089   0.83429   0.88756   0.00000  Uiso   1.00
N1471  N     0.50001   0.83334   0.95069   0.00000  Uiso   1.00
N1472  N     0.49999   0.83332   0.71597   0.00000  Uiso   1.00
O1473  O     0.50000   0.77322   0.87291   0.00000  Uiso   1.00
O1474  O     0.50000   0.89345   0.79375   0.00000  Uiso   1.00
O1475  O     0.50000   0.77321   0.79372   0.00000  Uiso   1.00
O1476  O     0.50000   0.89346   0.87294   0.00000  Uiso   1.00
O1477  O     0.42495   0.83334   0.86379   0.00000  Uiso   1.00
O1478  O     0.57505   0.83333   0.80288   0.00000  Uiso   1.00
O1479  O     0.42494   0.83333   0.78460   0.00000  Uiso   1.00
O1480  O     0.57506   0.83334   0.88207   0.00000  Uiso   1.00
C1481  C     0.47662   0.69486   0.74463   0.00000  Uiso   1.00
C1482  C     0.43222   0.68934   0.71079   0.00000  Uiso   1.00
C1483  C     0.43607   0.69280   0.99659   0.00000  Uiso   1.00
C1484  C     0.48387   0.70228   0.98243   0.00000  Uiso   1.00
C1485  C     0.52791   0.70903   0.68242   0.00000  Uiso   1.00
C1486  C     0.52452   0.70486   0.72979   0.00000  Uiso   1.00
H1487  H     0.39464   0.68267   0.72106   0.00000  Uiso   1.00
H1488  H     0.40184   0.68904   0.97069   0.00000  Uiso   1.00
H1489  H     0.48656   0.70504   0.94566   0.00000  Uiso   1.00
H1490  H     0.56488   0.71685   0.67153   0.00000  Uiso   1.00
H1491  H     0.55963   0.70842   0.75486   0.00000  Uiso   1.00
C1492  C     0.59015   0.96414   0.88827   0.00000  Uiso   1.00
C1493  C     0.60727   0.97283   0.93624   0.00000  Uiso   1.00
C1494  C     0.65659   0.96223   0.95640   0.00000  Uiso   1.00
C1495  C     0.35578   0.94259   0.92900   0.00000  Uiso   1.00
C1496  C     0.33909   0.93371   0.88136   0.00000  Uiso   1.00
C1497  C     0.62318   0.94435   0.86105   0.00000  Uiso   1.00
H1498  H     0.58258   0.98807   0.95788   0.00000  Uiso   1.00
H1499  H     0.33594   0.96885   0.99338   0.00000  Uiso   1.00
H1500  H     0.39392   0.93438   0.94464   0.00000  Uiso   1.00
H1501  H     0.36465   0.91915   0.86001   0.00000  Uiso   1.00
H1502  H     0.61162   0.93863   0.82377   0.00000  Uiso   1.00
Cl1503 Cl    0.41670   0.94653   0.76780   0.00000  Uiso   1.00
Cl1504 Cl    0.58892   0.72405   0.89920   0.00000  Uiso   1.00
Cl1505 Cl    0.41300   0.78284   0.70615   0.00000  Uiso   1.00
Cl1506 Cl    0.58545   0.88409   0.96067   0.00000  Uiso   1.00
Cl1507 Cl    0.41730   0.77813   0.93300   0.00000  Uiso   1.00
Cl1508 Cl    0.58038   0.89065   0.73331   0.00000  Uiso   1.00
C1509  C     0.83416   0.75410   0.83235   0.00000  Uiso   1.00
C1510  C     0.83538   0.91259   0.83451   0.00000  Uiso   1.00
C1511  C     0.73466   0.83307   0.82123   0.00000  Uiso   1.00
C1512  C     0.93197   0.83322   0.84540   0.00000  Uiso   1.00
C1513  C     0.67917   0.83244   0.81467   0.00000  Uiso   1.00
C1514  C     0.98738   0.83312   0.85190   0.00000  Uiso   1.00
C1515  C     0.80956   0.68430   0.79424   0.00000  Uiso   1.00
C1516  C     0.87566   0.98193   0.86470   0.00000  Uiso   1.00
C1517  C     0.80147   0.97606   0.80224   0.00000  Uiso   1.00
C1518  C     0.87364   0.69169   0.86448   0.00000  Uiso   1.00
C1519  C     0.83633   0.95750   0.83578   0.00000  Uiso   1.00
C1520  C     0.83828   0.70941   0.83072   0.00000  Uiso   1.00
C1521  C     0.79669   0.81059   0.68539   0.00000  Uiso   1.00
C1522  C     0.86952   0.85616   0.98136   0.00000  Uiso   1.00
C1523  C     0.79710   0.81013   0.96948   0.00000  Uiso   1.00
C1524  C     0.86900   0.85694   0.69715   0.00000  Uiso   1.00
Cu1525 Cu    0.83333   0.83334   0.88022   0.00000  Uiso   1.00
Cu1526 Cu    0.83333   0.83333   0.78645   0.00000  Uiso   1.00
H1527  H     0.99231   0.83146   0.77900   0.00000  Uiso   1.00
H1528  H     0.67423   0.83429   0.88756   0.00000  Uiso   1.00
N1529  N     0.83335   0.83334   0.95069   0.00000  Uiso   1.00
N1530  N     0.83332   0.83332   0.71597   0.00000  Uiso   1.00
O1531  O     0.83333   0.77322   0.87291   0.00000  Uiso   1.00
O1532  O     0.83334   0.89345   0.79375   0.00000  Uiso   1.00
O1533  O     0.83333   0.77321   0.79372   0.00000  Uiso   1.00
O1534  O     0.83334   0.89346   0.87294   0.00000  Uiso   1.00
O1535  O     0.75828   0.83334   0.86379   0.00000  Uiso   1.00
O1536  O     0.90839   0.83333   0.80288   0.00000  Uiso   1.00
O1537  O     0.75828   0.83333   0.78460   0.00000  Uiso   1.00
O1538  O     0.90839   0.83334   0.88207   0.00000  Uiso   1.00
C1539  C     0.80995   0.69486   0.74463   0.00000  Uiso   1.00
C1540  C     0.76555   0.68934   0.71079   0.00000  Uiso   1.00
C1541  C     0.76940   0.69280   0.99659   0.00000  Uiso   1.00
C1542  C     0.81720   0.70228   0.98243   0.00000  Uiso   1.00
C1543  C     0.86124   0.70903   0.68242   0.00000  Uiso   1.00
C1544  C     0.85785   0.70486   0.72979   0.00000  Uiso   1.00
H1545  H     0.72798   0.68267   0.72106   0.00000  Uiso   1.00
H1546  H     0.73517   0.68904   0.97069   0.00000  Uiso   1.00
H1547  H     0.81989   0.70504   0.94566   0.00000  Uiso   1.00
H1548  H     0.89821   0.71685   0.67153   0.00000  Uiso   1.00
H1549  H     0.89296   0.70842   0.75486   0.00000  Uiso   1.00
C1550  C     0.92348   0.96414   0.88827   0.00000  Uiso   1.00
C1551  C     0.94060   0.97283   0.93624   0.00000  Uiso   1.00
C1552  C     0.98992   0.96223   0.95640   0.00000  Uiso   1.00
C1553  C     0.68911   0.94259   0.92900   0.00000  Uiso   1.00
C1554  C     0.67242   0.93371   0.88136   0.00000  Uiso   1.00
C1555  C     0.95652   0.94435   0.86105   0.00000  Uiso   1.00
H1556  H     0.91592   0.98807   0.95788   0.00000  Uiso   1.00
H1557  H     0.66927   0.96885   0.99338   0.00000  Uiso   1.00
H1558  H     0.72726   0.93438   0.94464   0.00000  Uiso   1.00
H1559  H     0.69798   0.91915   0.86001   0.00000  Uiso   1.00
H1560  H     0.94496   0.93863   0.82377   0.00000  Uiso   1.00
Cl1561 Cl    0.75003   0.94653   0.76780   0.00000  Uiso   1.00
Cl1562 Cl    0.92225   0.72405   0.89920   0.00000  Uiso   1.00
Cl1563 Cl    0.74634   0.78284   0.70615   0.00000  Uiso   1.00
Cl1564 Cl    0.91878   0.88409   0.96067   0.00000  Uiso   1.00
Cl1565 Cl    0.75063   0.77813   0.93300   0.00000  Uiso   1.00
Cl1566 Cl    0.91371   0.89065   0.73331   0.00000  Uiso   1.00
loop_
_geom_bond_atom_site_label_1
_geom_bond_atom_site_label_2
_geom_bond_distance
_geom_bond_site_symmetry_2
_ccdc_geom_bond_type
C1     O25     1.299   .     A
C1     O23     1.307   .     A
C1     C12     1.465   .     S
C2     O26     1.303   .     A
C2     O24     1.302   .     A
C2     C11     1.463   .     S
C3     O27     1.294   .     A
C3     O29     1.299   .     A
C3     C5      1.434   .     S
C4     C6      1.433   .     S
C4     O28     1.293   .     A
C4     O30     1.299   .     A
C5     C122    1.337   1_455 S
C5     H135    1.087   1_455 S
C6     C63     1.337   .     S
C6     H78     1.086   .     S
C7     C12     1.412   .     A
C7     C31     1.489   .     S
C7     C357    1.398   1_545 S
C8     C11     1.421   .     A
C8     C42     1.487   .     S
C8     C184    1.409   .     S
C9     Cl53    1.776   .     S
C9     C11     1.406   .     A
C9     C181    1.398   .     S
C10    C12     1.405   .     A
C10    Cl54    1.780   .     S
C10    C356    1.409   1_545 S
C13    N22     1.375   .     A
C13    Cl55    1.756   .     S
C13    C1059   1.423   1_554 S
C14    Cl56    1.736   .     S
C14    N21     1.370   .     A
C14    C538    1.420   .     S
C15    Cl57    1.763   .     S
C15    N21     1.374   .     A
C15    C535    1.423   .     S
C16    Cl58    1.764   .     S
C16    N22     1.371   .     A
C16    C1058   1.420   1_554 S
Cu17   Cu18    2.708   .     S
Cu17   O30     1.954   .     S
Cu17   O23     1.963   .     S
Cu17   O26     1.981   .     S
Cu17   O27     1.950   .     S
Cu17   N21     2.035   .     S
Cu18   O29     1.954   .     S
Cu18   O25     1.981   .     S
Cu18   O24     1.963   .     S
Cu18   O28     1.950   .     S
Cu18   N22     2.035   .     S
H19    C63     1.087   .     S
H20    C122    1.086   1_455 S
C31    C36     1.410   .     A
C31    C32     1.406   .     A
C32    H37     1.082   .     S
C32    C1077   1.400   1_554 S
C33    H38     1.080   .     S
C33    C34     1.396   .     A
C33    C554    1.400   .     S
C34    H39     1.081   .     S
C34    C557    1.394   .     S
C35    H40     1.082   .     S
C35    C36     1.396   .     A
C35    C1078   1.394   1_554 S
C36    H41     1.083   .     S
C42    C47     1.406   .     A
C42    C43     1.407   .     A
C43    C44     1.399   .     A
C43    H48     1.081   .     S
C44    C103    1.397   .     S
C44    H107    1.082   .     S
C45    H50     1.083   .     S
C45    C46     1.397   .     A
C45    C160    1.397   1_455 S
C46    H51     1.082   .     S
C46    C163    1.399   1_455 S
C47    H52     1.082   .     S
C47    C104    1.399   .     S
H49    C160    1.082   1_455 S
C59    O83     1.299   .     A
C59    O81     1.307   .     A
C59    C70     1.465   .     S
C60    O84     1.303   .     A
C60    O82     1.302   .     A
C60    C69     1.463   .     S
C61    O85     1.294   .     A
C61    O87     1.299   .     A
C61    C63     1.434   .     S
C62    C64     1.433   .     S
C62    O86     1.293   .     A
C62    O88     1.299   .     A
C64    C121    1.337   .     S
C64    H136    1.086   .     S
C65    C70     1.412   .     A
C65    C89     1.489   .     S
C65    C415    1.398   1_545 S
C66    C69     1.421   .     A
C66    C100    1.487   .     S
C66    C242    1.409   .     S
C67    Cl111   1.776   .     S
C67    C69     1.406   .     A
C67    C239    1.398   .     S
C68    C70     1.405   .     A
C68    Cl112   1.780   .     S
C68    C414    1.409   1_545 S
C71    N80     1.375   .     A
C71    Cl113   1.756   .     S
C71    C1117   1.423   1_554 S
C72    Cl114   1.736   .     S
C72    N79     1.370   .     A
C72    C596    1.420   .     S
C73    Cl115   1.763   .     S
C73    N79     1.374   .     A
C73    C593    1.423   .     S
C74    Cl116   1.764   .     S
C74    N80     1.371   .     A
C74    C1116   1.420   1_554 S
Cu75   Cu76    2.708   .     S
Cu75   O88     1.954   .     S
Cu75   O81     1.963   .     S
Cu75   O84     1.981   .     S
Cu75   O85     1.950   .     S
Cu75   N79     2.035   .     S
Cu76   O87     1.954   .     S
Cu76   O83     1.981   .     S
Cu76   O82     1.963   .     S
Cu76   O86     1.950   .     S
Cu76   N80     2.035   .     S
H77    C121    1.087   .     S
C89    C94     1.410   .     A
C89    C90     1.406   .     A
C90    H95     1.082   .     S
C90    C1135   1.400   1_554 S
C91    H96     1.080   .     S
C91    C92     1.396   .     A
C91    C612    1.400   .     S
C92    H97     1.081   .     S
C92    C615    1.394   .     S
C93    H98     1.082   .     S
C93    C94     1.396   .     A
C93    C1136   1.394   1_554 S
C94    H99     1.083   .     S
C100   C105    1.406   .     A
C100   C101    1.407   .     A
C101   C102    1.399   .     A
C101   H106    1.081   .     S
C102   C161    1.397   .     S
C102   H165    1.082   .     S
C103   H108    1.083   .     S
C103   C104    1.397   .     A
C104   H109    1.082   .     S
C105   H110    1.082   .     S
C105   C162    1.399   .     S
C117   O141    1.299   .     A
C117   O139    1.307   .     A
C117   C128    1.465   .     S
C118   O142    1.303   .     A
C118   O140    1.302   .     A
C118   C127    1.463   .     S
C119   O143    1.294   .     A
C119   O145    1.299   .     A
C119   C121    1.434   .     S
C120   C122    1.433   .     S
C120   O144    1.293   .     A
C120   O146    1.299   .     A
C122   C5      1.337   1_655 S
C122   H20     1.086   1_655 S
C123   C128    1.412   .     A
C123   C147    1.489   .     S
C123   C473    1.398   1_545 S
C124   C127    1.421   .     A
C124   C158    1.487   .     S
C124   C300    1.409   .     S
C125   Cl169   1.776   .     S
C125   C127    1.406   .     A
C125   C297    1.398   .     S
C126   C128    1.405   .     A
C126   Cl170   1.780   .     S
C126   C472    1.409   1_545 S
C129   N138    1.375   .     A
C129   Cl171   1.756   .     S
C129   C1175   1.423   1_554 S
C130   Cl172   1.736   .     S
C130   N137    1.370   .     A
C130   C654    1.420   .     S
C131   Cl173   1.763   .     S
C131   N137    1.374   .     A
C131   C651    1.423   .     S
C132   Cl174   1.764   .     S
C132   N138    1.371   .     A
C132   C1174   1.420   1_554 S
Cu133  Cu134   2.708   .     S
Cu133  O146    1.954   .     S
Cu133  O139    1.963   .     S
Cu133  O142    1.981   .     S
Cu133  O143    1.950   .     S
Cu133  N137    2.035   .     S
Cu134  O145    1.954   .     S
Cu134  O141    1.981   .     S
Cu134  O140    1.963   .     S
Cu134  O144    1.950   .     S
Cu134  N138    2.035   .     S
H135   C5      1.087   1_655 S
C147   C152    1.410   .     A
C147   C148    1.406   .     A
C148   H153    1.082   .     S
C148   C1193   1.400   1_554 S
C149   H154    1.080   .     S
C149   C150    1.396   .     A
C149   C670    1.400   .     S
C150   H155    1.081   .     S
C150   C673    1.394   .     S
C151   H156    1.082   .     S
C151   C152    1.396   .     A
C151   C1194   1.394   1_554 S
C152   H157    1.083   .     S
C158   C163    1.406   .     A
C158   C159    1.407   .     A
C159   C160    1.399   .     A
C159   H164    1.081   .     S
C160   C45     1.397   1_655 S
C160   H49     1.082   1_655 S
C161   H166    1.083   .     S
C161   C162    1.397   .     A
C162   H167    1.082   .     S
C163   H168    1.082   .     S
C163   C46     1.399   1_655 S
C175   O199    1.299   .     A
C175   O197    1.307   .     A
C175   C186    1.465   .     S
C176   O200    1.303   .     A
C176   O198    1.302   .     A
C176   C185    1.463   .     S
C177   O201    1.294   .     A
C177   O203    1.299   .     A
C177   C179    1.434   .     S
C178   C180    1.433   .     S
C178   O202    1.293   .     A
C178   O204    1.299   .     A
C179   C296    1.337   1_455 S
C179   H309    1.087   1_455 S
C180   C237    1.337   .     S
C180   H252    1.086   .     S
C181   C186    1.412   .     A
C181   C205    1.489   .     S
C182   C185    1.421   .     A
C182   C216    1.487   .     S
C182   C358    1.409   .     S
C183   Cl227   1.776   .     S
C183   C185    1.406   .     A
C183   C355    1.398   .     S
C184   C186    1.405   .     A
C184   Cl228   1.780   .     S
C187   N196    1.375   .     A
C187   Cl229   1.756   .     S
C187   C1233   1.423   1_554 S
C188   Cl230   1.736   .     S
C188   N195    1.370   .     A
C188   C712    1.420   .     S
C189   Cl231   1.763   .     S
C189   N195    1.374   .     A
C189   C709    1.423   .     S
C190   Cl232   1.764   .     S
C190   N196    1.371   .     A
C190   C1232   1.420   1_554 S
Cu191  Cu192   2.708   .     S
Cu191  O204    1.954   .     S
Cu191  O197    1.963   .     S
Cu191  O200    1.981   .     S
Cu191  O201    1.950   .     S
Cu191  N195    2.035   .     S
Cu192  O203    1.954   .     S
Cu192  O199    1.981   .     S
Cu192  O198    1.963   .     S
Cu192  O202    1.950   .     S
Cu192  N196    2.035   .     S
H193   C237    1.087   .     S
H194   C296    1.086   1_455 S
C205   C210    1.410   .     A
C205   C206    1.406   .     A
C206   H211    1.082   .     S
C206   C1251   1.400   1_554 S
C207   H212    1.080   .     S
C207   C208    1.396   .     A
C207   C728    1.400   .     S
C208   H213    1.081   .     S
C208   C731    1.394   .     S
C209   H214    1.082   .     S
C209   C210    1.396   .     A
C209   C1252   1.394   1_554 S
C210   H215    1.083   .     S
C216   C221    1.406   .     A
C216   C217    1.407   .     A
C217   C218    1.399   .     A
C217   H222    1.081   .     S
C218   C277    1.397   .     S
C218   H281    1.082   .     S
C219   H224    1.083   .     S
C219   C220    1.397   .     A
C219   C334    1.397   1_455 S
C220   H225    1.082   .     S
C220   C337    1.399   1_455 S
C221   H226    1.082   .     S
C221   C278    1.399   .     S
H223   C334    1.082   1_455 S
C233   O257    1.299   .     A
C233   O255    1.307   .     A
C233   C244    1.465   .     S
C234   O258    1.303   .     A
C234   O256    1.302   .     A
C234   C243    1.463   .     S
C235   O259    1.294   .     A
C235   O261    1.299   .     A
C235   C237    1.434   .     S
C236   C238    1.433   .     S
C236   O260    1.293   .     A
C236   O262    1.299   .     A
C238   C295    1.337   .     S
C238   H310    1.086   .     S
C239   C244    1.412   .     A
C239   C263    1.489   .     S
C240   C243    1.421   .     A
C240   C274    1.487   .     S
C240   C416    1.409   .     S
C241   Cl285   1.776   .     S
C241   C243    1.406   .     A
C241   C413    1.398   .     S
C242   C244    1.405   .     A
C242   Cl286   1.780   .     S
C245   N254    1.375   .     A
C245   Cl287   1.756   .     S
C245   C1291   1.423   1_554 S
C246   Cl288   1.736   .     S
C246   N253    1.370   .     A
C246   C770    1.420   .     S
C247   Cl289   1.763   .     S
C247   N253    1.374   .     A
C247   C767    1.423   .     S
C248   Cl290   1.764   .     S
C248   N254    1.371   .     A
C248   C1290   1.420   1_554 S
Cu249  Cu250   2.708   .     S
Cu249  O262    1.954   .     S
Cu249  O255    1.963   .     S
Cu249  O258    1.981   .     S
Cu249  O259    1.950   .     S
Cu249  N253    2.035   .     S
Cu250  O261    1.954   .     S
Cu250  O257    1.981   .     S
Cu250  O256    1.963   .     S
Cu250  O260    1.950   .     S
Cu250  N254    2.035   .     S
H251   C295    1.087   .     S
C263   C268    1.410   .     A
C263   C264    1.406   .     A
C264   H269    1.082   .     S
C264   C1309   1.400   1_554 S
C265   H270    1.080   .     S
C265   C266    1.396   .     A
C265   C786    1.400   .     S
C266   H271    1.081   .     S
C266   C789    1.394   .     S
C267   H272    1.082   .     S
C267   C268    1.396   .     A
C267   C1310   1.394   1_554 S
C268   H273    1.083   .     S
C274   C279    1.406   .     A
C274   C275    1.407   .     A
C275   C276    1.399   .     A
C275   H280    1.081   .     S
C276   C335    1.397   .     S
C276   H339    1.082   .     S
C277   H282    1.083   .     S
C277   C278    1.397   .     A
C278   H283    1.082   .     S
C279   H284    1.082   .     S
C279   C336    1.399   .     S
C291   O315    1.299   .     A
C291   O313    1.307   .     A
C291   C302    1.465   .     S
C292   O316    1.303   .     A
C292   O314    1.302   .     A
C292   C301    1.463   .     S
C293   O317    1.294   .     A
C293   O319    1.299   .     A
C293   C295    1.434   .     S
C294   C296    1.433   .     S
C294   O318    1.293   .     A
C294   O320    1.299   .     A
C296   C179    1.337   1_655 S
C296   H194    1.086   1_655 S
C297   C302    1.412   .     A
C297   C321    1.489   .     S
C298   C301    1.421   .     A
C298   C332    1.487   .     S
C298   C474    1.409   .     S
C299   Cl343   1.776   .     S
C299   C301    1.406   .     A
C299   C471    1.398   .     S
C300   C302    1.405   .     A
C300   Cl344   1.780   .     S
C303   N312    1.375   .     A
C303   Cl345   1.756   .     S
C303   C1349   1.423   1_554 S
C304   Cl346   1.736   .     S
C304   N311    1.370   .     A
C304   C828    1.420   .     S
C305   Cl347   1.763   .     S
C305   N311    1.374   .     A
C305   C825    1.423   .     S
C306   Cl348   1.764   .     S
C306   N312    1.371   .     A
C306   C1348   1.420   1_554 S
Cu307  Cu308   2.708   .     S
Cu307  O320    1.954   .     S
Cu307  O313    1.963   .     S
Cu307  O316    1.981   .     S
Cu307  O317    1.950   .     S
Cu307  N311    2.035   .     S
Cu308  O319    1.954   .     S
Cu308  O315    1.981   .     S
Cu308  O314    1.963   .     S
Cu308  O318    1.950   .     S
Cu308  N312    2.035   .     S
H309   C179    1.087   1_655 S
C321   C326    1.410   .     A
C321   C322    1.406   .     A
C322   H327    1.082   .     S
C322   C1367   1.400   1_554 S
C323   H328    1.080   .     S
C323   C324    1.396   .     A
C323   C844    1.400   .     S
C324   H329    1.081   .     S
C324   C847    1.394   .     S
C325   H330    1.082   .     S
C325   C326    1.396   .     A
C325   C1368   1.394   1_554 S
C326   H331    1.083   .     S
C332   C337    1.406   .     A
C332   C333    1.407   .     A
C333   C334    1.399   .     A
C333   H338    1.081   .     S
C334   C219    1.397   1_655 S
C334   H223    1.082   1_655 S
C335   H340    1.083   .     S
C335   C336    1.397   .     A
C336   H341    1.082   .     S
C337   H342    1.082   .     S
C337   C220    1.399   1_655 S
C349   O373    1.299   .     A
C349   O371    1.307   .     A
C349   C360    1.465   .     S
C350   O374    1.303   .     A
C350   O372    1.302   .     A
C350   C359    1.463   .     S
C351   O375    1.294   .     A
C351   O377    1.299   .     A
C351   C353    1.434   .     S
C352   C354    1.433   .     S
C352   O376    1.293   .     A
C352   O378    1.299   .     A
C353   C470    1.337   1_455 S
C353   H483    1.087   1_455 S
C354   C411    1.337   .     S
C354   H426    1.086   .     S
C355   C360    1.412   .     A
C355   C379    1.489   .     S
C356   C359    1.421   .     A
C356   C390    1.487   .     S
C356   C10     1.409   1_565 S
C357   Cl401   1.776   .     S
C357   C359    1.406   .     A
C357   C7      1.398   1_565 S
C358   C360    1.405   .     A
C358   Cl402   1.780   .     S
C361   N370    1.375   .     A
C361   Cl403   1.756   .     S
C361   C1407   1.423   1_554 S
C362   Cl404   1.736   .     S
C362   N369    1.370   .     A
C362   C886    1.420   .     S
C363   Cl405   1.763   .     S
C363   N369    1.374   .     A
C363   C883    1.423   .     S
C364   Cl406   1.764   .     S
C364   N370    1.371   .     A
C364   C1406   1.420   1_554 S
Cu365  Cu366   2.708   .     S
Cu365  O378    1.954   .     S
Cu365  O371    1.963   .     S
Cu365  O374    1.981   .     S
Cu365  O375    1.950   .     S
Cu365  N369    2.035   .     S
Cu366  O377    1.954   .     S
Cu366  O373    1.981   .     S
Cu366  O372    1.963   .     S
Cu366  O376    1.950   .     S
Cu366  N370    2.035   .     S
H367   C411    1.087   .     S
H368   C470    1.086   1_455 S
C379   C384    1.410   .     A
C379   C380    1.406   .     A
C380   H385    1.082   .     S
C380   C1425   1.400   1_554 S
C381   H386    1.080   .     S
C381   C382    1.396   .     A
C381   C902    1.400   .     S
C382   H387    1.081   .     S
C382   C905    1.394   .     S
C383   H388    1.082   .     S
C383   C384    1.396   .     A
C383   C1426   1.394   1_554 S
C384   H389    1.083   .     S
C390   C395    1.406   .     A
C390   C391    1.407   .     A
C391   C392    1.399   .     A
C391   H396    1.081   .     S
C392   C451    1.397   .     S
C392   H455    1.082   .     S
C393   H398    1.083   .     S
C393   C394    1.397   .     A
C393   C508    1.397   1_455 S
C394   H399    1.082   .     S
C394   C511    1.399   1_455 S
C395   H400    1.082   .     S
C395   C452    1.399   .     S
H397   C508    1.082   1_455 S
C407   O431    1.299   .     A
C407   O429    1.307   .     A
C407   C418    1.465   .     S
C408   O432    1.303   .     A
C408   O430    1.302   .     A
C408   C417    1.463   .     S
C409   O433    1.294   .     A
C409   O435    1.299   .     A
C409   C411    1.434   .     S
C410   C412    1.433   .     S
C410   O434    1.293   .     A
C410   O436    1.299   .     A
C412   C469    1.337   .     S
C412   H484    1.086   .     S
C413   C418    1.412   .     A
C413   C437    1.489   .     S
C414   C417    1.421   .     A
C414   C448    1.487   .     S
C414   C68     1.409   1_565 S
C415   Cl459   1.776   .     S
C415   C417    1.406   .     A
C415   C65     1.398   1_565 S
C416   C418    1.405   .     A
C416   Cl460   1.780   .     S
C419   N428    1.375   .     A
C419   Cl461   1.756   .     S
C419   C1465   1.423   1_554 S
C420   Cl462   1.736   .     S
C420   N427    1.370   .     A
C420   C944    1.420   .     S
C421   Cl463   1.763   .     S
C421   N427    1.374   .     A
C421   C941    1.423   .     S
C422   Cl464   1.764   .     S
C422   N428    1.371   .     A
C422   C1464   1.420   1_554 S
Cu423  Cu424   2.708   .     S
Cu423  O436    1.954   .     S
Cu423  O429    1.963   .     S
Cu423  O432    1.981   .     S
Cu423  O433    1.950   .     S
Cu423  N427    2.035   .     S
Cu424  O435    1.954   .     S
Cu424  O431    1.981   .     S
Cu424  O430    1.963   .     S
Cu424  O434    1.950   .     S
Cu424  N428    2.035   .     S
H425   C469    1.087   .     S
C437   C442    1.410   .     A
C437   C438    1.406   .     A
C438   H443    1.082   .     S
C438   C1483   1.400   1_554 S
C439   H444    1.080   .     S
C439   C440    1.396   .     A
C439   C960    1.400   .     S
C440   H445    1.081   .     S
C440   C963    1.394   .     S
C441   H446    1.082   .     S
C441   C442    1.396   .     A
C441   C1484   1.394   1_554 S
C442   H447    1.083   .     S
C448   C453    1.406   .     A
C448   C449    1.407   .     A
C449   C450    1.399   .     A
C449   H454    1.081   .     S
C450   C509    1.397   .     S
C450   H513    1.082   .     S
C451   H456    1.083   .     S
C451   C452    1.397   .     A
C452   H457    1.082   .     S
C453   H458    1.082   .     S
C453   C510    1.399   .     S
C465   O489    1.299   .     A
C465   O487    1.307   .     A
C465   C476    1.465   .     S
C466   O490    1.303   .     A
C466   O488    1.302   .     A
C466   C475    1.463   .     S
C467   O491    1.294   .     A
C467   O493    1.299   .     A
C467   C469    1.434   .     S
C468   C470    1.433   .     S
C468   O492    1.293   .     A
C468   O494    1.299   .     A
C470   C353    1.337   1_655 S
C470   H368    1.086   1_655 S
C471   C476    1.412   .     A
C471   C495    1.489   .     S
C472   C475    1.421   .     A
C472   C506    1.487   .     S
C472   C126    1.409   1_565 S
C473   Cl517   1.776   .     S
C473   C475    1.406   .     A
C473   C123    1.398   1_565 S
C474   C476    1.405   .     A
C474   Cl518   1.780   .     S
C477   N486    1.375   .     A
C477   Cl519   1.756   .     S
C477   C1523   1.423   1_554 S
C478   Cl520   1.736   .     S
C478   N485    1.370   .     A
C478   C1002   1.420   .     S
C479   Cl521   1.763   .     S
C479   N485    1.374   .     A
C479   C999    1.423   .     S
C480   Cl522   1.764   .     S
C480   N486    1.371   .     A
C480   C1522   1.420   1_554 S
Cu481  Cu482   2.708   .     S
Cu481  O494    1.954   .     S
Cu481  O487    1.963   .     S
Cu481  O490    1.981   .     S
Cu481  O491    1.950   .     S
Cu481  N485    2.035   .     S
Cu482  O493    1.954   .     S
Cu482  O489    1.981   .     S
Cu482  O488    1.963   .     S
Cu482  O492    1.950   .     S
Cu482  N486    2.035   .     S
H483   C353    1.087   1_655 S
C495   C500    1.410   .     A
C495   C496    1.406   .     A
C496   H501    1.082   .     S
C496   C1541   1.400   1_554 S
C497   H502    1.080   .     S
C497   C498    1.396   .     A
C497   C1018   1.400   .     S
C498   H503    1.081   .     S
C498   C1021   1.394   .     S
C499   H504    1.082   .     S
C499   C500    1.396   .     A
C499   C1542   1.394   1_554 S
C500   H505    1.083   .     S
C506   C511    1.406   .     A
C506   C507    1.407   .     A
C507   C508    1.399   .     A
C507   H512    1.081   .     S
C508   C393    1.397   1_655 S
C508   H397    1.082   1_655 S
C509   H514    1.083   .     S
C509   C510    1.397   .     A
C510   H515    1.082   .     S
C511   H516    1.082   .     S
C511   C394    1.399   1_655 S
C523   O547    1.299   .     A
C523   O545    1.307   .     A
C523   C534    1.465   .     S
C524   O548    1.303   .     A
C524   O546    1.302   .     A
C524   C533    1.463   .     S
C525   O549    1.294   .     A
C525   O551    1.299   .     A
C525   C527    1.434   .     S
C526   C528    1.433   .     S
C526   O550    1.293   .     A
C526   O552    1.299   .     A
C527   C644    1.337   1_455 S
C527   H657    1.087   1_455 S
C528   C585    1.337   .     S
C528   H600    1.086   .     S
C529   C534    1.412   .     A
C529   C553    1.489   .     S
C529   C879    1.398   1_545 S
C530   C533    1.421   .     A
C530   C564    1.487   .     S
C530   C706    1.409   .     S
C531   Cl575   1.776   .     S
C531   C533    1.406   .     A
C531   C703    1.398   .     S
C532   C534    1.405   .     A
C532   Cl576   1.780   .     S
C532   C878    1.409   1_545 S
C535   N544    1.375   .     A
C535   Cl577   1.756   .     S
C536   Cl578   1.736   .     S
C536   N543    1.370   .     A
C536   C1060   1.420   .     S
C537   Cl579   1.763   .     S
C537   N543    1.374   .     A
C537   C1057   1.423   .     S
C538   Cl580   1.764   .     S
C538   N544    1.371   .     A
Cu539  Cu540   2.708   .     S
Cu539  O552    1.954   .     S
Cu539  O545    1.963   .     S
Cu539  O548    1.981   .     S
Cu539  O549    1.950   .     S
Cu539  N543    2.035   .     S
Cu540  O551    1.954   .     S
Cu540  O547    1.981   .     S
Cu540  O546    1.963   .     S
Cu540  O550    1.950   .     S
Cu540  N544    2.035   .     S
H541   C585    1.087   .     S
H542   C644    1.086   1_455 S
C553   C558    1.410   .     A
C553   C554    1.406   .     A
C554   H559    1.082   .     S
C555   H560    1.080   .     S
C555   C556    1.396   .     A
C555   C1076   1.400   .     S
C556   H561    1.081   .     S
C556   C1079   1.394   .     S
C557   H562    1.082   .     S
C557   C558    1.396   .     A
C558   H563    1.083   .     S
C564   C569    1.406   .     A
C564   C565    1.407   .     A
C565   C566    1.399   .     A
C565   H570    1.081   .     S
C566   C625    1.397   .     S
C566   H629    1.082   .     S
C567   H572    1.083   .     S
C567   C568    1.397   .     A
C567   C682    1.397   1_455 S
C568   H573    1.082   .     S
C568   C685    1.399   1_455 S
C569   H574    1.082   .     S
C569   C626    1.399   .     S
H571   C682    1.082   1_455 S
C581   O605    1.299   .     A
C581   O603    1.307   .     A
C581   C592    1.465   .     S
C582   O606    1.303   .     A
C582   O604    1.302   .     A
C582   C591    1.463   .     S
C583   O607    1.294   .     A
C583   O609    1.299   .     A
C583   C585    1.434   .     S
C584   C586    1.433   .     S
C584   O608    1.293   .     A
C584   O610    1.299   .     A
C586   C643    1.337   .     S
C586   H658    1.086   .     S
C587   C592    1.412   .     A
C587   C611    1.489   .     S
C587   C937    1.398   1_545 S
C588   C591    1.421   .     A
C588   C622    1.487   .     S
C588   C764    1.409   .     S
C589   Cl633   1.776   .     S
C589   C591    1.406   .     A
C589   C761    1.398   .     S
C590   C592    1.405   .     A
C590   Cl634   1.780   .     S
C590   C936    1.409   1_545 S
C593   N602    1.375   .     A
C593   Cl635   1.756   .     S
C594   Cl636   1.736   .     S
C594   N601    1.370   .     A
C594   C1118   1.420   .     S
C595   Cl637   1.763   .     S
C595   N601    1.374   .     A
C595   C1115   1.423   .     S
C596   Cl638   1.764   .     S
C596   N602    1.371   .     A
Cu597  Cu598   2.708   .     S
Cu597  O610    1.954   .     S
Cu597  O603    1.963   .     S
Cu597  O606    1.981   .     S
Cu597  O607    1.950   .     S
Cu597  N601    2.035   .     S
Cu598  O609    1.954   .     S
Cu598  O605    1.981   .     S
Cu598  O604    1.963   .     S
Cu598  O608    1.950   .     S
Cu598  N602    2.035   .     S
H599   C643    1.087   .     S
C611   C616    1.410   .     A
C611   C612    1.406   .     A
C612   H617    1.082   .     S
C613   H618    1.080   .     S
C613   C614    1.396   .     A
C613   C1134   1.400   .     S
C614   H619    1.081   .     S
C614   C1137   1.394   .     S
C615   H620    1.082   .     S
C615   C616    1.396   .     A
C616   H621    1.083   .     S
C622   C627    1.406   .     A
C622   C623    1.407   .     A
C623   C624    1.399   .     A
C623   H628    1.081   .     S
C624   C683    1.397   .     S
C624   H687    1.082   .     S
C625   H630    1.083   .     S
C625   C626    1.397   .     A
C626   H631    1.082   .     S
C627   H632    1.082   .     S
C627   C684    1.399   .     S
C639   O663    1.299   .     A
C639   O661    1.307   .     A
C639   C650    1.465   .     S
C640   O664    1.303   .     A
C640   O662    1.302   .     A
C640   C649    1.463   .     S
C641   O665    1.294   .     A
C641   O667    1.299   .     A
C641   C643    1.434   .     S
C642   C644    1.433   .     S
C642   O666    1.293   .     A
C642   O668    1.299   .     A
C644   C527    1.337   1_655 S
C644   H542    1.086   1_655 S
C645   C650    1.412   .     A
C645   C669    1.489   .     S
C645   C995    1.398   1_545 S
C646   C649    1.421   .     A
C646   C680    1.487   .     S
C646   C822    1.409   .     S
C647   Cl691   1.776   .     S
C647   C649    1.406   .     A
C647   C819    1.398   .     S
C648   C650    1.405   .     A
C648   Cl692   1.780   .     S
C648   C994    1.409   1_545 S
C651   N660    1.375   .     A
C651   Cl693   1.756   .     S
C652   Cl694   1.736   .     S
C652   N659    1.370   .     A
C652   C1176   1.420   .     S
C653   Cl695   1.763   .     S
C653   N659    1.374   .     A
C653   C1173   1.423   .     S
C654   Cl696   1.764   .     S
C654   N660    1.371   .     A
Cu655  Cu656   2.708   .     S
Cu655  O668    1.954   .     S
Cu655  O661    1.963   .     S
Cu655  O664    1.981   .     S
Cu655  O665    1.950   .     S
Cu655  N659    2.035   .     S
Cu656  O667    1.954   .     S
Cu656  O663    1.981   .     S
Cu656  O662    1.963   .     S
Cu656  O666    1.950   .     S
Cu656  N660    2.035   .     S
H657   C527    1.087   1_655 S
C669   C674    1.410   .     A
C669   C670    1.406   .     A
C670   H675    1.082   .     S
C671   H676    1.080   .     S
C671   C672    1.396   .     A
C671   C1192   1.400   .     S
C672   H677    1.081   .     S
C672   C1195   1.394   .     S
C673   H678    1.082   .     S
C673   C674    1.396   .     A
C674   H679    1.083   .     S
C680   C685    1.406   .     A
C680   C681    1.407   .     A
C681   C682    1.399   .     A
C681   H686    1.081   .     S
C682   C567    1.397   1_655 S
C682   H571    1.082   1_655 S
C683   H688    1.083   .     S
C683   C684    1.397   .     A
C684   H689    1.082   .     S
C685   H690    1.082   .     S
C685   C568    1.399   1_655 S
C697   O721    1.299   .     A
C697   O719    1.307   .     A
C697   C708    1.465   .     S
C698   O722    1.303   .     A
C698   O720    1.302   .     A
C698   C707    1.463   .     S
C699   O723    1.294   .     A
C699   O725    1.299   .     A
C699   C701    1.434   .     S
C700   C702    1.433   .     S
C700   O724    1.293   .     A
C700   O726    1.299   .     A
C701   C818    1.337   1_455 S
C701   H831    1.087   1_455 S
C702   C759    1.337   .     S
C702   H774    1.086   .     S
C703   C708    1.412   .     A
C703   C727    1.489   .     S
C704   C707    1.421   .     A
C704   C738    1.487   .     S
C704   C880    1.409   .     S
C705   Cl749   1.776   .     S
C705   C707    1.406   .     A
C705   C877    1.398   .     S
C706   C708    1.405   .     A
C706   Cl750   1.780   .     S
C709   N718    1.375   .     A
C709   Cl751   1.756   .     S
C710   Cl752   1.736   .     S
C710   N717    1.370   .     A
C710   C1234   1.420   .     S
C711   Cl753   1.763   .     S
C711   N717    1.374   .     A
C711   C1231   1.423   .     S
C712   Cl754   1.764   .     S
C712   N718    1.371   .     A
Cu713  Cu714   2.708   .     S
Cu713  O726    1.954   .     S
Cu713  O719    1.963   .     S
Cu713  O722    1.981   .     S
Cu713  O723    1.950   .     S
Cu713  N717    2.035   .     S
Cu714  O725    1.954   .     S
Cu714  O721    1.981   .     S
Cu714  O720    1.963   .     S
Cu714  O724    1.950   .     S
Cu714  N718    2.035   .     S
H715   C759    1.087   .     S
H716   C818    1.086   1_455 S
C727   C732    1.410   .     A
C727   C728    1.406   .     A
C728   H733    1.082   .     S
C729   H734    1.080   .     S
C729   C730    1.396   .     A
C729   C1250   1.400   .     S
C730   H735    1.081   .     S
C730   C1253   1.394   .     S
C731   H736    1.082   .     S
C731   C732    1.396   .     A
C732   H737    1.083   .     S
C738   C743    1.406   .     A
C738   C739    1.407   .     A
C739   C740    1.399   .     A
C739   H744    1.081   .     S
C740   C799    1.397   .     S
C740   H803    1.082   .     S
C741   H746    1.083   .     S
C741   C742    1.397   .     A
C741   C856    1.397   1_455 S
C742   H747    1.082   .     S
C742   C859    1.399   1_455 S
C743   H748    1.082   .     S
C743   C800    1.399   .     S
H745   C856    1.082   1_455 S
C755   O779    1.299   .     A
C755   O777    1.307   .     A
C755   C766    1.465   .     S
C756   O780    1.303   .     A
C756   O778    1.302   .     A
C756   C765    1.463   .     S
C757   O781    1.294   .     A
C757   O783    1.299   .     A
C757   C759    1.434   .     S
C758   C760    1.433   .     S
C758   O782    1.293   .     A
C758   O784    1.299   .     A
C760   C817    1.337   .     S
C760   H832    1.086   .     S
C761   C766    1.412   .     A
C761   C785    1.489   .     S
C762   C765    1.421   .     A
C762   C796    1.487   .     S
C762   C938    1.409   .     S
C763   Cl807   1.776   .     S
C763   C765    1.406   .     A
C763   C935    1.398   .     S
C764   C766    1.405   .     A
C764   Cl808   1.780   .     S
C767   N776    1.375   .     A
C767   Cl809   1.756   .     S
C768   Cl810   1.736   .     S
C768   N775    1.370   .     A
C768   C1292   1.420   .     S
C769   Cl811   1.763   .     S
C769   N775    1.374   .     A
C769   C1289   1.423   .     S
C770   Cl812   1.764   .     S
C770   N776    1.371   .     A
Cu771  Cu772   2.708   .     S
Cu771  O784    1.954   .     S
Cu771  O777    1.963   .     S
Cu771  O780    1.981   .     S
Cu771  O781    1.950   .     S
Cu771  N775    2.035   .     S
Cu772  O783    1.954   .     S
Cu772  O779    1.981   .     S
Cu772  O778    1.963   .     S
Cu772  O782    1.950   .     S
Cu772  N776    2.035   .     S
H773   C817    1.087   .     S
C785   C790    1.410   .     A
C785   C786    1.406   .     A
C786   H791    1.082   .     S
C787   H792    1.080   .     S
C787   C788    1.396   .     A
C787   C1308   1.400   .     S
C788   H793    1.081   .     S
C788   C1311   1.394   .     S
C789   H794    1.082   .     S
C789   C790    1.396   .     A
C790   H795    1.083   .     S
C796   C801    1.406   .     A
C796   C797    1.407   .     A
C797   C798    1.399   .     A
C797   H802    1.081   .     S
C798   C857    1.397   .     S
C798   H861    1.082   .     S
C799   H804    1.083   .     S
C799   C800    1.397   .     A
C800   H805    1.082   .     S
C801   H806    1.082   .     S
C801   C858    1.399   .     S
C813   O837    1.299   .     A
C813   O835    1.307   .     A
C813   C824    1.465   .     S
C814   O838    1.303   .     A
C814   O836    1.302   .     A
C814   C823    1.463   .     S
C815   O839    1.294   .     A
C815   O841    1.299   .     A
C815   C817    1.434   .     S
C816   C818    1.433   .     S
C816   O840    1.293   .     A
C816   O842    1.299   .     A
C818   C701    1.337   1_655 S
C818   H716    1.086   1_655 S
C819   C824    1.412   .     A
C819   C843    1.489   .     S
C820   C823    1.421   .     A
C820   C854    1.487   .     S
C820   C996    1.409   .     S
C821   Cl865   1.776   .     S
C821   C823    1.406   .     A
C821   C993    1.398   .     S
C822   C824    1.405   .     A
C822   Cl866   1.780   .     S
C825   N834    1.375   .     A
C825   Cl867   1.756   .     S
C826   Cl868   1.736   .     S
C826   N833    1.370   .     A
C826   C1350   1.420   .     S
C827   Cl869   1.763   .     S
C827   N833    1.374   .     A
C827   C1347   1.423   .     S
C828   Cl870   1.764   .     S
C828   N834    1.371   .     A
Cu829  Cu830   2.708   .     S
Cu829  O842    1.954   .     S
Cu829  O835    1.963   .     S
Cu829  O838    1.981   .     S
Cu829  O839    1.950   .     S
Cu829  N833    2.035   .     S
Cu830  O841    1.954   .     S
Cu830  O837    1.981   .     S
Cu830  O836    1.963   .     S
Cu830  O840    1.950   .     S
Cu830  N834    2.035   .     S
H831   C701    1.087   1_655 S
C843   C848    1.410   .     A
C843   C844    1.406   .     A
C844   H849    1.082   .     S
C845   H850    1.080   .     S
C845   C846    1.396   .     A
C845   C1366   1.400   .     S
C846   H851    1.081   .     S
C846   C1369   1.394   .     S
C847   H852    1.082   .     S
C847   C848    1.396   .     A
C848   H853    1.083   .     S
C854   C859    1.406   .     A
C854   C855    1.407   .     A
C855   C856    1.399   .     A
C855   H860    1.081   .     S
C856   C741    1.397   1_655 S
C856   H745    1.082   1_655 S
C857   H862    1.083   .     S
C857   C858    1.397   .     A
C858   H863    1.082   .     S
C859   H864    1.082   .     S
C859   C742    1.399   1_655 S
C871   O895    1.299   .     A
C871   O893    1.307   .     A
C871   C882    1.465   .     S
C872   O896    1.303   .     A
C872   O894    1.302   .     A
C872   C881    1.463   .     S
C873   O897    1.294   .     A
C873   O899    1.299   .     A
C873   C875    1.434   .     S
C874   C876    1.433   .     S
C874   O898    1.293   .     A
C874   O900    1.299   .     A
C875   C992    1.337   1_455 S
C875   H1005   1.087   1_455 S
C876   C933    1.337   .     S
C876   H948    1.086   .     S
C877   C882    1.412   .     A
C877   C901    1.489   .     S
C878   C881    1.421   .     A
C878   C912    1.487   .     S
C878   C532    1.409   1_565 S
C879   Cl923   1.776   .     S
C879   C881    1.406   .     A
C879   C529    1.398   1_565 S
C880   C882    1.405   .     A
C880   Cl924   1.780   .     S
C883   N892    1.375   .     A
C883   Cl925   1.756   .     S
C884   Cl926   1.736   .     S
C884   N891    1.370   .     A
C884   C1408   1.420   .     S
C885   Cl927   1.763   .     S
C885   N891    1.374   .     A
C885   C1405   1.423   .     S
C886   Cl928   1.764   .     S
C886   N892    1.371   .     A
Cu887  Cu888   2.708   .     S
Cu887  O900    1.954   .     S
Cu887  O893    1.963   .     S
Cu887  O896    1.981   .     S
Cu887  O897    1.950   .     S
Cu887  N891    2.035   .     S
Cu888  O899    1.954   .     S
Cu888  O895    1.981   .     S
Cu888  O894    1.963   .     S
Cu888  O898    1.950   .     S
Cu888  N892    2.035   .     S
H889   C933    1.087   .     S
H890   C992    1.086   1_455 S
C901   C906    1.410   .     A
C901   C902    1.406   .     A
C902   H907    1.082   .     S
C903   H908    1.080   .     S
C903   C904    1.396   .     A
C903   C1424   1.400   .     S
C904   H909    1.081   .     S
C904   C1427   1.394   .     S
C905   H910    1.082   .     S
C905   C906    1.396   .     A
C906   H911    1.083   .     S
C912   C917    1.406   .     A
C912   C913    1.407   .     A
C913   C914    1.399   .     A
C913   H918    1.081   .     S
C914   C973    1.397   .     S
C914   H977    1.082   .     S
C915   H920    1.083   .     S
C915   C916    1.397   .     A
C915   C1030   1.397   1_455 S
C916   H921    1.082   .     S
C916   C1033   1.399   1_455 S
C917   H922    1.082   .     S
C917   C974    1.399   .     S
H919   C1030   1.082   1_455 S
C929   O953    1.299   .     A
C929   O951    1.307   .     A
C929   C940    1.465   .     S
C930   O954    1.303   .     A
C930   O952    1.302   .     A
C930   C939    1.463   .     S
C931   O955    1.294   .     A
C931   O957    1.299   .     A
C931   C933    1.434   .     S
C932   C934    1.433   .     S
C932   O956    1.293   .     A
C932   O958    1.299   .     A
C934   C991    1.337   .     S
C934   H1006   1.086   .     S
C935   C940    1.412   .     A
C935   C959    1.489   .     S
C936   C939    1.421   .     A
C936   C970    1.487   .     S
C936   C590    1.409   1_565 S
C937   Cl981   1.776   .     S
C937   C939    1.406   .     A
C937   C587    1.398   1_565 S
C938   C940    1.405   .     A
C938   Cl982   1.780   .     S
C941   N950    1.375   .     A
C941   Cl983   1.756   .     S
C942   Cl984   1.736   .     S
C942   N949    1.370   .     A
C942   C1466   1.420   .     S
C943   Cl985   1.763   .     S
C943   N949    1.374   .     A
C943   C1463   1.423   .     S
C944   Cl986   1.764   .     S
C944   N950    1.371   .     A
Cu945  Cu946   2.708   .     S
Cu945  O958    1.954   .     S
Cu945  O951    1.963   .     S
Cu945  O954    1.981   .     S
Cu945  O955    1.950   .     S
Cu945  N949    2.035   .     S
Cu946  O957    1.954   .     S
Cu946  O953    1.981   .     S
Cu946  O952    1.963   .     S
Cu946  O956    1.950   .     S
Cu946  N950    2.035   .     S
H947   C991    1.087   .     S
C959   C964    1.410   .     A
C959   C960    1.406   .     A
C960   H965    1.082   .     S
C961   H966    1.080   .     S
C961   C962    1.396   .     A
C961   C1482   1.400   .     S
C962   H967    1.081   .     S
C962   C1485   1.394   .     S
C963   H968    1.082   .     S
C963   C964    1.396   .     A
C964   H969    1.083   .     S
C970   C975    1.406   .     A
C970   C971    1.407   .     A
C971   C972    1.399   .     A
C971   H976    1.081   .     S
C972   C1031   1.397   .     S
C972   H1035   1.082   .     S
C973   H978    1.083   .     S
C973   C974    1.397   .     A
C974   H979    1.082   .     S
C975   H980    1.082   .     S
C975   C1032   1.399   .     S
C987   O1011   1.299   .     A
C987   O1009   1.307   .     A
C987   C998    1.465   .     S
C988   O1012   1.303   .     A
C988   O1010   1.302   .     A
C988   C997    1.463   .     S
C989   O1013   1.294   .     A
C989   O1015   1.299   .     A
C989   C991    1.434   .     S
C990   C992    1.433   .     S
C990   O1014   1.293   .     A
C990   O1016   1.299   .     A
C992   C875    1.337   1_655 S
C992   H890    1.086   1_655 S
C993   C998    1.412   .     A
C993   C1017   1.489   .     S
C994   C997    1.421   .     A
C994   C1028   1.487   .     S
C994   C648    1.409   1_565 S
C995   Cl1039  1.776   .     S
C995   C997    1.406   .     A
C995   C645    1.398   1_565 S
C996   C998    1.405   .     A
C996   Cl1040  1.780   .     S
C999   N1008   1.375   .     A
C999   Cl1041  1.756   .     S
C1000  Cl1042  1.736   .     S
C1000  N1007   1.370   .     A
C1000  C1524   1.420   .     S
C1001  Cl1043  1.763   .     S
C1001  N1007   1.374   .     A
C1001  C1521   1.423   .     S
C1002  Cl1044  1.764   .     S
C1002  N1008   1.371   .     A
Cu1003 Cu1004  2.708   .     S
Cu1003 O1016   1.954   .     S
Cu1003 O1009   1.963   .     S
Cu1003 O1012   1.981   .     S
Cu1003 O1013   1.950   .     S
Cu1003 N1007   2.035   .     S
Cu1004 O1015   1.954   .     S
Cu1004 O1011   1.981   .     S
Cu1004 O1010   1.963   .     S
Cu1004 O1014   1.950   .     S
Cu1004 N1008   2.035   .     S
H1005  C875    1.087   1_655 S
C1017  C1022   1.410   .     A
C1017  C1018   1.406   .     A
C1018  H1023   1.082   .     S
C1019  H1024   1.080   .     S
C1019  C1020   1.396   .     A
C1019  C1540   1.400   .     S
C1020  H1025   1.081   .     S
C1020  C1543   1.394   .     S
C1021  H1026   1.082   .     S
C1021  C1022   1.396   .     A
C1022  H1027   1.083   .     S
C1028  C1033   1.406   .     A
C1028  C1029   1.407   .     A
C1029  C1030   1.399   .     A
C1029  H1034   1.081   .     S
C1030  C915    1.397   1_655 S
C1030  H919    1.082   1_655 S
C1031  H1036   1.083   .     S
C1031  C1032   1.397   .     A
C1032  H1037   1.082   .     S
C1033  H1038   1.082   .     S
C1033  C916    1.399   1_655 S
C1045  O1069   1.299   .     A
C1045  O1067   1.307   .     A
C1045  C1056   1.465   .     S
C1046  O1070   1.303   .     A
C1046  O1068   1.302   .     A
C1046  C1055   1.463   .     S
C1047  O1071   1.294   .     A
C1047  O1073   1.299   .     A
C1047  C1049   1.434   .     S
C1048  C1050   1.433   .     S
C1048  O1072   1.293   .     A
C1048  O1074   1.299   .     A
C1049  C1166   1.337   1_455 S
C1049  H1179   1.087   1_455 S
C1050  C1107   1.337   .     S
C1050  H1122   1.086   .     S
C1051  C1056   1.412   .     A
C1051  C1075   1.489   .     S
C1051  C1401   1.398   1_545 S
C1052  C1055   1.421   .     A
C1052  C1086   1.487   .     S
C1052  C1228   1.409   .     S
C1053  Cl1097  1.776   .     S
C1053  C1055   1.406   .     A
C1053  C1225   1.398   .     S
C1054  C1056   1.405   .     A
C1054  Cl1098  1.780   .     S
C1054  C1400   1.409   1_545 S
C1057  N1066   1.375   .     A
C1057  Cl1099  1.756   .     S
C1058  Cl1100  1.736   .     S
C1058  N1065   1.370   .     A
C1058  C16     1.420   1_556 S
C1059  Cl1101  1.763   .     S
C1059  N1065   1.374   .     A
C1059  C13     1.423   1_556 S
C1060  Cl1102  1.764   .     S
C1060  N1066   1.371   .     A
Cu1061 Cu1062  2.708   .     S
Cu1061 O1074   1.954   .     S
Cu1061 O1067   1.963   .     S
Cu1061 O1070   1.981   .     S
Cu1061 O1071   1.950   .     S
Cu1061 N1065   2.035   .     S
Cu1062 O1073   1.954   .     S
Cu1062 O1069   1.981   .     S
Cu1062 O1068   1.963   .     S
Cu1062 O1072   1.950   .     S
Cu1062 N1066   2.035   .     S
H1063  C1107   1.087   .     S
H1064  C1166   1.086   1_455 S
C1075  C1080   1.410   .     A
C1075  C1076   1.406   .     A
C1076  H1081   1.082   .     S
C1077  H1082   1.080   .     S
C1077  C1078   1.396   .     A
C1077  C32     1.400   1_556 S
C1078  H1083   1.081   .     S
C1078  C35     1.394   1_556 S
C1079  H1084   1.082   .     S
C1079  C1080   1.396   .     A
C1080  H1085   1.083   .     S
C1086  C1091   1.406   .     A
C1086  C1087   1.407   .     A
C1087  C1088   1.399   .     A
C1087  H1092   1.081   .     S
C1088  C1147   1.397   .     S
C1088  H1151   1.082   .     S
C1089  H1094   1.083   .     S
C1089  C1090   1.397   .     A
C1089  C1204   1.397   1_455 S
C1090  H1095   1.082   .     S
C1090  C1207   1.399   1_455 S
C1091  H1096   1.082   .     S
C1091  C1148   1.399   .     S
H1093  C1204   1.082   1_455 S
C1103  O1127   1.299   .     A
C1103  O1125   1.307   .     A
C1103  C1114   1.465   .     S
C1104  O1128   1.303   .     A
C1104  O1126   1.302   .     A
C1104  C1113   1.463   .     S
C1105  O1129   1.294   .     A
C1105  O1131   1.299   .     A
C1105  C1107   1.434   .     S
C1106  C1108   1.433   .     S
C1106  O1130   1.293   .     A
C1106  O1132   1.299   .     A
C1108  C1165   1.337   .     S
C1108  H1180   1.086   .     S
C1109  C1114   1.412   .     A
C1109  C1133   1.489   .     S
C1109  C1459   1.398   1_545 S
C1110  C1113   1.421   .     A
C1110  C1144   1.487   .     S
C1110  C1286   1.409   .     S
C1111  Cl1155  1.776   .     S
C1111  C1113   1.406   .     A
C1111  C1283   1.398   .     S
C1112  C1114   1.405   .     A
C1112  Cl1156  1.780   .     S
C1112  C1458   1.409   1_545 S
C1115  N1124   1.375   .     A
C1115  Cl1157  1.756   .     S
C1116  Cl1158  1.736   .     S
C1116  N1123   1.370   .     A
C1116  C74     1.420   1_556 S
C1117  Cl1159  1.763   .     S
C1117  N1123   1.374   .     A
C1117  C71     1.423   1_556 S
C1118  Cl1160  1.764   .     S
C1118  N1124   1.371   .     A
Cu1119 Cu1120  2.708   .     S
Cu1119 O1132   1.954   .     S
Cu1119 O1125   1.963   .     S
Cu1119 O1128   1.981   .     S
Cu1119 O1129   1.950   .     S
Cu1119 N1123   2.035   .     S
Cu1120 O1131   1.954   .     S
Cu1120 O1127   1.981   .     S
Cu1120 O1126   1.963   .     S
Cu1120 O1130   1.950   .     S
Cu1120 N1124   2.035   .     S
H1121  C1165   1.087   .     S
C1133  C1138   1.410   .     A
C1133  C1134   1.406   .     A
C1134  H1139   1.082   .     S
C1135  H1140   1.080   .     S
C1135  C1136   1.396   .     A
C1135  C90     1.400   1_556 S
C1136  H1141   1.081   .     S
C1136  C93     1.394   1_556 S
C1137  H1142   1.082   .     S
C1137  C1138   1.396   .     A
C1138  H1143   1.083   .     S
C1144  C1149   1.406   .     A
C1144  C1145   1.407   .     A
C1145  C1146   1.399   .     A
C1145  H1150   1.081   .     S
C1146  C1205   1.397   .     S
C1146  H1209   1.082   .     S
C1147  H1152   1.083   .     S
C1147  C1148   1.397   .     A
C1148  H1153   1.082   .     S
C1149  H1154   1.082   .     S
C1149  C1206   1.399   .     S
C1161  O1185   1.299   .     A
C1161  O1183   1.307   .     A
C1161  C1172   1.465   .     S
C1162  O1186   1.303   .     A
C1162  O1184   1.302   .     A
C1162  C1171   1.463   .     S
C1163  O1187   1.294   .     A
C1163  O1189   1.299   .     A
C1163  C1165   1.434   .     S
C1164  C1166   1.433   .     S
C1164  O1188   1.293   .     A
C1164  O1190   1.299   .     A
C1166  C1049   1.337   1_655 S
C1166  H1064   1.086   1_655 S
C1167  C1172   1.412   .     A
C1167  C1191   1.489   .     S
C1167  C1517   1.398   1_545 S
C1168  C1171   1.421   .     A
C1168  C1202   1.487   .     S
C1168  C1344   1.409   .     S
C1169  Cl1213  1.776   .     S
C1169  C1171   1.406   .     A
C1169  C1341   1.398   .     S
C1170  C1172   1.405   .     A
C1170  Cl1214  1.780   .     S
C1170  C1516   1.409   1_545 S
C1173  N1182   1.375   .     A
C1173  Cl1215  1.756   .     S
C1174  Cl1216  1.736   .     S
C1174  N1181   1.370   .     A
C1174  C132    1.420   1_556 S
C1175  Cl1217  1.763   .     S
C1175  N1181   1.374   .     A
C1175  C129    1.423   1_556 S
C1176  Cl1218  1.764   .     S
C1176  N1182   1.371   .     A
Cu1177 Cu1178  2.708   .     S
Cu1177 O1190   1.954   .     S
Cu1177 O1183   1.963   .     S
Cu1177 O1186   1.981   .     S
Cu1177 O1187   1.950   .     S
Cu1177 N1181   2.035   .     S
Cu1178 O1189   1.954   .     S
Cu1178 O1185   1.981   .     S
Cu1178 O1184   1.963   .     S
Cu1178 O1188   1.950   .     S
Cu1178 N1182   2.035   .     S
H1179  C1049   1.087   1_655 S
C1191  C1196   1.410   .     A
C1191  C1192   1.406   .     A
C1192  H1197   1.082   .     S
C1193  H1198   1.080   .     S
C1193  C1194   1.396   .     A
C1193  C148    1.400   1_556 S
C1194  H1199   1.081   .     S
C1194  C151    1.394   1_556 S
C1195  H1200   1.082   .     S
C1195  C1196   1.396   .     A
C1196  H1201   1.083   .     S
C1202  C1207   1.406   .     A
C1202  C1203   1.407   .     A
C1203  C1204   1.399   .     A
C1203  H1208   1.081   .     S
C1204  C1089   1.397   1_655 S
C1204  H1093   1.082   1_655 S
C1205  H1210   1.083   .     S
C1205  C1206   1.397   .     A
C1206  H1211   1.082   .     S
C1207  H1212   1.082   .     S
C1207  C1090   1.399   1_655 S
C1219  O1243   1.299   .     A
C1219  O1241   1.307   .     A
C1219  C1230   1.465   .     S
C1220  O1244   1.303   .     A
C1220  O1242   1.302   .     A
C1220  C1229   1.463   .     S
C1221  O1245   1.294   .     A
C1221  O1247   1.299   .     A
C1221  C1223   1.434   .     S
C1222  C1224   1.433   .     S
C1222  O1246   1.293   .     A
C1222  O1248   1.299   .     A
C1223  C1340   1.337   1_455 S
C1223  H1353   1.087   1_455 S
C1224  C1281   1.337   .     S
C1224  H1296   1.086   .     S
C1225  C1230   1.412   .     A
C1225  C1249   1.489   .     S
C1226  C1229   1.421   .     A
C1226  C1260   1.487   .     S
C1226  C1402   1.409   .     S
C1227  Cl1271  1.776   .     S
C1227  C1229   1.406   .     A
C1227  C1399   1.398   .     S
C1228  C1230   1.405   .     A
C1228  Cl1272  1.780   .     S
C1231  N1240   1.375   .     A
C1231  Cl1273  1.756   .     S
C1232  Cl1274  1.736   .     S
C1232  N1239   1.370   .     A
C1232  C190    1.420   1_556 S
C1233  Cl1275  1.763   .     S
C1233  N1239   1.374   .     A
C1233  C187    1.423   1_556 S
C1234  Cl1276  1.764   .     S
C1234  N1240   1.371   .     A
Cu1235 Cu1236  2.708   .     S
Cu1235 O1248   1.954   .     S
Cu1235 O1241   1.963   .     S
Cu1235 O1244   1.981   .     S
Cu1235 O1245   1.950   .     S
Cu1235 N1239   2.035   .     S
Cu1236 O1247   1.954   .     S
Cu1236 O1243   1.981   .     S
Cu1236 O1242   1.963   .     S
Cu1236 O1246   1.950   .     S
Cu1236 N1240   2.035   .     S
H1237  C1281   1.087   .     S
H1238  C1340   1.086   1_455 S
C1249  C1254   1.410   .     A
C1249  C1250   1.406   .     A
C1250  H1255   1.082   .     S
C1251  H1256   1.080   .     S
C1251  C1252   1.396   .     A
C1251  C206    1.400   1_556 S
C1252  H1257   1.081   .     S
C1252  C209    1.394   1_556 S
C1253  H1258   1.082   .     S
C1253  C1254   1.396   .     A
C1254  H1259   1.083   .     S
C1260  C1265   1.406   .     A
C1260  C1261   1.407   .     A
C1261  C1262   1.399   .     A
C1261  H1266   1.081   .     S
C1262  C1321   1.397   .     S
C1262  H1325   1.082   .     S
C1263  H1268   1.083   .     S
C1263  C1264   1.397   .     A
C1263  C1378   1.397   1_455 S
C1264  H1269   1.082   .     S
C1264  C1381   1.399   1_455 S
C1265  H1270   1.082   .     S
C1265  C1322   1.399   .     S
H1267  C1378   1.082   1_455 S
C1277  O1301   1.299   .     A
C1277  O1299   1.307   .     A
C1277  C1288   1.465   .     S
C1278  O1302   1.303   .     A
C1278  O1300   1.302   .     A
C1278  C1287   1.463   .     S
C1279  O1303   1.294   .     A
C1279  O1305   1.299   .     A
C1279  C1281   1.434   .     S
C1280  C1282   1.433   .     S
C1280  O1304   1.293   .     A
C1280  O1306   1.299   .     A
C1282  C1339   1.337   .     S
C1282  H1354   1.086   .     S
C1283  C1288   1.412   .     A
C1283  C1307   1.489   .     S
C1284  C1287   1.421   .     A
C1284  C1318   1.487   .     S
C1284  C1460   1.409   .     S
C1285  Cl1329  1.776   .     S
C1285  C1287   1.406   .     A
C1285  C1457   1.398   .     S
C1286  C1288   1.405   .     A
C1286  Cl1330  1.780   .     S
C1289  N1298   1.375   .     A
C1289  Cl1331  1.756   .     S
C1290  Cl1332  1.736   .     S
C1290  N1297   1.370   .     A
C1290  C248    1.420   1_556 S
C1291  Cl1333  1.763   .     S
C1291  N1297   1.374   .     A
C1291  C245    1.423   1_556 S
C1292  Cl1334  1.764   .     S
C1292  N1298   1.371   .     A
Cu1293 Cu1294  2.708   .     S
Cu1293 O1306   1.954   .     S
Cu1293 O1299   1.963   .     S
Cu1293 O1302   1.981   .     S
Cu1293 O1303   1.950   .     S
Cu1293 N1297   2.035   .     S
Cu1294 O1305   1.954   .     S
Cu1294 O1301   1.981   .     S
Cu1294 O1300   1.963   .     S
Cu1294 O1304   1.950   .     S
Cu1294 N1298   2.035   .     S
H1295  C1339   1.087   .     S
C1307  C1312   1.410   .     A
C1307  C1308   1.406   .     A
C1308  H1313   1.082   .     S
C1309  H1314   1.080   .     S
C1309  C1310   1.396   .     A
C1309  C264    1.400   1_556 S
C1310  H1315   1.081   .     S
C1310  C267    1.394   1_556 S
C1311  H1316   1.082   .     S
C1311  C1312   1.396   .     A
C1312  H1317   1.083   .     S
C1318  C1323   1.406   .     A
C1318  C1319   1.407   .     A
C1319  C1320   1.399   .     A
C1319  H1324   1.081   .     S
C1320  C1379   1.397   .     S
C1320  H1383   1.082   .     S
C1321  H1326   1.083   .     S
C1321  C1322   1.397   .     A
C1322  H1327   1.082   .     S
C1323  H1328   1.082   .     S
C1323  C1380   1.399   .     S
C1335  O1359   1.299   .     A
C1335  O1357   1.307   .     A
C1335  C1346   1.465   .     S
C1336  O1360   1.303   .     A
C1336  O1358   1.302   .     A
C1336  C1345   1.463   .     S
C1337  O1361   1.294   .     A
C1337  O1363   1.299   .     A
C1337  C1339   1.434   .     S
C1338  C1340   1.433   .     S
C1338  O1362   1.293   .     A
C1338  O1364   1.299   .     A
C1340  C1223   1.337   1_655 S
C1340  H1238   1.086   1_655 S
C1341  C1346   1.412   .     A
C1341  C1365   1.489   .     S
C1342  C1345   1.421   .     A
C1342  C1376   1.487   .     S
C1342  C1518   1.409   .     S
C1343  Cl1387  1.776   .     S
C1343  C1345   1.406   .     A
C1343  C1515   1.398   .     S
C1344  C1346   1.405   .     A
C1344  Cl1388  1.780   .     S
C1347  N1356   1.375   .     A
C1347  Cl1389  1.756   .     S
C1348  Cl1390  1.736   .     S
C1348  N1355   1.370   .     A
C1348  C306    1.420   1_556 S
C1349  Cl1391  1.763   .     S
C1349  N1355   1.374   .     A
C1349  C303    1.423   1_556 S
C1350  Cl1392  1.764   .     S
C1350  N1356   1.371   .     A
Cu1351 Cu1352  2.708   .     S
Cu1351 O1364   1.954   .     S
Cu1351 O1357   1.963   .     S
Cu1351 O1360   1.981   .     S
Cu1351 O1361   1.950   .     S
Cu1351 N1355   2.035   .     S
Cu1352 O1363   1.954   .     S
Cu1352 O1359   1.981   .     S
Cu1352 O1358   1.963   .     S
Cu1352 O1362   1.950   .     S
Cu1352 N1356   2.035   .     S
H1353  C1223   1.087   1_655 S
C1365  C1370   1.410   .     A
C1365  C1366   1.406   .     A
C1366  H1371   1.082   .     S
C1367  H1372   1.080   .     S
C1367  C1368   1.396   .     A
C1367  C322    1.400   1_556 S
C1368  H1373   1.081   .     S
C1368  C325    1.394   1_556 S
C1369  H1374   1.082   .     S
C1369  C1370   1.396   .     A
C1370  H1375   1.083   .     S
C1376  C1381   1.406   .     A
C1376  C1377   1.407   .     A
C1377  C1378   1.399   .     A
C1377  H1382   1.081   .     S
C1378  C1263   1.397   1_655 S
C1378  H1267   1.082   1_655 S
C1379  H1384   1.083   .     S
C1379  C1380   1.397   .     A
C1380  H1385   1.082   .     S
C1381  H1386   1.082   .     S
C1381  C1264   1.399   1_655 S
C1393  O1417   1.299   .     A
C1393  O1415   1.307   .     A
C1393  C1404   1.465   .     S
C1394  O1418   1.303   .     A
C1394  O1416   1.302   .     A
C1394  C1403   1.463   .     S
C1395  O1419   1.294   .     A
C1395  O1421   1.299   .     A
C1395  C1397   1.434   .     S
C1396  C1398   1.433   .     S
C1396  O1420   1.293   .     A
C1396  O1422   1.299   .     A
C1397  C1514   1.337   1_455 S
C1397  H1527   1.087   1_455 S
C1398  C1455   1.337   .     S
C1398  H1470   1.086   .     S
C1399  C1404   1.412   .     A
C1399  C1423   1.489   .     S
C1400  C1403   1.421   .     A
C1400  C1434   1.487   .     S
C1400  C1054   1.409   1_565 S
C1401  Cl1445  1.776   .     S
C1401  C1403   1.406   .     A
C1401  C1051   1.398   1_565 S
C1402  C1404   1.405   .     A
C1402  Cl1446  1.780   .     S
C1405  N1414   1.375   .     A
C1405  Cl1447  1.756   .     S
C1406  Cl1448  1.736   .     S
C1406  N1413   1.370   .     A
C1406  C364    1.420   1_556 S
C1407  Cl1449  1.763   .     S
C1407  N1413   1.374   .     A
C1407  C361    1.423   1_556 S
C1408  Cl1450  1.764   .     S
C1408  N1414   1.371   .     A
Cu1409 Cu1410  2.708   .     S
Cu1409 O1422   1.954   .     S
Cu1409 O1415   1.963   .     S
Cu1409 O1418   1.981   .     S
Cu1409 O1419   1.950   .     S
Cu1409 N1413   2.035   .     S
Cu1410 O1421   1.954   .     S
Cu1410 O1417   1.981   .     S
Cu1410 O1416   1.963   .     S
Cu1410 O1420   1.950   .     S
Cu1410 N1414   2.035   .     S
H1411  C1455   1.087   .     S
H1412  C1514   1.086   1_455 S
C1423  C1428   1.410   .     A
C1423  C1424   1.406   .     A
C1424  H1429   1.082   .     S
C1425  H1430   1.080   .     S
C1425  C1426   1.396   .     A
C1425  C380    1.400   1_556 S
C1426  H1431   1.081   .     S
C1426  C383    1.394   1_556 S
C1427  H1432   1.082   .     S
C1427  C1428   1.396   .     A
C1428  H1433   1.083   .     S
C1434  C1439   1.406   .     A
C1434  C1435   1.407   .     A
C1435  C1436   1.399   .     A
C1435  H1440   1.081   .     S
C1436  C1495   1.397   .     S
C1436  H1499   1.082   .     S
C1437  H1442   1.083   .     S
C1437  C1438   1.397   .     A
C1437  C1552   1.397   1_455 S
C1438  H1443   1.082   .     S
C1438  C1555   1.399   1_455 S
C1439  H1444   1.082   .     S
C1439  C1496   1.399   .     S
H1441  C1552   1.082   1_455 S
C1451  O1475   1.299   .     A
C1451  O1473   1.307   .     A
C1451  C1462   1.465   .     S
C1452  O1476   1.303   .     A
C1452  O1474   1.302   .     A
C1452  C1461   1.463   .     S
C1453  O1477   1.294   .     A
C1453  O1479   1.299   .     A
C1453  C1455   1.434   .     S
C1454  C1456   1.433   .     S
C1454  O1478   1.293   .     A
C1454  O1480   1.299   .     A
C1456  C1513   1.337   .     S
C1456  H1528   1.086   .     S
C1457  C1462   1.412   .     A
C1457  C1481   1.489   .     S
C1458  C1461   1.421   .     A
C1458  C1492   1.487   .     S
C1458  C1112   1.409   1_565 S
C1459  Cl1503  1.776   .     S
C1459  C1461   1.406   .     A
C1459  C1109   1.398   1_565 S
C1460  C1462   1.405   .     A
C1460  Cl1504  1.780   .     S
C1463  N1472   1.375   .     A
C1463  Cl1505  1.756   .     S
C1464  Cl1506  1.736   .     S
C1464  N1471   1.370   .     A
C1464  C422    1.420   1_556 S
C1465  Cl1507  1.763   .     S
C1465  N1471   1.374   .     A
C1465  C419    1.423   1_556 S
C1466  Cl1508  1.764   .     S
C1466  N1472   1.371   .     A
Cu1467 Cu1468  2.708   .     S
Cu1467 O1480   1.954   .     S
Cu1467 O1473   1.963   .     S
Cu1467 O1476   1.981   .     S
Cu1467 O1477   1.950   .     S
Cu1467 N1471   2.035   .     S
Cu1468 O1479   1.954   .     S
Cu1468 O1475   1.981   .     S
Cu1468 O1474   1.963   .     S
Cu1468 O1478   1.950   .     S
Cu1468 N1472   2.035   .     S
H1469  C1513   1.087   .     S
C1481  C1486   1.410   .     A
C1481  C1482   1.406   .     A
C1482  H1487   1.082   .     S
C1483  H1488   1.080   .     S
C1483  C1484   1.396   .     A
C1483  C438    1.400   1_556 S
C1484  H1489   1.081   .     S
C1484  C441    1.394   1_556 S
C1485  H1490   1.082   .     S
C1485  C1486   1.396   .     A
C1486  H1491   1.083   .     S
C1492  C1497   1.406   .     A
C1492  C1493   1.407   .     A
C1493  C1494   1.399   .     A
C1493  H1498   1.081   .     S
C1494  C1553   1.397   .     S
C1494  H1557   1.082   .     S
C1495  H1500   1.083   .     S
C1495  C1496   1.397   .     A
C1496  H1501   1.082   .     S
C1497  H1502   1.082   .     S
C1497  C1554   1.399   .     S
C1509  O1533   1.299   .     A
C1509  O1531   1.307   .     A
C1509  C1520   1.465   .     S
C1510  O1534   1.303   .     A
C1510  O1532   1.302   .     A
C1510  C1519   1.463   .     S
C1511  O1535   1.294   .     A
C1511  O1537   1.299   .     A
C1511  C1513   1.434   .     S
C1512  C1514   1.433   .     S
C1512  O1536   1.293   .     A
C1512  O1538   1.299   .     A
C1514  C1397   1.337   1_655 S
C1514  H1412   1.086   1_655 S
C1515  C1520   1.412   .     A
C1515  C1539   1.489   .     S
C1516  C1519   1.421   .     A
C1516  C1550   1.487   .     S
C1516  C1170   1.409   1_565 S
C1517  Cl1561  1.776   .     S
C1517  C1519   1.406   .     A
C1517  C1167   1.398   1_565 S
C1518  C1520   1.405   .     A
C1518  Cl1562  1.780   .     S
C1521  N1530   1.375   .     A
C1521  Cl1563  1.756   .     S
C1522  Cl1564  1.736   .     S
C1522  N1529   1.370   .     A
C1522  C480    1.420   1_556 S
C1523  Cl1565  1.763   .     S
C1523  N1529   1.374   .     A
C1523  C477    1.423   1_556 S
C1524  Cl1566  1.764   .     S
C1524  N1530   1.371   .     A
Cu1525 Cu1526  2.708   .     S
Cu1525 O1538   1.954   .     S
Cu1525 O1531   1.963   .     S
Cu1525 O1534   1.981   .     S
Cu1525 O1535   1.950   .     S
Cu1525 N1529   2.035   .     S
Cu1526 O1537   1.954   .     S
Cu1526 O1533   1.981   .     S
Cu1526 O1532   1.963   .     S
Cu1526 O1536   1.950   .     S
Cu1526 N1530   2.035   .     S
H1527  C1397   1.087   1_655 S
C1539  C1544   1.410   .     A
C1539  C1540   1.406   .     A
C1540  H1545   1.082   .     S
C1541  H1546   1.080   .     S
C1541  C1542   1.396   .     A
C1541  C496    1.400   1_556 S
C1542  H1547   1.081   .     S
C1542  C499    1.394   1_556 S
C1543  H1548   1.082   .     S
C1543  C1544   1.396   .     A
C1544  H1549   1.083   .     S
C1550  C1555   1.406   .     A
C1550  C1551   1.407   .     A
C1551  C1552   1.399   .     A
C1551  H1556   1.081   .     S
C1552  C1437   1.397   1_655 S
C1552  H1441   1.082   1_655 S
C1553  H1558   1.083   .     S
C1553  C1554   1.397   .     A
C1554  H1559   1.082   .     S
C1555  H1560   1.082   .     S
C1555  C1438   1.399   1_655 S
