data_str_m2_o2_o5_pcu_sym.53
_audit_creation_date              2020-01-03
_audit_creation_method            'Materials Studio'
_symmetry_space_group_name_H-M    'P1'
_symmetry_Int_Tables_number       1
_symmetry_cell_setting            triclinic
loop_
_symmetry_equiv_pos_as_xyz
  x,y,z
_cell_length_a                    30.1396
_cell_length_b                    27.7287
_cell_length_c                    27.2033
_cell_angle_alpha                 90.0002
_cell_angle_beta                  89.8871
_cell_angle_gamma                 90.0005
loop_
_atom_site_label
_atom_site_type_symbol
_atom_site_fract_x
_atom_site_fract_y
_atom_site_fract_z
_atom_site_U_iso_or_equiv
_atom_site_adp_type
_atom_site_occupancy
C1     C     0.16495   0.25002   0.16645   0.00000  Uiso   1.00
C2     C     0.28966   0.44635   0.15980   0.00000  Uiso   1.00
C3     C     0.25000   0.25000   0.07351   0.00000  Uiso   1.00
C4     C     0.25000   0.25000   0.25982   0.00000  Uiso   1.00
C5     C     0.25000   0.02749   0.16667   0.00000  Uiso   1.00
C6     C     0.25000   0.47287   0.16666   0.00000  Uiso   1.00
C7     C     0.25000   0.25002   0.02184   0.00000  Uiso   1.00
C8     C     0.25000   0.25002   0.31149   0.00000  Uiso   1.00
C9     C     0.04691   0.28335   0.19527   0.00000  Uiso   1.00
C10    C     0.45289   0.21647   0.19564   0.00000  Uiso   1.00
C11    C     0.45310   0.28335   0.13811   0.00000  Uiso   1.00
C12    C     0.33505   0.25003   0.16689   0.00000  Uiso   1.00
C13    C     0.04710   0.21645   0.13777   0.00000  Uiso   1.00
C14    C     0.09315   0.28321   0.19613   0.00000  Uiso   1.00
C15    C     0.40662   0.21721   0.19695   0.00000  Uiso   1.00
C16    C     0.40686   0.28321   0.13724   0.00000  Uiso   1.00
C17    C     0.09337   0.21720   0.13644   0.00000  Uiso   1.00
C18    C     0.11658   0.25009   0.16643   0.00000  Uiso   1.00
C19    C     0.38342   0.25009   0.16693   0.00000  Uiso   1.00
C20    C     0.02409   0.24969   0.16673   0.00000  Uiso   1.00
C21    C     0.47591   0.24969   0.16667   0.00000  Uiso   1.00
C22    C     0.12344   0.29734   0.27112   0.00000  Uiso   1.00
C23    C     0.27812   0.10483   0.19679   0.00000  Uiso   1.00
C24    C     0.14884   0.33392   0.30184   0.00000  Uiso   1.00
C25    C     0.38075   0.20618   0.27451   0.00000  Uiso   1.00
C26    C     0.35501   0.17239   0.30816   0.00000  Uiso   1.00
C27    C     0.37663   0.29736   0.06222   0.00000  Uiso   1.00
C28    C     0.35123   0.33393   0.03150   0.00000  Uiso   1.00
C29    C     0.11907   0.20601   0.05884   0.00000  Uiso   1.00
C30    C     0.14488   0.17224   0.02523   0.00000  Uiso   1.00
C31    C     0.28591   0.01766   0.27271   0.00000  Uiso   1.00
C32    C     0.31820   0.49092   0.30573   0.00000  Uiso   1.00
C33    C     0.16056   0.47686   0.22808   0.00000  Uiso   1.00
C34    C     0.21131   0.39553   0.17298   0.00000  Uiso   1.00
C35    C     0.11308   0.49465   0.23341   0.00000  Uiso   1.00
C36    C     0.21408   0.01769   0.06062   0.00000  Uiso   1.00
C37    C     0.18180   0.49090   0.02762   0.00000  Uiso   1.00
C38    C     0.33943   0.47689   0.10525   0.00000  Uiso   1.00
C39    C     0.38691   0.49467   0.09992   0.00000  Uiso   1.00
C40    C     0.22188   0.10483   0.13654   0.00000  Uiso   1.00
C41    C     0.28869   0.39553   0.16035   0.00000  Uiso   1.00
C42    C     0.27822   0.05405   0.19839   0.00000  Uiso   1.00
C43    C     0.21034   0.44635   0.17353   0.00000  Uiso   1.00
C44    C     0.22178   0.05405   0.13495   0.00000  Uiso   1.00
Cu45   Cu    0.25000   0.29821   0.16667   0.00000  Uiso   1.00
Cu46   Cu    0.25000   0.20178   0.16667   0.00000  Uiso   1.00
H47    H     0.30053   0.12474   0.22017   0.00000  Uiso   1.00
H48    H     0.09174   0.28876   0.29041   0.00000  Uiso   1.00
H49    H     0.15621   0.31846   0.00526   0.00000  Uiso   1.00
H50    H     0.18059   0.34336   0.28339   0.00000  Uiso   1.00
H51    H     0.12874   0.36719   0.30659   0.00000  Uiso   1.00
H52    H     0.36272   0.24126   0.27307   0.00000  Uiso   1.00
H53    H     0.41425   0.21196   0.29077   0.00000  Uiso   1.00
H54    H     0.37152   0.13661   0.30965   0.00000  Uiso   1.00
H55    H     0.35359   0.18771   0.01251   0.00000  Uiso   1.00
H56    H     0.32061   0.16782   0.29448   0.00000  Uiso   1.00
H57    H     0.35610   0.26406   0.06497   0.00000  Uiso   1.00
H58    H     0.18048   0.37635   0.17793   0.00000  Uiso   1.00
H59    H     0.40833   0.28882   0.04297   0.00000  Uiso   1.00
H60    H     0.34399   0.31855   0.32804   0.00000  Uiso   1.00
H61    H     0.31942   0.34324   0.04985   0.00000  Uiso   1.00
H62    H     0.37124   0.36725   0.02689   0.00000  Uiso   1.00
H63    H     0.13696   0.24118   0.06012   0.00000  Uiso   1.00
H64    H     0.08553   0.21158   0.04264   0.00000  Uiso   1.00
H65    H     0.12852   0.13638   0.02391   0.00000  Uiso   1.00
H66    H     0.14617   0.18744   0.32084   0.00000  Uiso   1.00
H67    H     0.17932   0.16788   0.03884   0.00000  Uiso   1.00
H68    H     0.25787   0.49283   0.26491   0.00000  Uiso   1.00
H69    H     0.19947   0.12474   0.11316   0.00000  Uiso   1.00
H70    H     0.27340   0.05001   0.29270   0.00000  Uiso   1.00
H71    H     0.34530   0.01547   0.31740   0.00000  Uiso   1.00
H72    H     0.30044   0.47738   0.00533   0.00000  Uiso   1.00
H73    H     0.33263   0.45966   0.28578   0.00000  Uiso   1.00
H74    H     0.18296   0.00497   0.24328   0.00000  Uiso   1.00
H75    H     0.16389   0.44290   0.24977   0.00000  Uiso   1.00
H76    H     0.08972   0.46731   0.21861   0.00000  Uiso   1.00
H77    H     0.10532   0.00089   0.27281   0.00000  Uiso   1.00
H78    H     0.10877   0.02901   0.21298   0.00000  Uiso   1.00
H79    H     0.24215   0.49289   0.06840   0.00000  Uiso   1.00
H80    H     0.31951   0.37636   0.15541   0.00000  Uiso   1.00
H81    H     0.22654   0.05005   0.04061   0.00000  Uiso   1.00
H82    H     0.15467   0.01542   0.01595   0.00000  Uiso   1.00
H83    H     0.19956   0.47737   0.32800   0.00000  Uiso   1.00
H84    H     0.16741   0.45962   0.04758   0.00000  Uiso   1.00
H85    H     0.31703   0.00503   0.09009   0.00000  Uiso   1.00
H86    H     0.33608   0.44296   0.08354   0.00000  Uiso   1.00
H87    H     0.41026   0.46731   0.11469   0.00000  Uiso   1.00
H88    H     0.39467   0.00094   0.06053   0.00000  Uiso   1.00
H89    H     0.39124   0.02901   0.12038   0.00000  Uiso   1.00
H90    H     0.02882   0.30932   0.21734   0.00000  Uiso   1.00
H91    H     0.47083   0.19072   0.21803   0.00000  Uiso   1.00
H92    H     0.47120   0.30931   0.11605   0.00000  Uiso   1.00
H93    H     0.02915   0.19069   0.11540   0.00000  Uiso   1.00
H94    H     0.14400   0.26404   0.26834   0.00000  Uiso   1.00
N95    N     0.25000   0.12934   0.16667   0.00000  Uiso   1.00
N96    N     0.25000   0.37065   0.16667   0.00000  Uiso   1.00
O97    O     0.18573   0.29071   0.16667   0.00000  Uiso   1.00
O98    O     0.38415   0.18538   0.22722   0.00000  Uiso   1.00
O99    O     0.38484   0.31715   0.10914   0.00000  Uiso   1.00
O100   O     0.11584   0.18534   0.10619   0.00000  Uiso   1.00
O101   O     0.30800   0.03118   0.22910   0.00000  Uiso   1.00
O102   O     0.16988   0.46939   0.17786   0.00000  Uiso   1.00
O103   O     0.19199   0.03118   0.10424   0.00000  Uiso   1.00
O104   O     0.33012   0.46939   0.15547   0.00000  Uiso   1.00
O105   O     0.31427   0.20928   0.16666   0.00000  Uiso   1.00
O106   O     0.31427   0.29071   0.16666   0.00000  Uiso   1.00
O107   O     0.18573   0.20928   0.16667   0.00000  Uiso   1.00
O108   O     0.25000   0.29071   0.09613   0.00000  Uiso   1.00
O109   O     0.25000   0.20929   0.23720   0.00000  Uiso   1.00
O110   O     0.25000   0.29071   0.23720   0.00000  Uiso   1.00
O111   O     0.25000   0.20929   0.09613   0.00000  Uiso   1.00
O112   O     0.11517   0.31715   0.22422   0.00000  Uiso   1.00
C113   C     0.66495   0.25002   0.16645   0.00000  Uiso   1.00
C114   C     0.78966   0.44635   0.15980   0.00000  Uiso   1.00
C115   C     0.75000   0.25000   0.07351   0.00000  Uiso   1.00
C116   C     0.75000   0.25000   0.25982   0.00000  Uiso   1.00
C117   C     0.75000   0.02749   0.16667   0.00000  Uiso   1.00
C118   C     0.75000   0.47287   0.16666   0.00000  Uiso   1.00
C119   C     0.75000   0.25002   0.02184   0.00000  Uiso   1.00
C120   C     0.75000   0.25002   0.31149   0.00000  Uiso   1.00
C121   C     0.54691   0.28335   0.19527   0.00000  Uiso   1.00
C122   C     0.95289   0.21647   0.19564   0.00000  Uiso   1.00
C123   C     0.95310   0.28335   0.13811   0.00000  Uiso   1.00
C124   C     0.83505   0.25003   0.16689   0.00000  Uiso   1.00
C125   C     0.54710   0.21645   0.13777   0.00000  Uiso   1.00
C126   C     0.59315   0.28321   0.19613   0.00000  Uiso   1.00
C127   C     0.90662   0.21721   0.19695   0.00000  Uiso   1.00
C128   C     0.90686   0.28321   0.13724   0.00000  Uiso   1.00
C129   C     0.59337   0.21720   0.13644   0.00000  Uiso   1.00
C130   C     0.61658   0.25009   0.16643   0.00000  Uiso   1.00
C131   C     0.88342   0.25009   0.16693   0.00000  Uiso   1.00
C132   C     0.52409   0.24969   0.16673   0.00000  Uiso   1.00
C133   C     0.97591   0.24969   0.16667   0.00000  Uiso   1.00
C134   C     0.62344   0.29734   0.27112   0.00000  Uiso   1.00
C135   C     0.77812   0.10483   0.19679   0.00000  Uiso   1.00
C136   C     0.64884   0.33392   0.30184   0.00000  Uiso   1.00
C137   C     0.88075   0.20618   0.27451   0.00000  Uiso   1.00
C138   C     0.85501   0.17239   0.30816   0.00000  Uiso   1.00
C139   C     0.87663   0.29736   0.06222   0.00000  Uiso   1.00
C140   C     0.85123   0.33393   0.03150   0.00000  Uiso   1.00
C141   C     0.61907   0.20601   0.05884   0.00000  Uiso   1.00
C142   C     0.64488   0.17224   0.02523   0.00000  Uiso   1.00
C143   C     0.78591   0.01766   0.27271   0.00000  Uiso   1.00
C144   C     0.81820   0.49092   0.30573   0.00000  Uiso   1.00
C145   C     0.66056   0.47686   0.22808   0.00000  Uiso   1.00
C146   C     0.71131   0.39553   0.17298   0.00000  Uiso   1.00
C147   C     0.61308   0.49465   0.23341   0.00000  Uiso   1.00
C148   C     0.71408   0.01769   0.06062   0.00000  Uiso   1.00
C149   C     0.68180   0.49090   0.02762   0.00000  Uiso   1.00
C150   C     0.83943   0.47689   0.10525   0.00000  Uiso   1.00
C151   C     0.88691   0.49467   0.09992   0.00000  Uiso   1.00
C152   C     0.72188   0.10483   0.13654   0.00000  Uiso   1.00
C153   C     0.78869   0.39553   0.16035   0.00000  Uiso   1.00
C154   C     0.77822   0.05405   0.19839   0.00000  Uiso   1.00
C155   C     0.71034   0.44635   0.17353   0.00000  Uiso   1.00
C156   C     0.72178   0.05405   0.13495   0.00000  Uiso   1.00
Cu157  Cu    0.75000   0.29821   0.16667   0.00000  Uiso   1.00
Cu158  Cu    0.75000   0.20178   0.16667   0.00000  Uiso   1.00
H159   H     0.80053   0.12474   0.22017   0.00000  Uiso   1.00
H160   H     0.59174   0.28876   0.29041   0.00000  Uiso   1.00
H161   H     0.65621   0.31846   0.00526   0.00000  Uiso   1.00
H162   H     0.68059   0.34336   0.28339   0.00000  Uiso   1.00
H163   H     0.62874   0.36719   0.30659   0.00000  Uiso   1.00
H164   H     0.86272   0.24126   0.27307   0.00000  Uiso   1.00
H165   H     0.91425   0.21196   0.29077   0.00000  Uiso   1.00
H166   H     0.87152   0.13661   0.30965   0.00000  Uiso   1.00
H167   H     0.85359   0.18771   0.01251   0.00000  Uiso   1.00
H168   H     0.82061   0.16782   0.29448   0.00000  Uiso   1.00
H169   H     0.85610   0.26406   0.06497   0.00000  Uiso   1.00
H170   H     0.68048   0.37635   0.17793   0.00000  Uiso   1.00
H171   H     0.90833   0.28882   0.04297   0.00000  Uiso   1.00
H172   H     0.84399   0.31855   0.32804   0.00000  Uiso   1.00
H173   H     0.81942   0.34324   0.04985   0.00000  Uiso   1.00
H174   H     0.87124   0.36725   0.02689   0.00000  Uiso   1.00
H175   H     0.63696   0.24118   0.06012   0.00000  Uiso   1.00
H176   H     0.58553   0.21158   0.04264   0.00000  Uiso   1.00
H177   H     0.62852   0.13638   0.02391   0.00000  Uiso   1.00
H178   H     0.64617   0.18744   0.32084   0.00000  Uiso   1.00
H179   H     0.67932   0.16788   0.03884   0.00000  Uiso   1.00
H180   H     0.75787   0.49283   0.26491   0.00000  Uiso   1.00
H181   H     0.69947   0.12474   0.11316   0.00000  Uiso   1.00
H182   H     0.77340   0.05001   0.29270   0.00000  Uiso   1.00
H183   H     0.84530   0.01547   0.31740   0.00000  Uiso   1.00
H184   H     0.80044   0.47738   0.00533   0.00000  Uiso   1.00
H185   H     0.83263   0.45966   0.28578   0.00000  Uiso   1.00
H186   H     0.68296   0.00497   0.24328   0.00000  Uiso   1.00
H187   H     0.66389   0.44290   0.24977   0.00000  Uiso   1.00
H188   H     0.58972   0.46731   0.21861   0.00000  Uiso   1.00
H189   H     0.60532   0.00089   0.27281   0.00000  Uiso   1.00
H190   H     0.60877   0.02901   0.21298   0.00000  Uiso   1.00
H191   H     0.74215   0.49289   0.06840   0.00000  Uiso   1.00
H192   H     0.81951   0.37636   0.15541   0.00000  Uiso   1.00
H193   H     0.72654   0.05005   0.04061   0.00000  Uiso   1.00
H194   H     0.65467   0.01542   0.01595   0.00000  Uiso   1.00
H195   H     0.69956   0.47737   0.32800   0.00000  Uiso   1.00
H196   H     0.66741   0.45962   0.04758   0.00000  Uiso   1.00
H197   H     0.81703   0.00503   0.09009   0.00000  Uiso   1.00
H198   H     0.83608   0.44296   0.08354   0.00000  Uiso   1.00
H199   H     0.91026   0.46731   0.11469   0.00000  Uiso   1.00
H200   H     0.89467   0.00094   0.06053   0.00000  Uiso   1.00
H201   H     0.89124   0.02901   0.12038   0.00000  Uiso   1.00
H202   H     0.52882   0.30932   0.21734   0.00000  Uiso   1.00
H203   H     0.97083   0.19072   0.21803   0.00000  Uiso   1.00
H204   H     0.97120   0.30931   0.11605   0.00000  Uiso   1.00
H205   H     0.52915   0.19069   0.11540   0.00000  Uiso   1.00
H206   H     0.64400   0.26404   0.26834   0.00000  Uiso   1.00
N207   N     0.75000   0.12934   0.16667   0.00000  Uiso   1.00
N208   N     0.75000   0.37065   0.16667   0.00000  Uiso   1.00
O209   O     0.68573   0.29071   0.16667   0.00000  Uiso   1.00
O210   O     0.88415   0.18538   0.22722   0.00000  Uiso   1.00
O211   O     0.88484   0.31715   0.10914   0.00000  Uiso   1.00
O212   O     0.61584   0.18534   0.10619   0.00000  Uiso   1.00
O213   O     0.80800   0.03118   0.22910   0.00000  Uiso   1.00
O214   O     0.66988   0.46939   0.17786   0.00000  Uiso   1.00
O215   O     0.69199   0.03118   0.10424   0.00000  Uiso   1.00
O216   O     0.83012   0.46939   0.15547   0.00000  Uiso   1.00
O217   O     0.81427   0.20928   0.16666   0.00000  Uiso   1.00
O218   O     0.81427   0.29071   0.16666   0.00000  Uiso   1.00
O219   O     0.68573   0.20928   0.16667   0.00000  Uiso   1.00
O220   O     0.75000   0.29071   0.09613   0.00000  Uiso   1.00
O221   O     0.75000   0.20929   0.23720   0.00000  Uiso   1.00
O222   O     0.75000   0.29071   0.23720   0.00000  Uiso   1.00
O223   O     0.75000   0.20929   0.09613   0.00000  Uiso   1.00
O224   O     0.61517   0.31715   0.22422   0.00000  Uiso   1.00
C225   C     0.16495   0.75002   0.16645   0.00000  Uiso   1.00
C226   C     0.28966   0.94635   0.15980   0.00000  Uiso   1.00
C227   C     0.25000   0.75000   0.07351   0.00000  Uiso   1.00
C228   C     0.25000   0.75000   0.25982   0.00000  Uiso   1.00
C229   C     0.25000   0.52749   0.16667   0.00000  Uiso   1.00
C230   C     0.25000   0.97287   0.16666   0.00000  Uiso   1.00
C231   C     0.25000   0.75002   0.02184   0.00000  Uiso   1.00
C232   C     0.25000   0.75002   0.31149   0.00000  Uiso   1.00
C233   C     0.04691   0.78335   0.19527   0.00000  Uiso   1.00
C234   C     0.45289   0.71647   0.19564   0.00000  Uiso   1.00
C235   C     0.45310   0.78335   0.13811   0.00000  Uiso   1.00
C236   C     0.33505   0.75003   0.16689   0.00000  Uiso   1.00
C237   C     0.04710   0.71645   0.13777   0.00000  Uiso   1.00
C238   C     0.09315   0.78321   0.19613   0.00000  Uiso   1.00
C239   C     0.40662   0.71721   0.19695   0.00000  Uiso   1.00
C240   C     0.40686   0.78321   0.13724   0.00000  Uiso   1.00
C241   C     0.09337   0.71720   0.13644   0.00000  Uiso   1.00
C242   C     0.11658   0.75009   0.16643   0.00000  Uiso   1.00
C243   C     0.38342   0.75009   0.16693   0.00000  Uiso   1.00
C244   C     0.02409   0.74969   0.16673   0.00000  Uiso   1.00
C245   C     0.47591   0.74969   0.16667   0.00000  Uiso   1.00
C246   C     0.12344   0.79734   0.27112   0.00000  Uiso   1.00
C247   C     0.27812   0.60483   0.19679   0.00000  Uiso   1.00
C248   C     0.14884   0.83392   0.30184   0.00000  Uiso   1.00
C249   C     0.38075   0.70618   0.27451   0.00000  Uiso   1.00
C250   C     0.35501   0.67239   0.30816   0.00000  Uiso   1.00
C251   C     0.37663   0.79736   0.06222   0.00000  Uiso   1.00
C252   C     0.35123   0.83393   0.03150   0.00000  Uiso   1.00
C253   C     0.11907   0.70601   0.05884   0.00000  Uiso   1.00
C254   C     0.14488   0.67224   0.02523   0.00000  Uiso   1.00
C255   C     0.28591   0.51766   0.27271   0.00000  Uiso   1.00
C256   C     0.31820   0.99092   0.30573   0.00000  Uiso   1.00
C257   C     0.16056   0.97686   0.22808   0.00000  Uiso   1.00
C258   C     0.21131   0.89553   0.17298   0.00000  Uiso   1.00
C259   C     0.11308   0.99465   0.23341   0.00000  Uiso   1.00
C260   C     0.21408   0.51769   0.06062   0.00000  Uiso   1.00
C261   C     0.18180   0.99090   0.02762   0.00000  Uiso   1.00
C262   C     0.33943   0.97689   0.10525   0.00000  Uiso   1.00
C263   C     0.38691   0.99467   0.09992   0.00000  Uiso   1.00
C264   C     0.22188   0.60483   0.13654   0.00000  Uiso   1.00
C265   C     0.28869   0.89553   0.16035   0.00000  Uiso   1.00
C266   C     0.27822   0.55405   0.19839   0.00000  Uiso   1.00
C267   C     0.21034   0.94635   0.17353   0.00000  Uiso   1.00
C268   C     0.22178   0.55405   0.13495   0.00000  Uiso   1.00
Cu269  Cu    0.25000   0.79821   0.16667   0.00000  Uiso   1.00
Cu270  Cu    0.25000   0.70178   0.16667   0.00000  Uiso   1.00
H271   H     0.30053   0.62474   0.22017   0.00000  Uiso   1.00
H272   H     0.09174   0.78876   0.29041   0.00000  Uiso   1.00
H273   H     0.15621   0.81846   0.00526   0.00000  Uiso   1.00
H274   H     0.18059   0.84336   0.28339   0.00000  Uiso   1.00
H275   H     0.12874   0.86719   0.30659   0.00000  Uiso   1.00
H276   H     0.36272   0.74126   0.27307   0.00000  Uiso   1.00
H277   H     0.41425   0.71196   0.29077   0.00000  Uiso   1.00
H278   H     0.37152   0.63661   0.30965   0.00000  Uiso   1.00
H279   H     0.35359   0.68771   0.01251   0.00000  Uiso   1.00
H280   H     0.32061   0.66782   0.29448   0.00000  Uiso   1.00
H281   H     0.35610   0.76406   0.06497   0.00000  Uiso   1.00
H282   H     0.18048   0.87635   0.17793   0.00000  Uiso   1.00
H283   H     0.40833   0.78882   0.04297   0.00000  Uiso   1.00
H284   H     0.34399   0.81855   0.32804   0.00000  Uiso   1.00
H285   H     0.31942   0.84324   0.04985   0.00000  Uiso   1.00
H286   H     0.37124   0.86725   0.02689   0.00000  Uiso   1.00
H287   H     0.13696   0.74118   0.06012   0.00000  Uiso   1.00
H288   H     0.08553   0.71158   0.04264   0.00000  Uiso   1.00
H289   H     0.12852   0.63638   0.02391   0.00000  Uiso   1.00
H290   H     0.14617   0.68744   0.32084   0.00000  Uiso   1.00
H291   H     0.17932   0.66788   0.03884   0.00000  Uiso   1.00
H292   H     0.25787   0.99283   0.26491   0.00000  Uiso   1.00
H293   H     0.19947   0.62474   0.11316   0.00000  Uiso   1.00
H294   H     0.27340   0.55001   0.29270   0.00000  Uiso   1.00
H295   H     0.34530   0.51547   0.31740   0.00000  Uiso   1.00
H296   H     0.30044   0.97738   0.00533   0.00000  Uiso   1.00
H297   H     0.33263   0.95966   0.28578   0.00000  Uiso   1.00
H298   H     0.18296   0.50497   0.24328   0.00000  Uiso   1.00
H299   H     0.16389   0.94290   0.24977   0.00000  Uiso   1.00
H300   H     0.08972   0.96731   0.21861   0.00000  Uiso   1.00
H301   H     0.10532   0.50089   0.27281   0.00000  Uiso   1.00
H302   H     0.10877   0.52901   0.21298   0.00000  Uiso   1.00
H303   H     0.24215   0.99289   0.06840   0.00000  Uiso   1.00
H304   H     0.31951   0.87636   0.15541   0.00000  Uiso   1.00
H305   H     0.22654   0.55005   0.04061   0.00000  Uiso   1.00
H306   H     0.15467   0.51542   0.01595   0.00000  Uiso   1.00
H307   H     0.19956   0.97737   0.32800   0.00000  Uiso   1.00
H308   H     0.16741   0.95962   0.04758   0.00000  Uiso   1.00
H309   H     0.31703   0.50503   0.09009   0.00000  Uiso   1.00
H310   H     0.33608   0.94296   0.08354   0.00000  Uiso   1.00
H311   H     0.41026   0.96731   0.11469   0.00000  Uiso   1.00
H312   H     0.39467   0.50094   0.06053   0.00000  Uiso   1.00
H313   H     0.39124   0.52901   0.12038   0.00000  Uiso   1.00
H314   H     0.02882   0.80932   0.21734   0.00000  Uiso   1.00
H315   H     0.47083   0.69072   0.21803   0.00000  Uiso   1.00
H316   H     0.47120   0.80931   0.11605   0.00000  Uiso   1.00
H317   H     0.02915   0.69069   0.11540   0.00000  Uiso   1.00
H318   H     0.14400   0.76404   0.26834   0.00000  Uiso   1.00
N319   N     0.25000   0.62934   0.16667   0.00000  Uiso   1.00
N320   N     0.25000   0.87065   0.16667   0.00000  Uiso   1.00
O321   O     0.18573   0.79071   0.16667   0.00000  Uiso   1.00
O322   O     0.38415   0.68538   0.22722   0.00000  Uiso   1.00
O323   O     0.38484   0.81715   0.10914   0.00000  Uiso   1.00
O324   O     0.11584   0.68534   0.10619   0.00000  Uiso   1.00
O325   O     0.30800   0.53118   0.22910   0.00000  Uiso   1.00
O326   O     0.16988   0.96939   0.17786   0.00000  Uiso   1.00
O327   O     0.19199   0.53118   0.10424   0.00000  Uiso   1.00
O328   O     0.33012   0.96939   0.15547   0.00000  Uiso   1.00
O329   O     0.31427   0.70928   0.16666   0.00000  Uiso   1.00
O330   O     0.31427   0.79071   0.16666   0.00000  Uiso   1.00
O331   O     0.18573   0.70928   0.16667   0.00000  Uiso   1.00
O332   O     0.25000   0.79071   0.09613   0.00000  Uiso   1.00
O333   O     0.25000   0.70929   0.23720   0.00000  Uiso   1.00
O334   O     0.25000   0.79071   0.23720   0.00000  Uiso   1.00
O335   O     0.25000   0.70929   0.09613   0.00000  Uiso   1.00
O336   O     0.11517   0.81715   0.22422   0.00000  Uiso   1.00
C337   C     0.66495   0.75002   0.16645   0.00000  Uiso   1.00
C338   C     0.78966   0.94635   0.15980   0.00000  Uiso   1.00
C339   C     0.75000   0.75000   0.07351   0.00000  Uiso   1.00
C340   C     0.75000   0.75000   0.25982   0.00000  Uiso   1.00
C341   C     0.75000   0.52749   0.16667   0.00000  Uiso   1.00
C342   C     0.75000   0.97287   0.16666   0.00000  Uiso   1.00
C343   C     0.75000   0.75002   0.02184   0.00000  Uiso   1.00
C344   C     0.75000   0.75002   0.31149   0.00000  Uiso   1.00
C345   C     0.54691   0.78335   0.19527   0.00000  Uiso   1.00
C346   C     0.95289   0.71647   0.19564   0.00000  Uiso   1.00
C347   C     0.95310   0.78335   0.13811   0.00000  Uiso   1.00
C348   C     0.83505   0.75003   0.16689   0.00000  Uiso   1.00
C349   C     0.54710   0.71645   0.13777   0.00000  Uiso   1.00
C350   C     0.59315   0.78321   0.19613   0.00000  Uiso   1.00
C351   C     0.90662   0.71721   0.19695   0.00000  Uiso   1.00
C352   C     0.90686   0.78321   0.13724   0.00000  Uiso   1.00
C353   C     0.59337   0.71720   0.13644   0.00000  Uiso   1.00
C354   C     0.61658   0.75009   0.16643   0.00000  Uiso   1.00
C355   C     0.88342   0.75009   0.16693   0.00000  Uiso   1.00
C356   C     0.52409   0.74969   0.16673   0.00000  Uiso   1.00
C357   C     0.97591   0.74969   0.16667   0.00000  Uiso   1.00
C358   C     0.62344   0.79734   0.27112   0.00000  Uiso   1.00
C359   C     0.77812   0.60483   0.19679   0.00000  Uiso   1.00
C360   C     0.64884   0.83392   0.30184   0.00000  Uiso   1.00
C361   C     0.88075   0.70618   0.27451   0.00000  Uiso   1.00
C362   C     0.85501   0.67239   0.30816   0.00000  Uiso   1.00
C363   C     0.87663   0.79736   0.06222   0.00000  Uiso   1.00
C364   C     0.85123   0.83393   0.03150   0.00000  Uiso   1.00
C365   C     0.61907   0.70601   0.05884   0.00000  Uiso   1.00
C366   C     0.64488   0.67224   0.02523   0.00000  Uiso   1.00
C367   C     0.78591   0.51766   0.27271   0.00000  Uiso   1.00
C368   C     0.81820   0.99092   0.30573   0.00000  Uiso   1.00
C369   C     0.66056   0.97686   0.22808   0.00000  Uiso   1.00
C370   C     0.71131   0.89553   0.17298   0.00000  Uiso   1.00
C371   C     0.61308   0.99465   0.23341   0.00000  Uiso   1.00
C372   C     0.71408   0.51769   0.06062   0.00000  Uiso   1.00
C373   C     0.68180   0.99090   0.02762   0.00000  Uiso   1.00
C374   C     0.83943   0.97689   0.10525   0.00000  Uiso   1.00
C375   C     0.88691   0.99467   0.09992   0.00000  Uiso   1.00
C376   C     0.72188   0.60483   0.13654   0.00000  Uiso   1.00
C377   C     0.78869   0.89553   0.16035   0.00000  Uiso   1.00
C378   C     0.77822   0.55405   0.19839   0.00000  Uiso   1.00
C379   C     0.71034   0.94635   0.17353   0.00000  Uiso   1.00
C380   C     0.72178   0.55405   0.13495   0.00000  Uiso   1.00
Cu381  Cu    0.75000   0.79821   0.16667   0.00000  Uiso   1.00
Cu382  Cu    0.75000   0.70178   0.16667   0.00000  Uiso   1.00
H383   H     0.80053   0.62474   0.22017   0.00000  Uiso   1.00
H384   H     0.59174   0.78876   0.29041   0.00000  Uiso   1.00
H385   H     0.65621   0.81846   0.00526   0.00000  Uiso   1.00
H386   H     0.68059   0.84336   0.28339   0.00000  Uiso   1.00
H387   H     0.62874   0.86719   0.30659   0.00000  Uiso   1.00
H388   H     0.86272   0.74126   0.27307   0.00000  Uiso   1.00
H389   H     0.91425   0.71196   0.29077   0.00000  Uiso   1.00
H390   H     0.87152   0.63661   0.30965   0.00000  Uiso   1.00
H391   H     0.85359   0.68771   0.01251   0.00000  Uiso   1.00
H392   H     0.82061   0.66782   0.29448   0.00000  Uiso   1.00
H393   H     0.85610   0.76406   0.06497   0.00000  Uiso   1.00
H394   H     0.68048   0.87635   0.17793   0.00000  Uiso   1.00
H395   H     0.90833   0.78882   0.04297   0.00000  Uiso   1.00
H396   H     0.84399   0.81855   0.32804   0.00000  Uiso   1.00
H397   H     0.81942   0.84324   0.04985   0.00000  Uiso   1.00
H398   H     0.87124   0.86725   0.02689   0.00000  Uiso   1.00
H399   H     0.63696   0.74118   0.06012   0.00000  Uiso   1.00
H400   H     0.58553   0.71158   0.04264   0.00000  Uiso   1.00
H401   H     0.62852   0.63638   0.02391   0.00000  Uiso   1.00
H402   H     0.64617   0.68744   0.32084   0.00000  Uiso   1.00
H403   H     0.67932   0.66788   0.03884   0.00000  Uiso   1.00
H404   H     0.75787   0.99283   0.26491   0.00000  Uiso   1.00
H405   H     0.69947   0.62474   0.11316   0.00000  Uiso   1.00
H406   H     0.77340   0.55001   0.29270   0.00000  Uiso   1.00
H407   H     0.84530   0.51547   0.31740   0.00000  Uiso   1.00
H408   H     0.80044   0.97738   0.00533   0.00000  Uiso   1.00
H409   H     0.83263   0.95966   0.28578   0.00000  Uiso   1.00
H410   H     0.68296   0.50497   0.24328   0.00000  Uiso   1.00
H411   H     0.66389   0.94290   0.24977   0.00000  Uiso   1.00
H412   H     0.58972   0.96731   0.21861   0.00000  Uiso   1.00
H413   H     0.60532   0.50089   0.27281   0.00000  Uiso   1.00
H414   H     0.60877   0.52901   0.21298   0.00000  Uiso   1.00
H415   H     0.74215   0.99289   0.06840   0.00000  Uiso   1.00
H416   H     0.81951   0.87636   0.15541   0.00000  Uiso   1.00
H417   H     0.72654   0.55005   0.04061   0.00000  Uiso   1.00
H418   H     0.65467   0.51542   0.01595   0.00000  Uiso   1.00
H419   H     0.69956   0.97737   0.32800   0.00000  Uiso   1.00
H420   H     0.66741   0.95962   0.04758   0.00000  Uiso   1.00
H421   H     0.81703   0.50503   0.09009   0.00000  Uiso   1.00
H422   H     0.83608   0.94296   0.08354   0.00000  Uiso   1.00
H423   H     0.91026   0.96731   0.11469   0.00000  Uiso   1.00
H424   H     0.89467   0.50094   0.06053   0.00000  Uiso   1.00
H425   H     0.89124   0.52901   0.12038   0.00000  Uiso   1.00
H426   H     0.52882   0.80932   0.21734   0.00000  Uiso   1.00
H427   H     0.97083   0.69072   0.21803   0.00000  Uiso   1.00
H428   H     0.97120   0.80931   0.11605   0.00000  Uiso   1.00
H429   H     0.52915   0.69069   0.11540   0.00000  Uiso   1.00
H430   H     0.64400   0.76404   0.26834   0.00000  Uiso   1.00
N431   N     0.75000   0.62934   0.16667   0.00000  Uiso   1.00
N432   N     0.75000   0.87065   0.16667   0.00000  Uiso   1.00
O433   O     0.68573   0.79071   0.16667   0.00000  Uiso   1.00
O434   O     0.88415   0.68538   0.22722   0.00000  Uiso   1.00
O435   O     0.88484   0.81715   0.10914   0.00000  Uiso   1.00
O436   O     0.61584   0.68534   0.10619   0.00000  Uiso   1.00
O437   O     0.80800   0.53118   0.22910   0.00000  Uiso   1.00
O438   O     0.66988   0.96939   0.17786   0.00000  Uiso   1.00
O439   O     0.69199   0.53118   0.10424   0.00000  Uiso   1.00
O440   O     0.83012   0.96939   0.15547   0.00000  Uiso   1.00
O441   O     0.81427   0.70928   0.16666   0.00000  Uiso   1.00
O442   O     0.81427   0.79071   0.16666   0.00000  Uiso   1.00
O443   O     0.68573   0.70928   0.16667   0.00000  Uiso   1.00
O444   O     0.75000   0.79071   0.09613   0.00000  Uiso   1.00
O445   O     0.75000   0.70929   0.23720   0.00000  Uiso   1.00
O446   O     0.75000   0.79071   0.23720   0.00000  Uiso   1.00
O447   O     0.75000   0.70929   0.09613   0.00000  Uiso   1.00
O448   O     0.61517   0.81715   0.22422   0.00000  Uiso   1.00
C449   C     0.16495   0.25002   0.49978   0.00000  Uiso   1.00
C450   C     0.28966   0.44635   0.49313   0.00000  Uiso   1.00
C451   C     0.25000   0.25000   0.40684   0.00000  Uiso   1.00
C452   C     0.25000   0.25000   0.59316   0.00000  Uiso   1.00
C453   C     0.25000   0.02749   0.50000   0.00000  Uiso   1.00
C454   C     0.25000   0.47287   0.50000   0.00000  Uiso   1.00
C455   C     0.25000   0.25002   0.35518   0.00000  Uiso   1.00
C456   C     0.25000   0.25002   0.64482   0.00000  Uiso   1.00
C457   C     0.04691   0.28335   0.52861   0.00000  Uiso   1.00
C458   C     0.45289   0.21647   0.52897   0.00000  Uiso   1.00
C459   C     0.45310   0.28335   0.47144   0.00000  Uiso   1.00
C460   C     0.33505   0.25003   0.50023   0.00000  Uiso   1.00
C461   C     0.04710   0.21645   0.47110   0.00000  Uiso   1.00
C462   C     0.09315   0.28321   0.52946   0.00000  Uiso   1.00
C463   C     0.40662   0.21721   0.53028   0.00000  Uiso   1.00
C464   C     0.40686   0.28321   0.47057   0.00000  Uiso   1.00
C465   C     0.09337   0.21720   0.46977   0.00000  Uiso   1.00
C466   C     0.11658   0.25009   0.49977   0.00000  Uiso   1.00
C467   C     0.38342   0.25009   0.50026   0.00000  Uiso   1.00
C468   C     0.02409   0.24969   0.50007   0.00000  Uiso   1.00
C469   C     0.47591   0.24969   0.50000   0.00000  Uiso   1.00
C470   C     0.12344   0.29734   0.60446   0.00000  Uiso   1.00
C471   C     0.27812   0.10483   0.53012   0.00000  Uiso   1.00
C472   C     0.14884   0.33392   0.63517   0.00000  Uiso   1.00
C473   C     0.38075   0.20618   0.60784   0.00000  Uiso   1.00
C474   C     0.35501   0.17239   0.64149   0.00000  Uiso   1.00
C475   C     0.37663   0.29736   0.39556   0.00000  Uiso   1.00
C476   C     0.35123   0.33393   0.36484   0.00000  Uiso   1.00
C477   C     0.11907   0.20601   0.39217   0.00000  Uiso   1.00
C478   C     0.14488   0.17224   0.35857   0.00000  Uiso   1.00
C479   C     0.28591   0.01766   0.60604   0.00000  Uiso   1.00
C480   C     0.31820   0.49092   0.63906   0.00000  Uiso   1.00
C481   C     0.16056   0.47686   0.56142   0.00000  Uiso   1.00
C482   C     0.21131   0.39553   0.50631   0.00000  Uiso   1.00
C483   C     0.11308   0.49465   0.56674   0.00000  Uiso   1.00
C484   C     0.21408   0.01769   0.39395   0.00000  Uiso   1.00
C485   C     0.18180   0.49090   0.36095   0.00000  Uiso   1.00
C486   C     0.33943   0.47689   0.43859   0.00000  Uiso   1.00
C487   C     0.38691   0.49467   0.43326   0.00000  Uiso   1.00
C488   C     0.22188   0.10483   0.46988   0.00000  Uiso   1.00
C489   C     0.28869   0.39553   0.49369   0.00000  Uiso   1.00
C490   C     0.27822   0.05405   0.53172   0.00000  Uiso   1.00
C491   C     0.21034   0.44635   0.50687   0.00000  Uiso   1.00
C492   C     0.22178   0.05405   0.46828   0.00000  Uiso   1.00
Cu493  Cu    0.25000   0.29821   0.50000   0.00000  Uiso   1.00
Cu494  Cu    0.25000   0.20178   0.50000   0.00000  Uiso   1.00
H495   H     0.30053   0.12474   0.55351   0.00000  Uiso   1.00
H496   H     0.09174   0.28876   0.62374   0.00000  Uiso   1.00
H497   H     0.15621   0.31846   0.33859   0.00000  Uiso   1.00
H498   H     0.18059   0.34336   0.61672   0.00000  Uiso   1.00
H499   H     0.12874   0.36719   0.63992   0.00000  Uiso   1.00
H500   H     0.36272   0.24126   0.60641   0.00000  Uiso   1.00
H501   H     0.41425   0.21196   0.62410   0.00000  Uiso   1.00
H502   H     0.37152   0.13661   0.64298   0.00000  Uiso   1.00
H503   H     0.35359   0.18771   0.34584   0.00000  Uiso   1.00
H504   H     0.32061   0.16782   0.62781   0.00000  Uiso   1.00
H505   H     0.35610   0.26406   0.39830   0.00000  Uiso   1.00
H506   H     0.18048   0.37635   0.51126   0.00000  Uiso   1.00
H507   H     0.40833   0.28882   0.37630   0.00000  Uiso   1.00
H508   H     0.34399   0.31855   0.66137   0.00000  Uiso   1.00
H509   H     0.31942   0.34324   0.38319   0.00000  Uiso   1.00
H510   H     0.37124   0.36725   0.36023   0.00000  Uiso   1.00
H511   H     0.13696   0.24118   0.39345   0.00000  Uiso   1.00
H512   H     0.08553   0.21158   0.37597   0.00000  Uiso   1.00
H513   H     0.12852   0.13638   0.35724   0.00000  Uiso   1.00
H514   H     0.14617   0.18744   0.65417   0.00000  Uiso   1.00
H515   H     0.17932   0.16788   0.37217   0.00000  Uiso   1.00
H516   H     0.25787   0.49283   0.59824   0.00000  Uiso   1.00
H517   H     0.19947   0.12474   0.44649   0.00000  Uiso   1.00
H518   H     0.27340   0.05001   0.62603   0.00000  Uiso   1.00
H519   H     0.34530   0.01547   0.65074   0.00000  Uiso   1.00
H520   H     0.30044   0.47738   0.33867   0.00000  Uiso   1.00
H521   H     0.33263   0.45966   0.61911   0.00000  Uiso   1.00
H522   H     0.18296   0.00497   0.57662   0.00000  Uiso   1.00
H523   H     0.16389   0.44290   0.58310   0.00000  Uiso   1.00
H524   H     0.08972   0.46731   0.55194   0.00000  Uiso   1.00
H525   H     0.10532   0.00089   0.60614   0.00000  Uiso   1.00
H526   H     0.10877   0.02901   0.54631   0.00000  Uiso   1.00
H527   H     0.24215   0.49289   0.40173   0.00000  Uiso   1.00
H528   H     0.31951   0.37636   0.48874   0.00000  Uiso   1.00
H529   H     0.22654   0.05005   0.37395   0.00000  Uiso   1.00
H530   H     0.15467   0.01542   0.34929   0.00000  Uiso   1.00
H531   H     0.19956   0.47737   0.66134   0.00000  Uiso   1.00
H532   H     0.16741   0.45962   0.38091   0.00000  Uiso   1.00
H533   H     0.31703   0.00503   0.42342   0.00000  Uiso   1.00
H534   H     0.33608   0.44296   0.41688   0.00000  Uiso   1.00
H535   H     0.41026   0.46731   0.44803   0.00000  Uiso   1.00
H536   H     0.39467   0.00094   0.39386   0.00000  Uiso   1.00
H537   H     0.39124   0.02901   0.45372   0.00000  Uiso   1.00
H538   H     0.02882   0.30932   0.55067   0.00000  Uiso   1.00
H539   H     0.47083   0.19072   0.55136   0.00000  Uiso   1.00
H540   H     0.47120   0.30931   0.44938   0.00000  Uiso   1.00
H541   H     0.02915   0.19069   0.44873   0.00000  Uiso   1.00
H542   H     0.14400   0.26404   0.60168   0.00000  Uiso   1.00
N543   N     0.25000   0.12934   0.50000   0.00000  Uiso   1.00
N544   N     0.25000   0.37065   0.50000   0.00000  Uiso   1.00
O545   O     0.18573   0.29071   0.50000   0.00000  Uiso   1.00
O546   O     0.38415   0.18538   0.56056   0.00000  Uiso   1.00
O547   O     0.38484   0.31715   0.44247   0.00000  Uiso   1.00
O548   O     0.11584   0.18534   0.43952   0.00000  Uiso   1.00
O549   O     0.30800   0.03118   0.56243   0.00000  Uiso   1.00
O550   O     0.16988   0.46939   0.51119   0.00000  Uiso   1.00
O551   O     0.19199   0.03118   0.43757   0.00000  Uiso   1.00
O552   O     0.33012   0.46939   0.48881   0.00000  Uiso   1.00
O553   O     0.31427   0.20928   0.50000   0.00000  Uiso   1.00
O554   O     0.31427   0.29071   0.50000   0.00000  Uiso   1.00
O555   O     0.18573   0.20928   0.50000   0.00000  Uiso   1.00
O556   O     0.25000   0.29071   0.42946   0.00000  Uiso   1.00
O557   O     0.25000   0.20929   0.57054   0.00000  Uiso   1.00
O558   O     0.25000   0.29071   0.57054   0.00000  Uiso   1.00
O559   O     0.25000   0.20929   0.42946   0.00000  Uiso   1.00
O560   O     0.11517   0.31715   0.55755   0.00000  Uiso   1.00
C561   C     0.66495   0.25002   0.49978   0.00000  Uiso   1.00
C562   C     0.78966   0.44635   0.49313   0.00000  Uiso   1.00
C563   C     0.75000   0.25000   0.40684   0.00000  Uiso   1.00
C564   C     0.75000   0.25000   0.59316   0.00000  Uiso   1.00
C565   C     0.75000   0.02749   0.50000   0.00000  Uiso   1.00
C566   C     0.75000   0.47287   0.50000   0.00000  Uiso   1.00
C567   C     0.75000   0.25002   0.35518   0.00000  Uiso   1.00
C568   C     0.75000   0.25002   0.64482   0.00000  Uiso   1.00
C569   C     0.54691   0.28335   0.52861   0.00000  Uiso   1.00
C570   C     0.95289   0.21647   0.52897   0.00000  Uiso   1.00
C571   C     0.95310   0.28335   0.47144   0.00000  Uiso   1.00
C572   C     0.83505   0.25003   0.50023   0.00000  Uiso   1.00
C573   C     0.54710   0.21645   0.47110   0.00000  Uiso   1.00
C574   C     0.59315   0.28321   0.52946   0.00000  Uiso   1.00
C575   C     0.90662   0.21721   0.53028   0.00000  Uiso   1.00
C576   C     0.90686   0.28321   0.47057   0.00000  Uiso   1.00
C577   C     0.59337   0.21720   0.46977   0.00000  Uiso   1.00
C578   C     0.61658   0.25009   0.49977   0.00000  Uiso   1.00
C579   C     0.88342   0.25009   0.50026   0.00000  Uiso   1.00
C580   C     0.52409   0.24969   0.50007   0.00000  Uiso   1.00
C581   C     0.97591   0.24969   0.50000   0.00000  Uiso   1.00
C582   C     0.62344   0.29734   0.60446   0.00000  Uiso   1.00
C583   C     0.77812   0.10483   0.53012   0.00000  Uiso   1.00
C584   C     0.64884   0.33392   0.63517   0.00000  Uiso   1.00
C585   C     0.88075   0.20618   0.60784   0.00000  Uiso   1.00
C586   C     0.85501   0.17239   0.64149   0.00000  Uiso   1.00
C587   C     0.87663   0.29736   0.39556   0.00000  Uiso   1.00
C588   C     0.85123   0.33393   0.36484   0.00000  Uiso   1.00
C589   C     0.61907   0.20601   0.39217   0.00000  Uiso   1.00
C590   C     0.64488   0.17224   0.35857   0.00000  Uiso   1.00
C591   C     0.78591   0.01766   0.60604   0.00000  Uiso   1.00
C592   C     0.81820   0.49092   0.63906   0.00000  Uiso   1.00
C593   C     0.66056   0.47686   0.56142   0.00000  Uiso   1.00
C594   C     0.71131   0.39553   0.50631   0.00000  Uiso   1.00
C595   C     0.61308   0.49465   0.56674   0.00000  Uiso   1.00
C596   C     0.71408   0.01769   0.39395   0.00000  Uiso   1.00
C597   C     0.68180   0.49090   0.36095   0.00000  Uiso   1.00
C598   C     0.83943   0.47689   0.43859   0.00000  Uiso   1.00
C599   C     0.88691   0.49467   0.43326   0.00000  Uiso   1.00
C600   C     0.72188   0.10483   0.46988   0.00000  Uiso   1.00
C601   C     0.78869   0.39553   0.49369   0.00000  Uiso   1.00
C602   C     0.77822   0.05405   0.53172   0.00000  Uiso   1.00
C603   C     0.71034   0.44635   0.50687   0.00000  Uiso   1.00
C604   C     0.72178   0.05405   0.46828   0.00000  Uiso   1.00
Cu605  Cu    0.75000   0.29821   0.50000   0.00000  Uiso   1.00
Cu606  Cu    0.75000   0.20178   0.50000   0.00000  Uiso   1.00
H607   H     0.80053   0.12474   0.55351   0.00000  Uiso   1.00
H608   H     0.59174   0.28876   0.62374   0.00000  Uiso   1.00
H609   H     0.65621   0.31846   0.33859   0.00000  Uiso   1.00
H610   H     0.68059   0.34336   0.61672   0.00000  Uiso   1.00
H611   H     0.62874   0.36719   0.63992   0.00000  Uiso   1.00
H612   H     0.86272   0.24126   0.60641   0.00000  Uiso   1.00
H613   H     0.91425   0.21196   0.62410   0.00000  Uiso   1.00
H614   H     0.87152   0.13661   0.64298   0.00000  Uiso   1.00
H615   H     0.85359   0.18771   0.34584   0.00000  Uiso   1.00
H616   H     0.82061   0.16782   0.62781   0.00000  Uiso   1.00
H617   H     0.85610   0.26406   0.39830   0.00000  Uiso   1.00
H618   H     0.68048   0.37635   0.51126   0.00000  Uiso   1.00
H619   H     0.90833   0.28882   0.37630   0.00000  Uiso   1.00
H620   H     0.84399   0.31855   0.66137   0.00000  Uiso   1.00
H621   H     0.81942   0.34324   0.38319   0.00000  Uiso   1.00
H622   H     0.87124   0.36725   0.36023   0.00000  Uiso   1.00
H623   H     0.63696   0.24118   0.39345   0.00000  Uiso   1.00
H624   H     0.58553   0.21158   0.37597   0.00000  Uiso   1.00
H625   H     0.62852   0.13638   0.35724   0.00000  Uiso   1.00
H626   H     0.64617   0.18744   0.65417   0.00000  Uiso   1.00
H627   H     0.67932   0.16788   0.37217   0.00000  Uiso   1.00
H628   H     0.75787   0.49283   0.59824   0.00000  Uiso   1.00
H629   H     0.69947   0.12474   0.44649   0.00000  Uiso   1.00
H630   H     0.77340   0.05001   0.62603   0.00000  Uiso   1.00
H631   H     0.84530   0.01547   0.65074   0.00000  Uiso   1.00
H632   H     0.80044   0.47738   0.33867   0.00000  Uiso   1.00
H633   H     0.83263   0.45966   0.61911   0.00000  Uiso   1.00
H634   H     0.68296   0.00497   0.57662   0.00000  Uiso   1.00
H635   H     0.66389   0.44290   0.58310   0.00000  Uiso   1.00
H636   H     0.58972   0.46731   0.55194   0.00000  Uiso   1.00
H637   H     0.60532   0.00089   0.60614   0.00000  Uiso   1.00
H638   H     0.60877   0.02901   0.54631   0.00000  Uiso   1.00
H639   H     0.74215   0.49289   0.40173   0.00000  Uiso   1.00
H640   H     0.81951   0.37636   0.48874   0.00000  Uiso   1.00
H641   H     0.72654   0.05005   0.37395   0.00000  Uiso   1.00
H642   H     0.65467   0.01542   0.34929   0.00000  Uiso   1.00
H643   H     0.69956   0.47737   0.66134   0.00000  Uiso   1.00
H644   H     0.66741   0.45962   0.38091   0.00000  Uiso   1.00
H645   H     0.81703   0.00503   0.42342   0.00000  Uiso   1.00
H646   H     0.83608   0.44296   0.41688   0.00000  Uiso   1.00
H647   H     0.91026   0.46731   0.44803   0.00000  Uiso   1.00
H648   H     0.89467   0.00094   0.39386   0.00000  Uiso   1.00
H649   H     0.89124   0.02901   0.45372   0.00000  Uiso   1.00
H650   H     0.52882   0.30932   0.55067   0.00000  Uiso   1.00
H651   H     0.97083   0.19072   0.55136   0.00000  Uiso   1.00
H652   H     0.97120   0.30931   0.44938   0.00000  Uiso   1.00
H653   H     0.52915   0.19069   0.44873   0.00000  Uiso   1.00
H654   H     0.64400   0.26404   0.60168   0.00000  Uiso   1.00
N655   N     0.75000   0.12934   0.50000   0.00000  Uiso   1.00
N656   N     0.75000   0.37065   0.50000   0.00000  Uiso   1.00
O657   O     0.68573   0.29071   0.50000   0.00000  Uiso   1.00
O658   O     0.88415   0.18538   0.56056   0.00000  Uiso   1.00
O659   O     0.88484   0.31715   0.44247   0.00000  Uiso   1.00
O660   O     0.61584   0.18534   0.43952   0.00000  Uiso   1.00
O661   O     0.80800   0.03118   0.56243   0.00000  Uiso   1.00
O662   O     0.66988   0.46939   0.51119   0.00000  Uiso   1.00
O663   O     0.69199   0.03118   0.43757   0.00000  Uiso   1.00
O664   O     0.83012   0.46939   0.48881   0.00000  Uiso   1.00
O665   O     0.81427   0.20928   0.50000   0.00000  Uiso   1.00
O666   O     0.81427   0.29071   0.50000   0.00000  Uiso   1.00
O667   O     0.68573   0.20928   0.50000   0.00000  Uiso   1.00
O668   O     0.75000   0.29071   0.42946   0.00000  Uiso   1.00
O669   O     0.75000   0.20929   0.57054   0.00000  Uiso   1.00
O670   O     0.75000   0.29071   0.57054   0.00000  Uiso   1.00
O671   O     0.75000   0.20929   0.42946   0.00000  Uiso   1.00
O672   O     0.61517   0.31715   0.55755   0.00000  Uiso   1.00
C673   C     0.16495   0.75002   0.49978   0.00000  Uiso   1.00
C674   C     0.28966   0.94635   0.49313   0.00000  Uiso   1.00
C675   C     0.25000   0.75000   0.40684   0.00000  Uiso   1.00
C676   C     0.25000   0.75000   0.59316   0.00000  Uiso   1.00
C677   C     0.25000   0.52749   0.50000   0.00000  Uiso   1.00
C678   C     0.25000   0.97287   0.50000   0.00000  Uiso   1.00
C679   C     0.25000   0.75002   0.35518   0.00000  Uiso   1.00
C680   C     0.25000   0.75002   0.64482   0.00000  Uiso   1.00
C681   C     0.04691   0.78335   0.52861   0.00000  Uiso   1.00
C682   C     0.45289   0.71647   0.52897   0.00000  Uiso   1.00
C683   C     0.45310   0.78335   0.47144   0.00000  Uiso   1.00
C684   C     0.33505   0.75003   0.50023   0.00000  Uiso   1.00
C685   C     0.04710   0.71645   0.47110   0.00000  Uiso   1.00
C686   C     0.09315   0.78321   0.52946   0.00000  Uiso   1.00
C687   C     0.40662   0.71721   0.53028   0.00000  Uiso   1.00
C688   C     0.40686   0.78321   0.47057   0.00000  Uiso   1.00
C689   C     0.09337   0.71720   0.46977   0.00000  Uiso   1.00
C690   C     0.11658   0.75009   0.49977   0.00000  Uiso   1.00
C691   C     0.38342   0.75009   0.50026   0.00000  Uiso   1.00
C692   C     0.02409   0.74969   0.50007   0.00000  Uiso   1.00
C693   C     0.47591   0.74969   0.50000   0.00000  Uiso   1.00
C694   C     0.12344   0.79734   0.60446   0.00000  Uiso   1.00
C695   C     0.27812   0.60483   0.53012   0.00000  Uiso   1.00
C696   C     0.14884   0.83392   0.63517   0.00000  Uiso   1.00
C697   C     0.38075   0.70618   0.60784   0.00000  Uiso   1.00
C698   C     0.35501   0.67239   0.64149   0.00000  Uiso   1.00
C699   C     0.37663   0.79736   0.39556   0.00000  Uiso   1.00
C700   C     0.35123   0.83393   0.36484   0.00000  Uiso   1.00
C701   C     0.11907   0.70601   0.39217   0.00000  Uiso   1.00
C702   C     0.14488   0.67224   0.35857   0.00000  Uiso   1.00
C703   C     0.28591   0.51766   0.60604   0.00000  Uiso   1.00
C704   C     0.31820   0.99092   0.63906   0.00000  Uiso   1.00
C705   C     0.16056   0.97686   0.56142   0.00000  Uiso   1.00
C706   C     0.21131   0.89553   0.50631   0.00000  Uiso   1.00
C707   C     0.11308   0.99465   0.56674   0.00000  Uiso   1.00
C708   C     0.21408   0.51769   0.39395   0.00000  Uiso   1.00
C709   C     0.18180   0.99090   0.36095   0.00000  Uiso   1.00
C710   C     0.33943   0.97689   0.43859   0.00000  Uiso   1.00
C711   C     0.38691   0.99467   0.43326   0.00000  Uiso   1.00
C712   C     0.22188   0.60483   0.46988   0.00000  Uiso   1.00
C713   C     0.28869   0.89553   0.49369   0.00000  Uiso   1.00
C714   C     0.27822   0.55405   0.53172   0.00000  Uiso   1.00
C715   C     0.21034   0.94635   0.50687   0.00000  Uiso   1.00
C716   C     0.22178   0.55405   0.46828   0.00000  Uiso   1.00
Cu717  Cu    0.25000   0.79821   0.50000   0.00000  Uiso   1.00
Cu718  Cu    0.25000   0.70178   0.50000   0.00000  Uiso   1.00
H719   H     0.30053   0.62474   0.55351   0.00000  Uiso   1.00
H720   H     0.09174   0.78876   0.62374   0.00000  Uiso   1.00
H721   H     0.15621   0.81846   0.33859   0.00000  Uiso   1.00
H722   H     0.18059   0.84336   0.61672   0.00000  Uiso   1.00
H723   H     0.12874   0.86719   0.63992   0.00000  Uiso   1.00
H724   H     0.36272   0.74126   0.60641   0.00000  Uiso   1.00
H725   H     0.41425   0.71196   0.62410   0.00000  Uiso   1.00
H726   H     0.37152   0.63661   0.64298   0.00000  Uiso   1.00
H727   H     0.35359   0.68771   0.34584   0.00000  Uiso   1.00
H728   H     0.32061   0.66782   0.62781   0.00000  Uiso   1.00
H729   H     0.35610   0.76406   0.39830   0.00000  Uiso   1.00
H730   H     0.18048   0.87635   0.51126   0.00000  Uiso   1.00
H731   H     0.40833   0.78882   0.37630   0.00000  Uiso   1.00
H732   H     0.34399   0.81855   0.66137   0.00000  Uiso   1.00
H733   H     0.31942   0.84324   0.38319   0.00000  Uiso   1.00
H734   H     0.37124   0.86725   0.36023   0.00000  Uiso   1.00
H735   H     0.13696   0.74118   0.39345   0.00000  Uiso   1.00
H736   H     0.08553   0.71158   0.37597   0.00000  Uiso   1.00
H737   H     0.12852   0.63638   0.35724   0.00000  Uiso   1.00
H738   H     0.14617   0.68744   0.65417   0.00000  Uiso   1.00
H739   H     0.17932   0.66788   0.37217   0.00000  Uiso   1.00
H740   H     0.25787   0.99283   0.59824   0.00000  Uiso   1.00
H741   H     0.19947   0.62474   0.44649   0.00000  Uiso   1.00
H742   H     0.27340   0.55001   0.62603   0.00000  Uiso   1.00
H743   H     0.34530   0.51547   0.65074   0.00000  Uiso   1.00
H744   H     0.30044   0.97738   0.33867   0.00000  Uiso   1.00
H745   H     0.33263   0.95966   0.61911   0.00000  Uiso   1.00
H746   H     0.18296   0.50497   0.57662   0.00000  Uiso   1.00
H747   H     0.16389   0.94290   0.58310   0.00000  Uiso   1.00
H748   H     0.08972   0.96731   0.55194   0.00000  Uiso   1.00
H749   H     0.10532   0.50089   0.60614   0.00000  Uiso   1.00
H750   H     0.10877   0.52901   0.54631   0.00000  Uiso   1.00
H751   H     0.24215   0.99289   0.40173   0.00000  Uiso   1.00
H752   H     0.31951   0.87636   0.48874   0.00000  Uiso   1.00
H753   H     0.22654   0.55005   0.37395   0.00000  Uiso   1.00
H754   H     0.15467   0.51542   0.34929   0.00000  Uiso   1.00
H755   H     0.19956   0.97737   0.66134   0.00000  Uiso   1.00
H756   H     0.16741   0.95962   0.38091   0.00000  Uiso   1.00
H757   H     0.31703   0.50503   0.42342   0.00000  Uiso   1.00
H758   H     0.33608   0.94296   0.41688   0.00000  Uiso   1.00
H759   H     0.41026   0.96731   0.44803   0.00000  Uiso   1.00
H760   H     0.39467   0.50094   0.39386   0.00000  Uiso   1.00
H761   H     0.39124   0.52901   0.45372   0.00000  Uiso   1.00
H762   H     0.02882   0.80932   0.55067   0.00000  Uiso   1.00
H763   H     0.47083   0.69072   0.55136   0.00000  Uiso   1.00
H764   H     0.47120   0.80931   0.44938   0.00000  Uiso   1.00
H765   H     0.02915   0.69069   0.44873   0.00000  Uiso   1.00
H766   H     0.14400   0.76404   0.60168   0.00000  Uiso   1.00
N767   N     0.25000   0.62934   0.50000   0.00000  Uiso   1.00
N768   N     0.25000   0.87065   0.50000   0.00000  Uiso   1.00
O769   O     0.18573   0.79071   0.50000   0.00000  Uiso   1.00
O770   O     0.38415   0.68538   0.56056   0.00000  Uiso   1.00
O771   O     0.38484   0.81715   0.44247   0.00000  Uiso   1.00
O772   O     0.11584   0.68534   0.43952   0.00000  Uiso   1.00
O773   O     0.30800   0.53118   0.56243   0.00000  Uiso   1.00
O774   O     0.16988   0.96939   0.51119   0.00000  Uiso   1.00
O775   O     0.19199   0.53118   0.43757   0.00000  Uiso   1.00
O776   O     0.33012   0.96939   0.48881   0.00000  Uiso   1.00
O777   O     0.31427   0.70928   0.50000   0.00000  Uiso   1.00
O778   O     0.31427   0.79071   0.50000   0.00000  Uiso   1.00
O779   O     0.18573   0.70928   0.50000   0.00000  Uiso   1.00
O780   O     0.25000   0.79071   0.42946   0.00000  Uiso   1.00
O781   O     0.25000   0.70929   0.57054   0.00000  Uiso   1.00
O782   O     0.25000   0.79071   0.57054   0.00000  Uiso   1.00
O783   O     0.25000   0.70929   0.42946   0.00000  Uiso   1.00
O784   O     0.11517   0.81715   0.55755   0.00000  Uiso   1.00
C785   C     0.66495   0.75002   0.49978   0.00000  Uiso   1.00
C786   C     0.78966   0.94635   0.49313   0.00000  Uiso   1.00
C787   C     0.75000   0.75000   0.40684   0.00000  Uiso   1.00
C788   C     0.75000   0.75000   0.59316   0.00000  Uiso   1.00
C789   C     0.75000   0.52749   0.50000   0.00000  Uiso   1.00
C790   C     0.75000   0.97287   0.50000   0.00000  Uiso   1.00
C791   C     0.75000   0.75002   0.35518   0.00000  Uiso   1.00
C792   C     0.75000   0.75002   0.64482   0.00000  Uiso   1.00
C793   C     0.54691   0.78335   0.52861   0.00000  Uiso   1.00
C794   C     0.95289   0.71647   0.52897   0.00000  Uiso   1.00
C795   C     0.95310   0.78335   0.47144   0.00000  Uiso   1.00
C796   C     0.83505   0.75003   0.50023   0.00000  Uiso   1.00
C797   C     0.54710   0.71645   0.47110   0.00000  Uiso   1.00
C798   C     0.59315   0.78321   0.52946   0.00000  Uiso   1.00
C799   C     0.90662   0.71721   0.53028   0.00000  Uiso   1.00
C800   C     0.90686   0.78321   0.47057   0.00000  Uiso   1.00
C801   C     0.59337   0.71720   0.46977   0.00000  Uiso   1.00
C802   C     0.61658   0.75009   0.49977   0.00000  Uiso   1.00
C803   C     0.88342   0.75009   0.50026   0.00000  Uiso   1.00
C804   C     0.52409   0.74969   0.50007   0.00000  Uiso   1.00
C805   C     0.97591   0.74969   0.50000   0.00000  Uiso   1.00
C806   C     0.62344   0.79734   0.60446   0.00000  Uiso   1.00
C807   C     0.77812   0.60483   0.53012   0.00000  Uiso   1.00
C808   C     0.64884   0.83392   0.63517   0.00000  Uiso   1.00
C809   C     0.88075   0.70618   0.60784   0.00000  Uiso   1.00
C810   C     0.85501   0.67239   0.64149   0.00000  Uiso   1.00
C811   C     0.87663   0.79736   0.39556   0.00000  Uiso   1.00
C812   C     0.85123   0.83393   0.36484   0.00000  Uiso   1.00
C813   C     0.61907   0.70601   0.39217   0.00000  Uiso   1.00
C814   C     0.64488   0.67224   0.35857   0.00000  Uiso   1.00
C815   C     0.78591   0.51766   0.60604   0.00000  Uiso   1.00
C816   C     0.81820   0.99092   0.63906   0.00000  Uiso   1.00
C817   C     0.66056   0.97686   0.56142   0.00000  Uiso   1.00
C818   C     0.71131   0.89553   0.50631   0.00000  Uiso   1.00
C819   C     0.61308   0.99465   0.56674   0.00000  Uiso   1.00
C820   C     0.71408   0.51769   0.39395   0.00000  Uiso   1.00
C821   C     0.68180   0.99090   0.36095   0.00000  Uiso   1.00
C822   C     0.83943   0.97689   0.43859   0.00000  Uiso   1.00
C823   C     0.88691   0.99467   0.43326   0.00000  Uiso   1.00
C824   C     0.72188   0.60483   0.46988   0.00000  Uiso   1.00
C825   C     0.78869   0.89553   0.49369   0.00000  Uiso   1.00
C826   C     0.77822   0.55405   0.53172   0.00000  Uiso   1.00
C827   C     0.71034   0.94635   0.50687   0.00000  Uiso   1.00
C828   C     0.72178   0.55405   0.46828   0.00000  Uiso   1.00
Cu829  Cu    0.75000   0.79821   0.50000   0.00000  Uiso   1.00
Cu830  Cu    0.75000   0.70178   0.50000   0.00000  Uiso   1.00
H831   H     0.80053   0.62474   0.55351   0.00000  Uiso   1.00
H832   H     0.59174   0.78876   0.62374   0.00000  Uiso   1.00
H833   H     0.65621   0.81846   0.33859   0.00000  Uiso   1.00
H834   H     0.68059   0.84336   0.61672   0.00000  Uiso   1.00
H835   H     0.62874   0.86719   0.63992   0.00000  Uiso   1.00
H836   H     0.86272   0.74126   0.60641   0.00000  Uiso   1.00
H837   H     0.91425   0.71196   0.62410   0.00000  Uiso   1.00
H838   H     0.87152   0.63661   0.64298   0.00000  Uiso   1.00
H839   H     0.85359   0.68771   0.34584   0.00000  Uiso   1.00
H840   H     0.82061   0.66782   0.62781   0.00000  Uiso   1.00
H841   H     0.85610   0.76406   0.39830   0.00000  Uiso   1.00
H842   H     0.68048   0.87635   0.51126   0.00000  Uiso   1.00
H843   H     0.90833   0.78882   0.37630   0.00000  Uiso   1.00
H844   H     0.84399   0.81855   0.66137   0.00000  Uiso   1.00
H845   H     0.81942   0.84324   0.38319   0.00000  Uiso   1.00
H846   H     0.87124   0.86725   0.36023   0.00000  Uiso   1.00
H847   H     0.63696   0.74118   0.39345   0.00000  Uiso   1.00
H848   H     0.58553   0.71158   0.37597   0.00000  Uiso   1.00
H849   H     0.62852   0.63638   0.35724   0.00000  Uiso   1.00
H850   H     0.64617   0.68744   0.65417   0.00000  Uiso   1.00
H851   H     0.67932   0.66788   0.37217   0.00000  Uiso   1.00
H852   H     0.75787   0.99283   0.59824   0.00000  Uiso   1.00
H853   H     0.69947   0.62474   0.44649   0.00000  Uiso   1.00
H854   H     0.77340   0.55001   0.62603   0.00000  Uiso   1.00
H855   H     0.84530   0.51547   0.65074   0.00000  Uiso   1.00
H856   H     0.80044   0.97738   0.33867   0.00000  Uiso   1.00
H857   H     0.83263   0.95966   0.61911   0.00000  Uiso   1.00
H858   H     0.68296   0.50497   0.57662   0.00000  Uiso   1.00
H859   H     0.66389   0.94290   0.58310   0.00000  Uiso   1.00
H860   H     0.58972   0.96731   0.55194   0.00000  Uiso   1.00
H861   H     0.60532   0.50089   0.60614   0.00000  Uiso   1.00
H862   H     0.60877   0.52901   0.54631   0.00000  Uiso   1.00
H863   H     0.74215   0.99289   0.40173   0.00000  Uiso   1.00
H864   H     0.81951   0.87636   0.48874   0.00000  Uiso   1.00
H865   H     0.72654   0.55005   0.37395   0.00000  Uiso   1.00
H866   H     0.65467   0.51542   0.34929   0.00000  Uiso   1.00
H867   H     0.69956   0.97737   0.66134   0.00000  Uiso   1.00
H868   H     0.66741   0.95962   0.38091   0.00000  Uiso   1.00
H869   H     0.81703   0.50503   0.42342   0.00000  Uiso   1.00
H870   H     0.83608   0.94296   0.41688   0.00000  Uiso   1.00
H871   H     0.91026   0.96731   0.44803   0.00000  Uiso   1.00
H872   H     0.89467   0.50094   0.39386   0.00000  Uiso   1.00
H873   H     0.89124   0.52901   0.45372   0.00000  Uiso   1.00
H874   H     0.52882   0.80932   0.55067   0.00000  Uiso   1.00
H875   H     0.97083   0.69072   0.55136   0.00000  Uiso   1.00
H876   H     0.97120   0.80931   0.44938   0.00000  Uiso   1.00
H877   H     0.52915   0.69069   0.44873   0.00000  Uiso   1.00
H878   H     0.64400   0.76404   0.60168   0.00000  Uiso   1.00
N879   N     0.75000   0.62934   0.50000   0.00000  Uiso   1.00
N880   N     0.75000   0.87065   0.50000   0.00000  Uiso   1.00
O881   O     0.68573   0.79071   0.50000   0.00000  Uiso   1.00
O882   O     0.88415   0.68538   0.56056   0.00000  Uiso   1.00
O883   O     0.88484   0.81715   0.44247   0.00000  Uiso   1.00
O884   O     0.61584   0.68534   0.43952   0.00000  Uiso   1.00
O885   O     0.80800   0.53118   0.56243   0.00000  Uiso   1.00
O886   O     0.66988   0.96939   0.51119   0.00000  Uiso   1.00
O887   O     0.69199   0.53118   0.43757   0.00000  Uiso   1.00
O888   O     0.83012   0.96939   0.48881   0.00000  Uiso   1.00
O889   O     0.81427   0.70928   0.50000   0.00000  Uiso   1.00
O890   O     0.81427   0.79071   0.50000   0.00000  Uiso   1.00
O891   O     0.68573   0.70928   0.50000   0.00000  Uiso   1.00
O892   O     0.75000   0.79071   0.42946   0.00000  Uiso   1.00
O893   O     0.75000   0.70929   0.57054   0.00000  Uiso   1.00
O894   O     0.75000   0.79071   0.57054   0.00000  Uiso   1.00
O895   O     0.75000   0.70929   0.42946   0.00000  Uiso   1.00
O896   O     0.61517   0.81715   0.55755   0.00000  Uiso   1.00
C897   C     0.16495   0.25002   0.83311   0.00000  Uiso   1.00
C898   C     0.28966   0.44635   0.82646   0.00000  Uiso   1.00
C899   C     0.25000   0.25000   0.74018   0.00000  Uiso   1.00
C900   C     0.25000   0.25000   0.92649   0.00000  Uiso   1.00
C901   C     0.25000   0.02749   0.83333   0.00000  Uiso   1.00
C902   C     0.25000   0.47287   0.83333   0.00000  Uiso   1.00
C903   C     0.25000   0.25002   0.68851   0.00000  Uiso   1.00
C904   C     0.25000   0.25002   0.97816   0.00000  Uiso   1.00
C905   C     0.04691   0.28335   0.86194   0.00000  Uiso   1.00
C906   C     0.45289   0.21647   0.86231   0.00000  Uiso   1.00
C907   C     0.45310   0.28335   0.80478   0.00000  Uiso   1.00
C908   C     0.33505   0.25003   0.83356   0.00000  Uiso   1.00
C909   C     0.04710   0.21645   0.80443   0.00000  Uiso   1.00
C910   C     0.09315   0.28321   0.86279   0.00000  Uiso   1.00
C911   C     0.40662   0.21721   0.86362   0.00000  Uiso   1.00
C912   C     0.40686   0.28321   0.80391   0.00000  Uiso   1.00
C913   C     0.09337   0.21720   0.80311   0.00000  Uiso   1.00
C914   C     0.11658   0.25009   0.83310   0.00000  Uiso   1.00
C915   C     0.38342   0.25009   0.83360   0.00000  Uiso   1.00
C916   C     0.02409   0.24969   0.83340   0.00000  Uiso   1.00
C917   C     0.47591   0.24969   0.83334   0.00000  Uiso   1.00
C918   C     0.12344   0.29734   0.93779   0.00000  Uiso   1.00
C919   C     0.27812   0.10483   0.86345   0.00000  Uiso   1.00
C920   C     0.14884   0.33392   0.96850   0.00000  Uiso   1.00
C921   C     0.38075   0.20618   0.94117   0.00000  Uiso   1.00
C922   C     0.35501   0.17239   0.97483   0.00000  Uiso   1.00
C923   C     0.37663   0.29736   0.72889   0.00000  Uiso   1.00
C924   C     0.35123   0.33393   0.69817   0.00000  Uiso   1.00
C925   C     0.11907   0.20601   0.72550   0.00000  Uiso   1.00
C926   C     0.14488   0.17224   0.69190   0.00000  Uiso   1.00
C927   C     0.28591   0.01766   0.93937   0.00000  Uiso   1.00
C928   C     0.31820   0.49092   0.97239   0.00000  Uiso   1.00
C929   C     0.16056   0.47686   0.89475   0.00000  Uiso   1.00
C930   C     0.21131   0.39553   0.83965   0.00000  Uiso   1.00
C931   C     0.11308   0.49465   0.90008   0.00000  Uiso   1.00
C932   C     0.21408   0.01769   0.72728   0.00000  Uiso   1.00
C933   C     0.18180   0.49090   0.69428   0.00000  Uiso   1.00
C934   C     0.33943   0.47689   0.77192   0.00000  Uiso   1.00
C935   C     0.38691   0.49467   0.76659   0.00000  Uiso   1.00
C936   C     0.22188   0.10483   0.80321   0.00000  Uiso   1.00
C937   C     0.28869   0.39553   0.82702   0.00000  Uiso   1.00
C938   C     0.27822   0.05405   0.86506   0.00000  Uiso   1.00
C939   C     0.21034   0.44635   0.84020   0.00000  Uiso   1.00
C940   C     0.22178   0.05405   0.80161   0.00000  Uiso   1.00
Cu941  Cu    0.25000   0.29821   0.83333   0.00000  Uiso   1.00
Cu942  Cu    0.25000   0.20178   0.83333   0.00000  Uiso   1.00
H943   H     0.30053   0.12474   0.88684   0.00000  Uiso   1.00
H944   H     0.09174   0.28876   0.95708   0.00000  Uiso   1.00
H945   H     0.15621   0.31846   0.67193   0.00000  Uiso   1.00
H946   H     0.18059   0.34336   0.95005   0.00000  Uiso   1.00
H947   H     0.12874   0.36719   0.97325   0.00000  Uiso   1.00
H948   H     0.36272   0.24126   0.93974   0.00000  Uiso   1.00
H949   H     0.41425   0.21196   0.95743   0.00000  Uiso   1.00
H950   H     0.37152   0.13661   0.97631   0.00000  Uiso   1.00
H951   H     0.35359   0.18771   0.67917   0.00000  Uiso   1.00
H952   H     0.32061   0.16782   0.96115   0.00000  Uiso   1.00
H953   H     0.35610   0.26406   0.73163   0.00000  Uiso   1.00
H954   H     0.18048   0.37635   0.84459   0.00000  Uiso   1.00
H955   H     0.40833   0.28882   0.70964   0.00000  Uiso   1.00
H956   H     0.34399   0.31855   0.99470   0.00000  Uiso   1.00
H957   H     0.31942   0.34324   0.71652   0.00000  Uiso   1.00
H958   H     0.37124   0.36725   0.69356   0.00000  Uiso   1.00
H959   H     0.13696   0.24118   0.72678   0.00000  Uiso   1.00
H960   H     0.08553   0.21158   0.70931   0.00000  Uiso   1.00
H961   H     0.12852   0.13638   0.69058   0.00000  Uiso   1.00
H962   H     0.14617   0.18744   0.98751   0.00000  Uiso   1.00
H963   H     0.17932   0.16788   0.70551   0.00000  Uiso   1.00
H964   H     0.25787   0.49283   0.93157   0.00000  Uiso   1.00
H965   H     0.19947   0.12474   0.77982   0.00000  Uiso   1.00
H966   H     0.27340   0.05001   0.95937   0.00000  Uiso   1.00
H967   H     0.34530   0.01547   0.98407   0.00000  Uiso   1.00
H968   H     0.30044   0.47738   0.67200   0.00000  Uiso   1.00
H969   H     0.33263   0.45966   0.95245   0.00000  Uiso   1.00
H970   H     0.18296   0.00497   0.90995   0.00000  Uiso   1.00
H971   H     0.16389   0.44290   0.91643   0.00000  Uiso   1.00
H972   H     0.08972   0.46731   0.88528   0.00000  Uiso   1.00
H973   H     0.10532   0.00089   0.93948   0.00000  Uiso   1.00
H974   H     0.10877   0.02901   0.87964   0.00000  Uiso   1.00
H975   H     0.24215   0.49289   0.73507   0.00000  Uiso   1.00
H976   H     0.31951   0.37636   0.82207   0.00000  Uiso   1.00
H977   H     0.22654   0.05005   0.70728   0.00000  Uiso   1.00
H978   H     0.15467   0.01542   0.68262   0.00000  Uiso   1.00
H979   H     0.19956   0.47737   0.99467   0.00000  Uiso   1.00
H980   H     0.16741   0.45962   0.71424   0.00000  Uiso   1.00
H981   H     0.31703   0.00503   0.75676   0.00000  Uiso   1.00
H982   H     0.33608   0.44296   0.75021   0.00000  Uiso   1.00
H983   H     0.41026   0.46731   0.78136   0.00000  Uiso   1.00
H984   H     0.39467   0.00094   0.72719   0.00000  Uiso   1.00
H985   H     0.39124   0.02901   0.78705   0.00000  Uiso   1.00
H986   H     0.02882   0.30932   0.88400   0.00000  Uiso   1.00
H987   H     0.47083   0.19072   0.88470   0.00000  Uiso   1.00
H988   H     0.47120   0.30931   0.78271   0.00000  Uiso   1.00
H989   H     0.02915   0.19069   0.78206   0.00000  Uiso   1.00
H990   H     0.14400   0.26404   0.93501   0.00000  Uiso   1.00
N991   N     0.25000   0.12934   0.83333   0.00000  Uiso   1.00
N992   N     0.25000   0.37065   0.83333   0.00000  Uiso   1.00
O993   O     0.18573   0.29071   0.83334   0.00000  Uiso   1.00
O994   O     0.38415   0.18538   0.89389   0.00000  Uiso   1.00
O995   O     0.38484   0.31715   0.77581   0.00000  Uiso   1.00
O996   O     0.11584   0.18534   0.77285   0.00000  Uiso   1.00
O997   O     0.30800   0.03118   0.89576   0.00000  Uiso   1.00
O998   O     0.16988   0.46939   0.84453   0.00000  Uiso   1.00
O999   O     0.19199   0.03118   0.77091   0.00000  Uiso   1.00
O1000  O     0.33012   0.46939   0.82214   0.00000  Uiso   1.00
O1001  O     0.31427   0.20928   0.83333   0.00000  Uiso   1.00
O1002  O     0.31427   0.29071   0.83333   0.00000  Uiso   1.00
O1003  O     0.18573   0.20928   0.83334   0.00000  Uiso   1.00
O1004  O     0.25000   0.29071   0.76280   0.00000  Uiso   1.00
O1005  O     0.25000   0.20929   0.90387   0.00000  Uiso   1.00
O1006  O     0.25000   0.29071   0.90387   0.00000  Uiso   1.00
O1007  O     0.25000   0.20929   0.76280   0.00000  Uiso   1.00
O1008  O     0.11517   0.31715   0.89088   0.00000  Uiso   1.00
C1009  C     0.66495   0.25002   0.83311   0.00000  Uiso   1.00
C1010  C     0.78966   0.44635   0.82646   0.00000  Uiso   1.00
C1011  C     0.75000   0.25000   0.74018   0.00000  Uiso   1.00
C1012  C     0.75000   0.25000   0.92649   0.00000  Uiso   1.00
C1013  C     0.75000   0.02749   0.83333   0.00000  Uiso   1.00
C1014  C     0.75000   0.47287   0.83333   0.00000  Uiso   1.00
C1015  C     0.75000   0.25002   0.68851   0.00000  Uiso   1.00
C1016  C     0.75000   0.25002   0.97816   0.00000  Uiso   1.00
C1017  C     0.54691   0.28335   0.86194   0.00000  Uiso   1.00
C1018  C     0.95289   0.21647   0.86231   0.00000  Uiso   1.00
C1019  C     0.95310   0.28335   0.80478   0.00000  Uiso   1.00
C1020  C     0.83505   0.25003   0.83356   0.00000  Uiso   1.00
C1021  C     0.54710   0.21645   0.80443   0.00000  Uiso   1.00
C1022  C     0.59315   0.28321   0.86279   0.00000  Uiso   1.00
C1023  C     0.90662   0.21721   0.86362   0.00000  Uiso   1.00
C1024  C     0.90686   0.28321   0.80391   0.00000  Uiso   1.00
C1025  C     0.59337   0.21720   0.80311   0.00000  Uiso   1.00
C1026  C     0.61658   0.25009   0.83310   0.00000  Uiso   1.00
C1027  C     0.88342   0.25009   0.83360   0.00000  Uiso   1.00
C1028  C     0.52409   0.24969   0.83340   0.00000  Uiso   1.00
C1029  C     0.97591   0.24969   0.83334   0.00000  Uiso   1.00
C1030  C     0.62344   0.29734   0.93779   0.00000  Uiso   1.00
C1031  C     0.77812   0.10483   0.86345   0.00000  Uiso   1.00
C1032  C     0.64884   0.33392   0.96850   0.00000  Uiso   1.00
C1033  C     0.88075   0.20618   0.94117   0.00000  Uiso   1.00
C1034  C     0.85501   0.17239   0.97483   0.00000  Uiso   1.00
C1035  C     0.87663   0.29736   0.72889   0.00000  Uiso   1.00
C1036  C     0.85123   0.33393   0.69817   0.00000  Uiso   1.00
C1037  C     0.61907   0.20601   0.72550   0.00000  Uiso   1.00
C1038  C     0.64488   0.17224   0.69190   0.00000  Uiso   1.00
C1039  C     0.78591   0.01766   0.93937   0.00000  Uiso   1.00
C1040  C     0.81820   0.49092   0.97239   0.00000  Uiso   1.00
C1041  C     0.66056   0.47686   0.89475   0.00000  Uiso   1.00
C1042  C     0.71131   0.39553   0.83965   0.00000  Uiso   1.00
C1043  C     0.61308   0.49465   0.90008   0.00000  Uiso   1.00
C1044  C     0.71408   0.01769   0.72728   0.00000  Uiso   1.00
C1045  C     0.68180   0.49090   0.69428   0.00000  Uiso   1.00
C1046  C     0.83943   0.47689   0.77192   0.00000  Uiso   1.00
C1047  C     0.88691   0.49467   0.76659   0.00000  Uiso   1.00
C1048  C     0.72188   0.10483   0.80321   0.00000  Uiso   1.00
C1049  C     0.78869   0.39553   0.82702   0.00000  Uiso   1.00
C1050  C     0.77822   0.05405   0.86506   0.00000  Uiso   1.00
C1051  C     0.71034   0.44635   0.84020   0.00000  Uiso   1.00
C1052  C     0.72178   0.05405   0.80161   0.00000  Uiso   1.00
Cu1053 Cu    0.75000   0.29821   0.83333   0.00000  Uiso   1.00
Cu1054 Cu    0.75000   0.20178   0.83333   0.00000  Uiso   1.00
H1055  H     0.80053   0.12474   0.88684   0.00000  Uiso   1.00
H1056  H     0.59174   0.28876   0.95708   0.00000  Uiso   1.00
H1057  H     0.65621   0.31846   0.67193   0.00000  Uiso   1.00
H1058  H     0.68059   0.34336   0.95005   0.00000  Uiso   1.00
H1059  H     0.62874   0.36719   0.97325   0.00000  Uiso   1.00
H1060  H     0.86272   0.24126   0.93974   0.00000  Uiso   1.00
H1061  H     0.91425   0.21196   0.95743   0.00000  Uiso   1.00
H1062  H     0.87152   0.13661   0.97631   0.00000  Uiso   1.00
H1063  H     0.85359   0.18771   0.67917   0.00000  Uiso   1.00
H1064  H     0.82061   0.16782   0.96115   0.00000  Uiso   1.00
H1065  H     0.85610   0.26406   0.73163   0.00000  Uiso   1.00
H1066  H     0.68048   0.37635   0.84459   0.00000  Uiso   1.00
H1067  H     0.90833   0.28882   0.70964   0.00000  Uiso   1.00
H1068  H     0.84399   0.31855   0.99470   0.00000  Uiso   1.00
H1069  H     0.81942   0.34324   0.71652   0.00000  Uiso   1.00
H1070  H     0.87124   0.36725   0.69356   0.00000  Uiso   1.00
H1071  H     0.63696   0.24118   0.72678   0.00000  Uiso   1.00
H1072  H     0.58553   0.21158   0.70931   0.00000  Uiso   1.00
H1073  H     0.62852   0.13638   0.69058   0.00000  Uiso   1.00
H1074  H     0.64617   0.18744   0.98751   0.00000  Uiso   1.00
H1075  H     0.67932   0.16788   0.70551   0.00000  Uiso   1.00
H1076  H     0.75787   0.49283   0.93157   0.00000  Uiso   1.00
H1077  H     0.69947   0.12474   0.77982   0.00000  Uiso   1.00
H1078  H     0.77340   0.05001   0.95937   0.00000  Uiso   1.00
H1079  H     0.84530   0.01547   0.98407   0.00000  Uiso   1.00
H1080  H     0.80044   0.47738   0.67200   0.00000  Uiso   1.00
H1081  H     0.83263   0.45966   0.95245   0.00000  Uiso   1.00
H1082  H     0.68296   0.00497   0.90995   0.00000  Uiso   1.00
H1083  H     0.66389   0.44290   0.91643   0.00000  Uiso   1.00
H1084  H     0.58972   0.46731   0.88528   0.00000  Uiso   1.00
H1085  H     0.60532   0.00089   0.93948   0.00000  Uiso   1.00
H1086  H     0.60877   0.02901   0.87964   0.00000  Uiso   1.00
H1087  H     0.74215   0.49289   0.73507   0.00000  Uiso   1.00
H1088  H     0.81951   0.37636   0.82207   0.00000  Uiso   1.00
H1089  H     0.72654   0.05005   0.70728   0.00000  Uiso   1.00
H1090  H     0.65467   0.01542   0.68262   0.00000  Uiso   1.00
H1091  H     0.69956   0.47737   0.99467   0.00000  Uiso   1.00
H1092  H     0.66741   0.45962   0.71424   0.00000  Uiso   1.00
H1093  H     0.81703   0.00503   0.75676   0.00000  Uiso   1.00
H1094  H     0.83608   0.44296   0.75021   0.00000  Uiso   1.00
H1095  H     0.91026   0.46731   0.78136   0.00000  Uiso   1.00
H1096  H     0.89467   0.00094   0.72719   0.00000  Uiso   1.00
H1097  H     0.89124   0.02901   0.78705   0.00000  Uiso   1.00
H1098  H     0.52882   0.30932   0.88400   0.00000  Uiso   1.00
H1099  H     0.97083   0.19072   0.88470   0.00000  Uiso   1.00
H1100  H     0.97120   0.30931   0.78271   0.00000  Uiso   1.00
H1101  H     0.52915   0.19069   0.78206   0.00000  Uiso   1.00
H1102  H     0.64400   0.26404   0.93501   0.00000  Uiso   1.00
N1103  N     0.75000   0.12934   0.83333   0.00000  Uiso   1.00
N1104  N     0.75000   0.37065   0.83333   0.00000  Uiso   1.00
O1105  O     0.68573   0.29071   0.83334   0.00000  Uiso   1.00
O1106  O     0.88415   0.18538   0.89389   0.00000  Uiso   1.00
O1107  O     0.88484   0.31715   0.77581   0.00000  Uiso   1.00
O1108  O     0.61584   0.18534   0.77285   0.00000  Uiso   1.00
O1109  O     0.80800   0.03118   0.89576   0.00000  Uiso   1.00
O1110  O     0.66988   0.46939   0.84453   0.00000  Uiso   1.00
O1111  O     0.69199   0.03118   0.77091   0.00000  Uiso   1.00
O1112  O     0.83012   0.46939   0.82214   0.00000  Uiso   1.00
O1113  O     0.81427   0.20928   0.83333   0.00000  Uiso   1.00
O1114  O     0.81427   0.29071   0.83333   0.00000  Uiso   1.00
O1115  O     0.68573   0.20928   0.83334   0.00000  Uiso   1.00
O1116  O     0.75000   0.29071   0.76280   0.00000  Uiso   1.00
O1117  O     0.75000   0.20929   0.90387   0.00000  Uiso   1.00
O1118  O     0.75000   0.29071   0.90387   0.00000  Uiso   1.00
O1119  O     0.75000   0.20929   0.76280   0.00000  Uiso   1.00
O1120  O     0.61517   0.31715   0.89088   0.00000  Uiso   1.00
C1121  C     0.16495   0.75002   0.83311   0.00000  Uiso   1.00
C1122  C     0.28966   0.94635   0.82646   0.00000  Uiso   1.00
C1123  C     0.25000   0.75000   0.74018   0.00000  Uiso   1.00
C1124  C     0.25000   0.75000   0.92649   0.00000  Uiso   1.00
C1125  C     0.25000   0.52749   0.83333   0.00000  Uiso   1.00
C1126  C     0.25000   0.97287   0.83333   0.00000  Uiso   1.00
C1127  C     0.25000   0.75002   0.68851   0.00000  Uiso   1.00
C1128  C     0.25000   0.75002   0.97816   0.00000  Uiso   1.00
C1129  C     0.04691   0.78335   0.86194   0.00000  Uiso   1.00
C1130  C     0.45289   0.71647   0.86231   0.00000  Uiso   1.00
C1131  C     0.45310   0.78335   0.80478   0.00000  Uiso   1.00
C1132  C     0.33505   0.75003   0.83356   0.00000  Uiso   1.00
C1133  C     0.04710   0.71645   0.80443   0.00000  Uiso   1.00
C1134  C     0.09315   0.78321   0.86279   0.00000  Uiso   1.00
C1135  C     0.40662   0.71721   0.86362   0.00000  Uiso   1.00
C1136  C     0.40686   0.78321   0.80391   0.00000  Uiso   1.00
C1137  C     0.09337   0.71720   0.80311   0.00000  Uiso   1.00
C1138  C     0.11658   0.75009   0.83310   0.00000  Uiso   1.00
C1139  C     0.38342   0.75009   0.83360   0.00000  Uiso   1.00
C1140  C     0.02409   0.74969   0.83340   0.00000  Uiso   1.00
C1141  C     0.47591   0.74969   0.83334   0.00000  Uiso   1.00
C1142  C     0.12344   0.79734   0.93779   0.00000  Uiso   1.00
C1143  C     0.27812   0.60483   0.86345   0.00000  Uiso   1.00
C1144  C     0.14884   0.83392   0.96850   0.00000  Uiso   1.00
C1145  C     0.38075   0.70618   0.94117   0.00000  Uiso   1.00
C1146  C     0.35501   0.67239   0.97483   0.00000  Uiso   1.00
C1147  C     0.37663   0.79736   0.72889   0.00000  Uiso   1.00
C1148  C     0.35123   0.83393   0.69817   0.00000  Uiso   1.00
C1149  C     0.11907   0.70601   0.72550   0.00000  Uiso   1.00
C1150  C     0.14488   0.67224   0.69190   0.00000  Uiso   1.00
C1151  C     0.28591   0.51766   0.93937   0.00000  Uiso   1.00
C1152  C     0.31820   0.99092   0.97239   0.00000  Uiso   1.00
C1153  C     0.16056   0.97686   0.89475   0.00000  Uiso   1.00
C1154  C     0.21131   0.89553   0.83965   0.00000  Uiso   1.00
C1155  C     0.11308   0.99465   0.90008   0.00000  Uiso   1.00
C1156  C     0.21408   0.51769   0.72728   0.00000  Uiso   1.00
C1157  C     0.18180   0.99090   0.69428   0.00000  Uiso   1.00
C1158  C     0.33943   0.97689   0.77192   0.00000  Uiso   1.00
C1159  C     0.38691   0.99467   0.76659   0.00000  Uiso   1.00
C1160  C     0.22188   0.60483   0.80321   0.00000  Uiso   1.00
C1161  C     0.28869   0.89553   0.82702   0.00000  Uiso   1.00
C1162  C     0.27822   0.55405   0.86506   0.00000  Uiso   1.00
C1163  C     0.21034   0.94635   0.84020   0.00000  Uiso   1.00
C1164  C     0.22178   0.55405   0.80161   0.00000  Uiso   1.00
Cu1165 Cu    0.25000   0.79821   0.83333   0.00000  Uiso   1.00
Cu1166 Cu    0.25000   0.70178   0.83333   0.00000  Uiso   1.00
H1167  H     0.30053   0.62474   0.88684   0.00000  Uiso   1.00
H1168  H     0.09174   0.78876   0.95708   0.00000  Uiso   1.00
H1169  H     0.15621   0.81846   0.67193   0.00000  Uiso   1.00
H1170  H     0.18059   0.84336   0.95005   0.00000  Uiso   1.00
H1171  H     0.12874   0.86719   0.97325   0.00000  Uiso   1.00
H1172  H     0.36272   0.74126   0.93974   0.00000  Uiso   1.00
H1173  H     0.41425   0.71196   0.95743   0.00000  Uiso   1.00
H1174  H     0.37152   0.63661   0.97631   0.00000  Uiso   1.00
H1175  H     0.35359   0.68771   0.67917   0.00000  Uiso   1.00
H1176  H     0.32061   0.66782   0.96115   0.00000  Uiso   1.00
H1177  H     0.35610   0.76406   0.73163   0.00000  Uiso   1.00
H1178  H     0.18048   0.87635   0.84459   0.00000  Uiso   1.00
H1179  H     0.40833   0.78882   0.70964   0.00000  Uiso   1.00
H1180  H     0.34399   0.81855   0.99470   0.00000  Uiso   1.00
H1181  H     0.31942   0.84324   0.71652   0.00000  Uiso   1.00
H1182  H     0.37124   0.86725   0.69356   0.00000  Uiso   1.00
H1183  H     0.13696   0.74118   0.72678   0.00000  Uiso   1.00
H1184  H     0.08553   0.71158   0.70931   0.00000  Uiso   1.00
H1185  H     0.12852   0.63638   0.69058   0.00000  Uiso   1.00
H1186  H     0.14617   0.68744   0.98751   0.00000  Uiso   1.00
H1187  H     0.17932   0.66788   0.70551   0.00000  Uiso   1.00
H1188  H     0.25787   0.99283   0.93157   0.00000  Uiso   1.00
H1189  H     0.19947   0.62474   0.77982   0.00000  Uiso   1.00
H1190  H     0.27340   0.55001   0.95937   0.00000  Uiso   1.00
H1191  H     0.34530   0.51547   0.98407   0.00000  Uiso   1.00
H1192  H     0.30044   0.97738   0.67200   0.00000  Uiso   1.00
H1193  H     0.33263   0.95966   0.95245   0.00000  Uiso   1.00
H1194  H     0.18296   0.50497   0.90995   0.00000  Uiso   1.00
H1195  H     0.16389   0.94290   0.91643   0.00000  Uiso   1.00
H1196  H     0.08972   0.96731   0.88528   0.00000  Uiso   1.00
H1197  H     0.10532   0.50089   0.93948   0.00000  Uiso   1.00
H1198  H     0.10877   0.52901   0.87964   0.00000  Uiso   1.00
H1199  H     0.24215   0.99289   0.73507   0.00000  Uiso   1.00
H1200  H     0.31951   0.87636   0.82207   0.00000  Uiso   1.00
H1201  H     0.22654   0.55005   0.70728   0.00000  Uiso   1.00
H1202  H     0.15467   0.51542   0.68262   0.00000  Uiso   1.00
H1203  H     0.19956   0.97737   0.99467   0.00000  Uiso   1.00
H1204  H     0.16741   0.95962   0.71424   0.00000  Uiso   1.00
H1205  H     0.31703   0.50503   0.75676   0.00000  Uiso   1.00
H1206  H     0.33608   0.94296   0.75021   0.00000  Uiso   1.00
H1207  H     0.41026   0.96731   0.78136   0.00000  Uiso   1.00
H1208  H     0.39467   0.50094   0.72719   0.00000  Uiso   1.00
H1209  H     0.39124   0.52901   0.78705   0.00000  Uiso   1.00
H1210  H     0.02882   0.80932   0.88400   0.00000  Uiso   1.00
H1211  H     0.47083   0.69072   0.88470   0.00000  Uiso   1.00
H1212  H     0.47120   0.80931   0.78271   0.00000  Uiso   1.00
H1213  H     0.02915   0.69069   0.78206   0.00000  Uiso   1.00
H1214  H     0.14400   0.76404   0.93501   0.00000  Uiso   1.00
N1215  N     0.25000   0.62934   0.83333   0.00000  Uiso   1.00
N1216  N     0.25000   0.87065   0.83333   0.00000  Uiso   1.00
O1217  O     0.18573   0.79071   0.83334   0.00000  Uiso   1.00
O1218  O     0.38415   0.68538   0.89389   0.00000  Uiso   1.00
O1219  O     0.38484   0.81715   0.77581   0.00000  Uiso   1.00
O1220  O     0.11584   0.68534   0.77285   0.00000  Uiso   1.00
O1221  O     0.30800   0.53118   0.89576   0.00000  Uiso   1.00
O1222  O     0.16988   0.96939   0.84453   0.00000  Uiso   1.00
O1223  O     0.19199   0.53118   0.77091   0.00000  Uiso   1.00
O1224  O     0.33012   0.96939   0.82214   0.00000  Uiso   1.00
O1225  O     0.31427   0.70928   0.83333   0.00000  Uiso   1.00
O1226  O     0.31427   0.79071   0.83333   0.00000  Uiso   1.00
O1227  O     0.18573   0.70928   0.83334   0.00000  Uiso   1.00
O1228  O     0.25000   0.79071   0.76280   0.00000  Uiso   1.00
O1229  O     0.25000   0.70929   0.90387   0.00000  Uiso   1.00
O1230  O     0.25000   0.79071   0.90387   0.00000  Uiso   1.00
O1231  O     0.25000   0.70929   0.76280   0.00000  Uiso   1.00
O1232  O     0.11517   0.81715   0.89088   0.00000  Uiso   1.00
C1233  C     0.66495   0.75002   0.83311   0.00000  Uiso   1.00
C1234  C     0.78966   0.94635   0.82646   0.00000  Uiso   1.00
C1235  C     0.75000   0.75000   0.74018   0.00000  Uiso   1.00
C1236  C     0.75000   0.75000   0.92649   0.00000  Uiso   1.00
C1237  C     0.75000   0.52749   0.83333   0.00000  Uiso   1.00
C1238  C     0.75000   0.97287   0.83333   0.00000  Uiso   1.00
C1239  C     0.75000   0.75002   0.68851   0.00000  Uiso   1.00
C1240  C     0.75000   0.75002   0.97816   0.00000  Uiso   1.00
C1241  C     0.54691   0.78335   0.86194   0.00000  Uiso   1.00
C1242  C     0.95289   0.71647   0.86231   0.00000  Uiso   1.00
C1243  C     0.95310   0.78335   0.80478   0.00000  Uiso   1.00
C1244  C     0.83505   0.75003   0.83356   0.00000  Uiso   1.00
C1245  C     0.54710   0.71645   0.80443   0.00000  Uiso   1.00
C1246  C     0.59315   0.78321   0.86279   0.00000  Uiso   1.00
C1247  C     0.90662   0.71721   0.86362   0.00000  Uiso   1.00
C1248  C     0.90686   0.78321   0.80391   0.00000  Uiso   1.00
C1249  C     0.59337   0.71720   0.80311   0.00000  Uiso   1.00
C1250  C     0.61658   0.75009   0.83310   0.00000  Uiso   1.00
C1251  C     0.88342   0.75009   0.83360   0.00000  Uiso   1.00
C1252  C     0.52409   0.74969   0.83340   0.00000  Uiso   1.00
C1253  C     0.97591   0.74969   0.83334   0.00000  Uiso   1.00
C1254  C     0.62344   0.79734   0.93779   0.00000  Uiso   1.00
C1255  C     0.77812   0.60483   0.86345   0.00000  Uiso   1.00
C1256  C     0.64884   0.83392   0.96850   0.00000  Uiso   1.00
C1257  C     0.88075   0.70618   0.94117   0.00000  Uiso   1.00
C1258  C     0.85501   0.67239   0.97483   0.00000  Uiso   1.00
C1259  C     0.87663   0.79736   0.72889   0.00000  Uiso   1.00
C1260  C     0.85123   0.83393   0.69817   0.00000  Uiso   1.00
C1261  C     0.61907   0.70601   0.72550   0.00000  Uiso   1.00
C1262  C     0.64488   0.67224   0.69190   0.00000  Uiso   1.00
C1263  C     0.78591   0.51766   0.93937   0.00000  Uiso   1.00
C1264  C     0.81820   0.99092   0.97239   0.00000  Uiso   1.00
C1265  C     0.66056   0.97686   0.89475   0.00000  Uiso   1.00
C1266  C     0.71131   0.89553   0.83965   0.00000  Uiso   1.00
C1267  C     0.61308   0.99465   0.90008   0.00000  Uiso   1.00
C1268  C     0.71408   0.51769   0.72728   0.00000  Uiso   1.00
C1269  C     0.68180   0.99090   0.69428   0.00000  Uiso   1.00
C1270  C     0.83943   0.97689   0.77192   0.00000  Uiso   1.00
C1271  C     0.88691   0.99467   0.76659   0.00000  Uiso   1.00
C1272  C     0.72188   0.60483   0.80321   0.00000  Uiso   1.00
C1273  C     0.78869   0.89553   0.82702   0.00000  Uiso   1.00
C1274  C     0.77822   0.55405   0.86506   0.00000  Uiso   1.00
C1275  C     0.71034   0.94635   0.84020   0.00000  Uiso   1.00
C1276  C     0.72178   0.55405   0.80161   0.00000  Uiso   1.00
Cu1277 Cu    0.75000   0.79821   0.83333   0.00000  Uiso   1.00
Cu1278 Cu    0.75000   0.70178   0.83333   0.00000  Uiso   1.00
H1279  H     0.80053   0.62474   0.88684   0.00000  Uiso   1.00
H1280  H     0.59174   0.78876   0.95708   0.00000  Uiso   1.00
H1281  H     0.65621   0.81846   0.67193   0.00000  Uiso   1.00
H1282  H     0.68059   0.84336   0.95005   0.00000  Uiso   1.00
H1283  H     0.62874   0.86719   0.97325   0.00000  Uiso   1.00
H1284  H     0.86272   0.74126   0.93974   0.00000  Uiso   1.00
H1285  H     0.91425   0.71196   0.95743   0.00000  Uiso   1.00
H1286  H     0.87152   0.63661   0.97631   0.00000  Uiso   1.00
H1287  H     0.85359   0.68771   0.67917   0.00000  Uiso   1.00
H1288  H     0.82061   0.66782   0.96115   0.00000  Uiso   1.00
H1289  H     0.85610   0.76406   0.73163   0.00000  Uiso   1.00
H1290  H     0.68048   0.87635   0.84459   0.00000  Uiso   1.00
H1291  H     0.90833   0.78882   0.70964   0.00000  Uiso   1.00
H1292  H     0.84399   0.81855   0.99470   0.00000  Uiso   1.00
H1293  H     0.81942   0.84324   0.71652   0.00000  Uiso   1.00
H1294  H     0.87124   0.86725   0.69356   0.00000  Uiso   1.00
H1295  H     0.63696   0.74118   0.72678   0.00000  Uiso   1.00
H1296  H     0.58553   0.71158   0.70931   0.00000  Uiso   1.00
H1297  H     0.62852   0.63638   0.69058   0.00000  Uiso   1.00
H1298  H     0.64617   0.68744   0.98751   0.00000  Uiso   1.00
H1299  H     0.67932   0.66788   0.70551   0.00000  Uiso   1.00
H1300  H     0.75787   0.99283   0.93157   0.00000  Uiso   1.00
H1301  H     0.69947   0.62474   0.77982   0.00000  Uiso   1.00
H1302  H     0.77340   0.55001   0.95937   0.00000  Uiso   1.00
H1303  H     0.84530   0.51547   0.98407   0.00000  Uiso   1.00
H1304  H     0.80044   0.97738   0.67200   0.00000  Uiso   1.00
H1305  H     0.83263   0.95966   0.95245   0.00000  Uiso   1.00
H1306  H     0.68296   0.50497   0.90995   0.00000  Uiso   1.00
H1307  H     0.66389   0.94290   0.91643   0.00000  Uiso   1.00
H1308  H     0.58972   0.96731   0.88528   0.00000  Uiso   1.00
H1309  H     0.60532   0.50089   0.93948   0.00000  Uiso   1.00
H1310  H     0.60877   0.52901   0.87964   0.00000  Uiso   1.00
H1311  H     0.74215   0.99289   0.73507   0.00000  Uiso   1.00
H1312  H     0.81951   0.87636   0.82207   0.00000  Uiso   1.00
H1313  H     0.72654   0.55005   0.70728   0.00000  Uiso   1.00
H1314  H     0.65467   0.51542   0.68262   0.00000  Uiso   1.00
H1315  H     0.69956   0.97737   0.99467   0.00000  Uiso   1.00
H1316  H     0.66741   0.95962   0.71424   0.00000  Uiso   1.00
H1317  H     0.81703   0.50503   0.75676   0.00000  Uiso   1.00
H1318  H     0.83608   0.94296   0.75021   0.00000  Uiso   1.00
H1319  H     0.91026   0.96731   0.78136   0.00000  Uiso   1.00
H1320  H     0.89467   0.50094   0.72719   0.00000  Uiso   1.00
H1321  H     0.89124   0.52901   0.78705   0.00000  Uiso   1.00
H1322  H     0.52882   0.80932   0.88400   0.00000  Uiso   1.00
H1323  H     0.97083   0.69072   0.88470   0.00000  Uiso   1.00
H1324  H     0.97120   0.80931   0.78271   0.00000  Uiso   1.00
H1325  H     0.52915   0.69069   0.78206   0.00000  Uiso   1.00
H1326  H     0.64400   0.76404   0.93501   0.00000  Uiso   1.00
N1327  N     0.75000   0.62934   0.83333   0.00000  Uiso   1.00
N1328  N     0.75000   0.87065   0.83333   0.00000  Uiso   1.00
O1329  O     0.68573   0.79071   0.83334   0.00000  Uiso   1.00
O1330  O     0.88415   0.68538   0.89389   0.00000  Uiso   1.00
O1331  O     0.88484   0.81715   0.77581   0.00000  Uiso   1.00
O1332  O     0.61584   0.68534   0.77285   0.00000  Uiso   1.00
O1333  O     0.80800   0.53118   0.89576   0.00000  Uiso   1.00
O1334  O     0.66988   0.96939   0.84453   0.00000  Uiso   1.00
O1335  O     0.69199   0.53118   0.77091   0.00000  Uiso   1.00
O1336  O     0.83012   0.96939   0.82214   0.00000  Uiso   1.00
O1337  O     0.81427   0.70928   0.83333   0.00000  Uiso   1.00
O1338  O     0.81427   0.79071   0.83333   0.00000  Uiso   1.00
O1339  O     0.68573   0.70928   0.83334   0.00000  Uiso   1.00
O1340  O     0.75000   0.79071   0.76280   0.00000  Uiso   1.00
O1341  O     0.75000   0.70929   0.90387   0.00000  Uiso   1.00
O1342  O     0.75000   0.79071   0.90387   0.00000  Uiso   1.00
O1343  O     0.75000   0.70929   0.76280   0.00000  Uiso   1.00
O1344  O     0.61517   0.81715   0.89088   0.00000  Uiso   1.00
loop_
_geom_bond_atom_site_label_1
_geom_bond_atom_site_label_2
_geom_bond_distance
_geom_bond_site_symmetry_2
_ccdc_geom_bond_type
C1     C18     1.458   .     S
C1     O97     1.290   .     A
C1     O107    1.292   .     A
C2     C41     1.410   .     A
C2     C6      1.415   .     A
C2     O104    1.382   .     S
C3     C7      1.406   .     S
C3     O111    1.286   .     A
C3     O108    1.286   .     A
C4     O109    1.286   .     A
C4     C8      1.406   .     S
C4     O110    1.286   .     A
C5     C44     1.419   .     A
C5     C42     1.419   .     A
C5     C230    1.515   1_545 S
C6     C43     1.415   .     A
C6     C229    1.515   .     S
C7     C904    1.188   1_554 S
C8     C455    1.188   .     S
C9     C14     1.394   .     A
C9     C20     1.396   .     A
C9     H90     1.084   .     S
C10    C15     1.395   .     A
C10    C21     1.396   .     A
C10    H91     1.084   .     S
C11    H92     1.084   .     S
C11    C16     1.394   .     A
C11    C21     1.396   .     A
C12    O105    1.292   .     A
C12    O106    1.290   .     A
C12    C19     1.458   .     S
C13    H93     1.084   .     S
C13    C20     1.396   .     A
C13    C17     1.395   .     A
C14    C18     1.412   .     A
C14    O112    1.383   .     S
C15    C19     1.410   .     A
C15    O98     1.383   .     S
C16    O99     1.383   .     S
C16    C19     1.412   .     A
C17    C18     1.410   .     A
C17    O100    1.383   .     S
C20    C133    1.452   1_455 S
C21    C132    1.452   .     S
C22    H48     1.115   .     S
C22    H94     1.114   .     S
C22    O112    1.412   .     S
C22    C24     1.522   .     S
C23    C42     1.409   .     A
C23    H47     1.080   .     S
C23    N95     1.362   .     A
C24    H51     1.111   .     S
C24    H50     1.111   .     S
C24    H497    1.111   .     S
C25    H53     1.114   .     S
C25    C26     1.522   .     S
C25    H52     1.115   .     S
C25    O98     1.413   .     S
C26    H54     1.111   .     S
C26    H56     1.109   .     S
C26    H503    1.110   .     S
C27    O99     1.412   .     S
C27    H57     1.114   .     S
C27    H59     1.114   .     S
C27    C28     1.522   .     S
C28    H61     1.110   .     S
C28    H62     1.110   .     S
C28    H956    1.110   1_554 S
C29    H63     1.115   .     S
C29    O100    1.413   .     S
C29    H64     1.114   .     S
C29    C30     1.522   .     S
C30    H67     1.109   .     S
C30    H65     1.110   .     S
C30    H962    1.110   1_554 S
C31    O101    1.410   .     S
C31    H70     1.114   .     S
C31    C256    1.519   1_545 S
C31    H292    1.111   1_545 S
C32    H73     1.111   .     S
C32    C255    1.519   .     S
C32    H295    1.110   .     S
C32    H520    1.108   .     S
C33    H75     1.116   .     S
C33    O102    1.410   .     S
C33    C35     1.520   .     S
C33    H298    1.112   .     S
C34    C43     1.410   .     A
C34    N96     1.365   .     A
C34    H58     1.079   .     S
C35    H76     1.111   .     S
C35    H301    1.110   .     S
C35    H302    1.111   .     S
C36    O103    1.410   .     S
C36    H81     1.114   .     S
C36    C261    1.519   1_545 S
C36    H303    1.111   1_545 S
C37    H84     1.111   .     S
C37    C260    1.519   .     S
C37    H306    1.110   .     S
C37    H979    1.108   1_554 S
C38    H86     1.116   .     S
C38    O104    1.410   .     S
C38    C39     1.520   .     S
C38    H309    1.112   .     S
C39    H87     1.111   .     S
C39    H312    1.110   .     S
C39    H313    1.111   .     S
C40    H69     1.080   .     S
C40    C44     1.409   .     A
C40    N95     1.362   .     A
C41    H80     1.079   .     S
C41    N96     1.365   .     A
C42    O101    1.382   .     S
C43    O102    1.382   .     S
C44    O103    1.382   .     S
Cu45   Cu46    2.674   .     S
Cu45   O108    1.930   .     S
Cu45   O110    1.930   .     S
Cu45   O106    1.948   .     S
Cu45   O97     1.948   .     S
Cu45   N96     2.009   .     S
Cu46   O105    1.948   .     S
Cu46   N95     2.009   .     S
Cu46   O111    1.930   .     S
Cu46   O107    1.948   .     S
Cu46   O109    1.930   .     S
H49    C920    1.111   1_554 S
H55    C922    1.110   1_554 S
H60    C476    1.110   .     S
H66    C478    1.110   .     S
H68    C255    1.111   .     S
H71    C256    1.110   1_545 S
H72    C928    1.108   1_554 S
H74    C257    1.112   1_545 S
H77    C259    1.110   1_545 S
H78    C259    1.111   1_545 S
H79    C260    1.111   .     S
H82    C261    1.110   1_545 S
H83    C485    1.108   .     S
H85    C262    1.112   1_545 S
H88    C263    1.110   1_545 S
H89    C263    1.111   1_545 S
C113   C130    1.458   .     S
C113   O209    1.290   .     A
C113   O219    1.292   .     A
C114   C153    1.410   .     A
C114   C118    1.415   .     A
C114   O216    1.382   .     S
C115   C119    1.406   .     S
C115   O223    1.286   .     A
C115   O220    1.286   .     A
C116   O221    1.286   .     A
C116   C120    1.406   .     S
C116   O222    1.286   .     A
C117   C156    1.419   .     A
C117   C154    1.419   .     A
C117   C342    1.515   1_545 S
C118   C155    1.415   .     A
C118   C341    1.515   .     S
C119   C1016   1.188   1_554 S
C120   C567    1.188   .     S
C121   C126    1.394   .     A
C121   C132    1.396   .     A
C121   H202    1.084   .     S
C122   C127    1.395   .     A
C122   C133    1.396   .     A
C122   H203    1.084   .     S
C123   H204    1.084   .     S
C123   C128    1.394   .     A
C123   C133    1.396   .     A
C124   O217    1.292   .     A
C124   O218    1.290   .     A
C124   C131    1.458   .     S
C125   H205    1.084   .     S
C125   C132    1.396   .     A
C125   C129    1.395   .     A
C126   C130    1.412   .     A
C126   O224    1.383   .     S
C127   C131    1.410   .     A
C127   O210    1.383   .     S
C128   O211    1.383   .     S
C128   C131    1.412   .     A
C129   C130    1.410   .     A
C129   O212    1.383   .     S
C133   C20     1.452   1_655 S
C134   H160    1.115   .     S
C134   H206    1.114   .     S
C134   O224    1.412   .     S
C134   C136    1.522   .     S
C135   C154    1.409   .     A
C135   H159    1.080   .     S
C135   N207    1.362   .     A
C136   H163    1.111   .     S
C136   H162    1.111   .     S
C136   H609    1.111   .     S
C137   H165    1.114   .     S
C137   C138    1.522   .     S
C137   H164    1.115   .     S
C137   O210    1.413   .     S
C138   H166    1.111   .     S
C138   H168    1.109   .     S
C138   H615    1.110   .     S
C139   O211    1.412   .     S
C139   H169    1.114   .     S
C139   H171    1.114   .     S
C139   C140    1.522   .     S
C140   H173    1.110   .     S
C140   H174    1.110   .     S
C140   H1068   1.110   1_554 S
C141   H175    1.115   .     S
C141   O212    1.413   .     S
C141   H176    1.114   .     S
C141   C142    1.522   .     S
C142   H179    1.109   .     S
C142   H177    1.110   .     S
C142   H1074   1.110   1_554 S
C143   O213    1.410   .     S
C143   H182    1.114   .     S
C143   C368    1.519   1_545 S
C143   H404    1.111   1_545 S
C144   H185    1.111   .     S
C144   C367    1.519   .     S
C144   H407    1.110   .     S
C144   H632    1.108   .     S
C145   H187    1.116   .     S
C145   O214    1.410   .     S
C145   C147    1.520   .     S
C145   H410    1.112   .     S
C146   C155    1.410   .     A
C146   N208    1.365   .     A
C146   H170    1.079   .     S
C147   H188    1.111   .     S
C147   H413    1.110   .     S
C147   H414    1.111   .     S
C148   O215    1.410   .     S
C148   H193    1.114   .     S
C148   C373    1.519   1_545 S
C148   H415    1.111   1_545 S
C149   H196    1.111   .     S
C149   C372    1.519   .     S
C149   H418    1.110   .     S
C149   H1091   1.108   1_554 S
C150   H198    1.116   .     S
C150   O216    1.410   .     S
C150   C151    1.520   .     S
C150   H421    1.112   .     S
C151   H199    1.111   .     S
C151   H424    1.110   .     S
C151   H425    1.111   .     S
C152   H181    1.080   .     S
C152   C156    1.409   .     A
C152   N207    1.362   .     A
C153   H192    1.079   .     S
C153   N208    1.365   .     A
C154   O213    1.382   .     S
C155   O214    1.382   .     S
C156   O215    1.382   .     S
Cu157  Cu158   2.674   .     S
Cu157  O220    1.930   .     S
Cu157  O222    1.930   .     S
Cu157  O218    1.948   .     S
Cu157  O209    1.948   .     S
Cu157  N208    2.009   .     S
Cu158  O217    1.948   .     S
Cu158  N207    2.009   .     S
Cu158  O223    1.930   .     S
Cu158  O219    1.948   .     S
Cu158  O221    1.930   .     S
H161   C1032   1.111   1_554 S
H167   C1034   1.110   1_554 S
H172   C588    1.110   .     S
H178   C590    1.110   .     S
H180   C367    1.111   .     S
H183   C368    1.110   1_545 S
H184   C1040   1.108   1_554 S
H186   C369    1.112   1_545 S
H189   C371    1.110   1_545 S
H190   C371    1.111   1_545 S
H191   C372    1.111   .     S
H194   C373    1.110   1_545 S
H195   C597    1.108   .     S
H197   C374    1.112   1_545 S
H200   C375    1.110   1_545 S
H201   C375    1.111   1_545 S
C225   C242    1.458   .     S
C225   O321    1.290   .     A
C225   O331    1.292   .     A
C226   C265    1.410   .     A
C226   C230    1.415   .     A
C226   O328    1.382   .     S
C227   C231    1.406   .     S
C227   O335    1.286   .     A
C227   O332    1.286   .     A
C228   O333    1.286   .     A
C228   C232    1.406   .     S
C228   O334    1.286   .     A
C229   C268    1.419   .     A
C229   C266    1.419   .     A
C230   C267    1.415   .     A
C230   C5      1.515   1_565 S
C231   C1128   1.188   1_554 S
C232   C679    1.188   .     S
C233   C238    1.394   .     A
C233   C244    1.396   .     A
C233   H314    1.084   .     S
C234   C239    1.395   .     A
C234   C245    1.396   .     A
C234   H315    1.084   .     S
C235   H316    1.084   .     S
C235   C240    1.394   .     A
C235   C245    1.396   .     A
C236   O329    1.292   .     A
C236   O330    1.290   .     A
C236   C243    1.458   .     S
C237   H317    1.084   .     S
C237   C244    1.396   .     A
C237   C241    1.395   .     A
C238   C242    1.412   .     A
C238   O336    1.383   .     S
C239   C243    1.410   .     A
C239   O322    1.383   .     S
C240   O323    1.383   .     S
C240   C243    1.412   .     A
C241   C242    1.410   .     A
C241   O324    1.383   .     S
C244   C357    1.452   1_455 S
C245   C356    1.452   .     S
C246   H272    1.115   .     S
C246   H318    1.114   .     S
C246   O336    1.412   .     S
C246   C248    1.522   .     S
C247   C266    1.409   .     A
C247   H271    1.080   .     S
C247   N319    1.362   .     A
C248   H275    1.111   .     S
C248   H274    1.111   .     S
C248   H721    1.111   .     S
C249   H277    1.114   .     S
C249   C250    1.522   .     S
C249   H276    1.115   .     S
C249   O322    1.413   .     S
C250   H278    1.111   .     S
C250   H280    1.109   .     S
C250   H727    1.110   .     S
C251   O323    1.412   .     S
C251   H281    1.114   .     S
C251   H283    1.114   .     S
C251   C252    1.522   .     S
C252   H285    1.110   .     S
C252   H286    1.110   .     S
C252   H1180   1.110   1_554 S
C253   H287    1.115   .     S
C253   O324    1.413   .     S
C253   H288    1.114   .     S
C253   C254    1.522   .     S
C254   H291    1.109   .     S
C254   H289    1.110   .     S
C254   H1186   1.110   1_554 S
C255   O325    1.410   .     S
C255   H294    1.114   .     S
C256   H297    1.111   .     S
C256   C31     1.519   1_565 S
C256   H71     1.110   1_565 S
C256   H744    1.108   .     S
C257   H299    1.116   .     S
C257   O326    1.410   .     S
C257   C259    1.520   .     S
C257   H74     1.112   1_565 S
C258   C267    1.410   .     A
C258   N320    1.365   .     A
C258   H282    1.079   .     S
C259   H300    1.111   .     S
C259   H77     1.110   1_565 S
C259   H78     1.111   1_565 S
C260   O327    1.410   .     S
C260   H305    1.114   .     S
C261   H308    1.111   .     S
C261   C36     1.519   1_565 S
C261   H82     1.110   1_565 S
C261   H1203   1.108   1_554 S
C262   H310    1.116   .     S
C262   O328    1.410   .     S
C262   C263    1.520   .     S
C262   H85     1.112   1_565 S
C263   H311    1.111   .     S
C263   H88     1.110   1_565 S
C263   H89     1.111   1_565 S
C264   H293    1.080   .     S
C264   C268    1.409   .     A
C264   N319    1.362   .     A
C265   H304    1.079   .     S
C265   N320    1.365   .     A
C266   O325    1.382   .     S
C267   O326    1.382   .     S
C268   O327    1.382   .     S
Cu269  Cu270   2.674   .     S
Cu269  O332    1.930   .     S
Cu269  O334    1.930   .     S
Cu269  O330    1.948   .     S
Cu269  O321    1.948   .     S
Cu269  N320    2.009   .     S
Cu270  O329    1.948   .     S
Cu270  N319    2.009   .     S
Cu270  O335    1.930   .     S
Cu270  O331    1.948   .     S
Cu270  O333    1.930   .     S
H273   C1144   1.111   1_554 S
H279   C1146   1.110   1_554 S
H284   C700    1.110   .     S
H290   C702    1.110   .     S
H292   C31     1.111   1_565 S
H296   C1152   1.108   1_554 S
H303   C36     1.111   1_565 S
H307   C709    1.108   .     S
C337   C354    1.458   .     S
C337   O433    1.290   .     A
C337   O443    1.292   .     A
C338   C377    1.410   .     A
C338   C342    1.415   .     A
C338   O440    1.382   .     S
C339   C343    1.406   .     S
C339   O447    1.286   .     A
C339   O444    1.286   .     A
C340   O445    1.286   .     A
C340   C344    1.406   .     S
C340   O446    1.286   .     A
C341   C380    1.419   .     A
C341   C378    1.419   .     A
C342   C379    1.415   .     A
C342   C117    1.515   1_565 S
C343   C1240   1.188   1_554 S
C344   C791    1.188   .     S
C345   C350    1.394   .     A
C345   C356    1.396   .     A
C345   H426    1.084   .     S
C346   C351    1.395   .     A
C346   C357    1.396   .     A
C346   H427    1.084   .     S
C347   H428    1.084   .     S
C347   C352    1.394   .     A
C347   C357    1.396   .     A
C348   O441    1.292   .     A
C348   O442    1.290   .     A
C348   C355    1.458   .     S
C349   H429    1.084   .     S
C349   C356    1.396   .     A
C349   C353    1.395   .     A
C350   C354    1.412   .     A
C350   O448    1.383   .     S
C351   C355    1.410   .     A
C351   O434    1.383   .     S
C352   O435    1.383   .     S
C352   C355    1.412   .     A
C353   C354    1.410   .     A
C353   O436    1.383   .     S
C357   C244    1.452   1_655 S
C358   H384    1.115   .     S
C358   H430    1.114   .     S
C358   O448    1.412   .     S
C358   C360    1.522   .     S
C359   C378    1.409   .     A
C359   H383    1.080   .     S
C359   N431    1.362   .     A
C360   H387    1.111   .     S
C360   H386    1.111   .     S
C360   H833    1.111   .     S
C361   H389    1.114   .     S
C361   C362    1.522   .     S
C361   H388    1.115   .     S
C361   O434    1.413   .     S
C362   H390    1.111   .     S
C362   H392    1.109   .     S
C362   H839    1.110   .     S
C363   O435    1.412   .     S
C363   H393    1.114   .     S
C363   H395    1.114   .     S
C363   C364    1.522   .     S
C364   H397    1.110   .     S
C364   H398    1.110   .     S
C364   H1292   1.110   1_554 S
C365   H399    1.115   .     S
C365   O436    1.413   .     S
C365   H400    1.114   .     S
C365   C366    1.522   .     S
C366   H403    1.109   .     S
C366   H401    1.110   .     S
C366   H1298   1.110   1_554 S
C367   O437    1.410   .     S
C367   H406    1.114   .     S
C368   H409    1.111   .     S
C368   C143    1.519   1_565 S
C368   H183    1.110   1_565 S
C368   H856    1.108   .     S
C369   H411    1.116   .     S
C369   O438    1.410   .     S
C369   C371    1.520   .     S
C369   H186    1.112   1_565 S
C370   C379    1.410   .     A
C370   N432    1.365   .     A
C370   H394    1.079   .     S
C371   H412    1.111   .     S
C371   H189    1.110   1_565 S
C371   H190    1.111   1_565 S
C372   O439    1.410   .     S
C372   H417    1.114   .     S
C373   H420    1.111   .     S
C373   C148    1.519   1_565 S
C373   H194    1.110   1_565 S
C373   H1315   1.108   1_554 S
C374   H422    1.116   .     S
C374   O440    1.410   .     S
C374   C375    1.520   .     S
C374   H197    1.112   1_565 S
C375   H423    1.111   .     S
C375   H200    1.110   1_565 S
C375   H201    1.111   1_565 S
C376   H405    1.080   .     S
C376   C380    1.409   .     A
C376   N431    1.362   .     A
C377   H416    1.079   .     S
C377   N432    1.365   .     A
C378   O437    1.382   .     S
C379   O438    1.382   .     S
C380   O439    1.382   .     S
Cu381  Cu382   2.674   .     S
Cu381  O444    1.930   .     S
Cu381  O446    1.930   .     S
Cu381  O442    1.948   .     S
Cu381  O433    1.948   .     S
Cu381  N432    2.009   .     S
Cu382  O441    1.948   .     S
Cu382  N431    2.009   .     S
Cu382  O447    1.930   .     S
Cu382  O443    1.948   .     S
Cu382  O445    1.930   .     S
H385   C1256   1.111   1_554 S
H391   C1258   1.110   1_554 S
H396   C812    1.110   .     S
H402   C814    1.110   .     S
H404   C143    1.111   1_565 S
H408   C1264   1.108   1_554 S
H415   C148    1.111   1_565 S
H419   C821    1.108   .     S
C449   C466    1.458   .     S
C449   O545    1.290   .     A
C449   O555    1.292   .     A
C450   C489    1.410   .     A
C450   C454    1.415   .     A
C450   O552    1.382   .     S
C451   C455    1.406   .     S
C451   O559    1.286   .     A
C451   O556    1.286   .     A
C452   O557    1.286   .     A
C452   C456    1.406   .     S
C452   O558    1.286   .     A
C453   C492    1.419   .     A
C453   C490    1.419   .     A
C453   C678    1.515   1_545 S
C454   C491    1.415   .     A
C454   C677    1.515   .     S
C456   C903    1.188   .     S
C457   C462    1.394   .     A
C457   C468    1.396   .     A
C457   H538    1.084   .     S
C458   C463    1.395   .     A
C458   C469    1.396   .     A
C458   H539    1.084   .     S
C459   H540    1.084   .     S
C459   C464    1.394   .     A
C459   C469    1.396   .     A
C460   O553    1.292   .     A
C460   O554    1.290   .     A
C460   C467    1.458   .     S
C461   H541    1.084   .     S
C461   C468    1.396   .     A
C461   C465    1.395   .     A
C462   C466    1.412   .     A
C462   O560    1.383   .     S
C463   C467    1.410   .     A
C463   O546    1.383   .     S
C464   O547    1.383   .     S
C464   C467    1.412   .     A
C465   C466    1.410   .     A
C465   O548    1.383   .     S
C468   C581    1.452   1_455 S
C469   C580    1.452   .     S
C470   H496    1.115   .     S
C470   H542    1.114   .     S
C470   O560    1.412   .     S
C470   C472    1.522   .     S
C471   C490    1.409   .     A
C471   H495    1.080   .     S
C471   N543    1.362   .     A
C472   H499    1.111   .     S
C472   H498    1.111   .     S
C472   H945    1.111   .     S
C473   H501    1.114   .     S
C473   C474    1.522   .     S
C473   H500    1.115   .     S
C473   O546    1.413   .     S
C474   H502    1.111   .     S
C474   H504    1.109   .     S
C474   H951    1.110   .     S
C475   O547    1.412   .     S
C475   H505    1.114   .     S
C475   H507    1.114   .     S
C475   C476    1.522   .     S
C476   H509    1.110   .     S
C476   H510    1.110   .     S
C477   H511    1.115   .     S
C477   O548    1.413   .     S
C477   H512    1.114   .     S
C477   C478    1.522   .     S
C478   H515    1.109   .     S
C478   H513    1.110   .     S
C479   O549    1.410   .     S
C479   H518    1.114   .     S
C479   C704    1.519   1_545 S
C479   H740    1.111   1_545 S
C480   H521    1.111   .     S
C480   C703    1.519   .     S
C480   H743    1.110   .     S
C480   H968    1.108   .     S
C481   H523    1.116   .     S
C481   O550    1.410   .     S
C481   C483    1.520   .     S
C481   H746    1.112   .     S
C482   C491    1.410   .     A
C482   N544    1.365   .     A
C482   H506    1.079   .     S
C483   H524    1.111   .     S
C483   H749    1.110   .     S
C483   H750    1.111   .     S
C484   O551    1.410   .     S
C484   H529    1.114   .     S
C484   C709    1.519   1_545 S
C484   H751    1.111   1_545 S
C485   H532    1.111   .     S
C485   C708    1.519   .     S
C485   H754    1.110   .     S
C486   H534    1.116   .     S
C486   O552    1.410   .     S
C486   C487    1.520   .     S
C486   H757    1.112   .     S
C487   H535    1.111   .     S
C487   H760    1.110   .     S
C487   H761    1.111   .     S
C488   H517    1.080   .     S
C488   C492    1.409   .     A
C488   N543    1.362   .     A
C489   H528    1.079   .     S
C489   N544    1.365   .     A
C490   O549    1.382   .     S
C491   O550    1.382   .     S
C492   O551    1.382   .     S
Cu493  Cu494   2.674   .     S
Cu493  O556    1.930   .     S
Cu493  O558    1.930   .     S
Cu493  O554    1.948   .     S
Cu493  O545    1.948   .     S
Cu493  N544    2.009   .     S
Cu494  O553    1.948   .     S
Cu494  N543    2.009   .     S
Cu494  O559    1.930   .     S
Cu494  O555    1.948   .     S
Cu494  O557    1.930   .     S
H508   C924    1.110   .     S
H514   C926    1.110   .     S
H516   C703    1.111   .     S
H519   C704    1.110   1_545 S
H522   C705    1.112   1_545 S
H525   C707    1.110   1_545 S
H526   C707    1.111   1_545 S
H527   C708    1.111   .     S
H530   C709    1.110   1_545 S
H531   C933    1.108   .     S
H533   C710    1.112   1_545 S
H536   C711    1.110   1_545 S
H537   C711    1.111   1_545 S
C561   C578    1.458   .     S
C561   O657    1.290   .     A
C561   O667    1.292   .     A
C562   C601    1.410   .     A
C562   C566    1.415   .     A
C562   O664    1.382   .     S
C563   C567    1.406   .     S
C563   O671    1.286   .     A
C563   O668    1.286   .     A
C564   O669    1.286   .     A
C564   C568    1.406   .     S
C564   O670    1.286   .     A
C565   C604    1.419   .     A
C565   C602    1.419   .     A
C565   C790    1.515   1_545 S
C566   C603    1.415   .     A
C566   C789    1.515   .     S
C568   C1015   1.188   .     S
C569   C574    1.394   .     A
C569   C580    1.396   .     A
C569   H650    1.084   .     S
C570   C575    1.395   .     A
C570   C581    1.396   .     A
C570   H651    1.084   .     S
C571   H652    1.084   .     S
C571   C576    1.394   .     A
C571   C581    1.396   .     A
C572   O665    1.292   .     A
C572   O666    1.290   .     A
C572   C579    1.458   .     S
C573   H653    1.084   .     S
C573   C580    1.396   .     A
C573   C577    1.395   .     A
C574   C578    1.412   .     A
C574   O672    1.383   .     S
C575   C579    1.410   .     A
C575   O658    1.383   .     S
C576   O659    1.383   .     S
C576   C579    1.412   .     A
C577   C578    1.410   .     A
C577   O660    1.383   .     S
C581   C468    1.452   1_655 S
C582   H608    1.115   .     S
C582   H654    1.114   .     S
C582   O672    1.412   .     S
C582   C584    1.522   .     S
C583   C602    1.409   .     A
C583   H607    1.080   .     S
C583   N655    1.362   .     A
C584   H611    1.111   .     S
C584   H610    1.111   .     S
C584   H1057   1.111   .     S
C585   H613    1.114   .     S
C585   C586    1.522   .     S
C585   H612    1.115   .     S
C585   O658    1.413   .     S
C586   H614    1.111   .     S
C586   H616    1.109   .     S
C586   H1063   1.110   .     S
C587   O659    1.412   .     S
C587   H617    1.114   .     S
C587   H619    1.114   .     S
C587   C588    1.522   .     S
C588   H621    1.110   .     S
C588   H622    1.110   .     S
C589   H623    1.115   .     S
C589   O660    1.413   .     S
C589   H624    1.114   .     S
C589   C590    1.522   .     S
C590   H627    1.109   .     S
C590   H625    1.110   .     S
C591   O661    1.410   .     S
C591   H630    1.114   .     S
C591   C816    1.519   1_545 S
C591   H852    1.111   1_545 S
C592   H633    1.111   .     S
C592   C815    1.519   .     S
C592   H855    1.110   .     S
C592   H1080   1.108   .     S
C593   H635    1.116   .     S
C593   O662    1.410   .     S
C593   C595    1.520   .     S
C593   H858    1.112   .     S
C594   C603    1.410   .     A
C594   N656    1.365   .     A
C594   H618    1.079   .     S
C595   H636    1.111   .     S
C595   H861    1.110   .     S
C595   H862    1.111   .     S
C596   O663    1.410   .     S
C596   H641    1.114   .     S
C596   C821    1.519   1_545 S
C596   H863    1.111   1_545 S
C597   H644    1.111   .     S
C597   C820    1.519   .     S
C597   H866    1.110   .     S
C598   H646    1.116   .     S
C598   O664    1.410   .     S
C598   C599    1.520   .     S
C598   H869    1.112   .     S
C599   H647    1.111   .     S
C599   H872    1.110   .     S
C599   H873    1.111   .     S
C600   H629    1.080   .     S
C600   C604    1.409   .     A
C600   N655    1.362   .     A
C601   H640    1.079   .     S
C601   N656    1.365   .     A
C602   O661    1.382   .     S
C603   O662    1.382   .     S
C604   O663    1.382   .     S
Cu605  Cu606   2.674   .     S
Cu605  O668    1.930   .     S
Cu605  O670    1.930   .     S
Cu605  O666    1.948   .     S
Cu605  O657    1.948   .     S
Cu605  N656    2.009   .     S
Cu606  O665    1.948   .     S
Cu606  N655    2.009   .     S
Cu606  O671    1.930   .     S
Cu606  O667    1.948   .     S
Cu606  O669    1.930   .     S
H620   C1036   1.110   .     S
H626   C1038   1.110   .     S
H628   C815    1.111   .     S
H631   C816    1.110   1_545 S
H634   C817    1.112   1_545 S
H637   C819    1.110   1_545 S
H638   C819    1.111   1_545 S
H639   C820    1.111   .     S
H642   C821    1.110   1_545 S
H643   C1045   1.108   .     S
H645   C822    1.112   1_545 S
H648   C823    1.110   1_545 S
H649   C823    1.111   1_545 S
C673   C690    1.458   .     S
C673   O769    1.290   .     A
C673   O779    1.292   .     A
C674   C713    1.410   .     A
C674   C678    1.415   .     A
C674   O776    1.382   .     S
C675   C679    1.406   .     S
C675   O783    1.286   .     A
C675   O780    1.286   .     A
C676   O781    1.286   .     A
C676   C680    1.406   .     S
C676   O782    1.286   .     A
C677   C716    1.419   .     A
C677   C714    1.419   .     A
C678   C715    1.415   .     A
C678   C453    1.515   1_565 S
C680   C1127   1.188   .     S
C681   C686    1.394   .     A
C681   C692    1.396   .     A
C681   H762    1.084   .     S
C682   C687    1.395   .     A
C682   C693    1.396   .     A
C682   H763    1.084   .     S
C683   H764    1.084   .     S
C683   C688    1.394   .     A
C683   C693    1.396   .     A
C684   O777    1.292   .     A
C684   O778    1.290   .     A
C684   C691    1.458   .     S
C685   H765    1.084   .     S
C685   C692    1.396   .     A
C685   C689    1.395   .     A
C686   C690    1.412   .     A
C686   O784    1.383   .     S
C687   C691    1.410   .     A
C687   O770    1.383   .     S
C688   O771    1.383   .     S
C688   C691    1.412   .     A
C689   C690    1.410   .     A
C689   O772    1.383   .     S
C692   C805    1.452   1_455 S
C693   C804    1.452   .     S
C694   H720    1.115   .     S
C694   H766    1.114   .     S
C694   O784    1.412   .     S
C694   C696    1.522   .     S
C695   C714    1.409   .     A
C695   H719    1.080   .     S
C695   N767    1.362   .     A
C696   H723    1.111   .     S
C696   H722    1.111   .     S
C696   H1169   1.111   .     S
C697   H725    1.114   .     S
C697   C698    1.522   .     S
C697   H724    1.115   .     S
C697   O770    1.413   .     S
C698   H726    1.111   .     S
C698   H728    1.109   .     S
C698   H1175   1.110   .     S
C699   O771    1.412   .     S
C699   H729    1.114   .     S
C699   H731    1.114   .     S
C699   C700    1.522   .     S
C700   H733    1.110   .     S
C700   H734    1.110   .     S
C701   H735    1.115   .     S
C701   O772    1.413   .     S
C701   H736    1.114   .     S
C701   C702    1.522   .     S
C702   H739    1.109   .     S
C702   H737    1.110   .     S
C703   O773    1.410   .     S
C703   H742    1.114   .     S
C704   H745    1.111   .     S
C704   C479    1.519   1_565 S
C704   H519    1.110   1_565 S
C704   H1192   1.108   .     S
C705   H747    1.116   .     S
C705   O774    1.410   .     S
C705   C707    1.520   .     S
C705   H522    1.112   1_565 S
C706   C715    1.410   .     A
C706   N768    1.365   .     A
C706   H730    1.079   .     S
C707   H748    1.111   .     S
C707   H525    1.110   1_565 S
C707   H526    1.111   1_565 S
C708   O775    1.410   .     S
C708   H753    1.114   .     S
C709   H756    1.111   .     S
C709   C484    1.519   1_565 S
C709   H530    1.110   1_565 S
C710   H758    1.116   .     S
C710   O776    1.410   .     S
C710   C711    1.520   .     S
C710   H533    1.112   1_565 S
C711   H759    1.111   .     S
C711   H536    1.110   1_565 S
C711   H537    1.111   1_565 S
C712   H741    1.080   .     S
C712   C716    1.409   .     A
C712   N767    1.362   .     A
C713   H752    1.079   .     S
C713   N768    1.365   .     A
C714   O773    1.382   .     S
C715   O774    1.382   .     S
C716   O775    1.382   .     S
Cu717  Cu718   2.674   .     S
Cu717  O780    1.930   .     S
Cu717  O782    1.930   .     S
Cu717  O778    1.948   .     S
Cu717  O769    1.948   .     S
Cu717  N768    2.009   .     S
Cu718  O777    1.948   .     S
Cu718  N767    2.009   .     S
Cu718  O783    1.930   .     S
Cu718  O779    1.948   .     S
Cu718  O781    1.930   .     S
H732   C1148   1.110   .     S
H738   C1150   1.110   .     S
H740   C479    1.111   1_565 S
H751   C484    1.111   1_565 S
H755   C1157   1.108   .     S
C785   C802    1.458   .     S
C785   O881    1.290   .     A
C785   O891    1.292   .     A
C786   C825    1.410   .     A
C786   C790    1.415   .     A
C786   O888    1.382   .     S
C787   C791    1.406   .     S
C787   O895    1.286   .     A
C787   O892    1.286   .     A
C788   O893    1.286   .     A
C788   C792    1.406   .     S
C788   O894    1.286   .     A
C789   C828    1.419   .     A
C789   C826    1.419   .     A
C790   C827    1.415   .     A
C790   C565    1.515   1_565 S
C792   C1239   1.188   .     S
C793   C798    1.394   .     A
C793   C804    1.396   .     A
C793   H874    1.084   .     S
C794   C799    1.395   .     A
C794   C805    1.396   .     A
C794   H875    1.084   .     S
C795   H876    1.084   .     S
C795   C800    1.394   .     A
C795   C805    1.396   .     A
C796   O889    1.292   .     A
C796   O890    1.290   .     A
C796   C803    1.458   .     S
C797   H877    1.084   .     S
C797   C804    1.396   .     A
C797   C801    1.395   .     A
C798   C802    1.412   .     A
C798   O896    1.383   .     S
C799   C803    1.410   .     A
C799   O882    1.383   .     S
C800   O883    1.383   .     S
C800   C803    1.412   .     A
C801   C802    1.410   .     A
C801   O884    1.383   .     S
C805   C692    1.452   1_655 S
C806   H832    1.115   .     S
C806   H878    1.114   .     S
C806   O896    1.412   .     S
C806   C808    1.522   .     S
C807   C826    1.409   .     A
C807   H831    1.080   .     S
C807   N879    1.362   .     A
C808   H835    1.111   .     S
C808   H834    1.111   .     S
C808   H1281   1.111   .     S
C809   H837    1.114   .     S
C809   C810    1.522   .     S
C809   H836    1.115   .     S
C809   O882    1.413   .     S
C810   H838    1.111   .     S
C810   H840    1.109   .     S
C810   H1287   1.110   .     S
C811   O883    1.412   .     S
C811   H841    1.114   .     S
C811   H843    1.114   .     S
C811   C812    1.522   .     S
C812   H845    1.110   .     S
C812   H846    1.110   .     S
C813   H847    1.115   .     S
C813   O884    1.413   .     S
C813   H848    1.114   .     S
C813   C814    1.522   .     S
C814   H851    1.109   .     S
C814   H849    1.110   .     S
C815   O885    1.410   .     S
C815   H854    1.114   .     S
C816   H857    1.111   .     S
C816   C591    1.519   1_565 S
C816   H631    1.110   1_565 S
C816   H1304   1.108   .     S
C817   H859    1.116   .     S
C817   O886    1.410   .     S
C817   C819    1.520   .     S
C817   H634    1.112   1_565 S
C818   C827    1.410   .     A
C818   N880    1.365   .     A
C818   H842    1.079   .     S
C819   H860    1.111   .     S
C819   H637    1.110   1_565 S
C819   H638    1.111   1_565 S
C820   O887    1.410   .     S
C820   H865    1.114   .     S
C821   H868    1.111   .     S
C821   C596    1.519   1_565 S
C821   H642    1.110   1_565 S
C822   H870    1.116   .     S
C822   O888    1.410   .     S
C822   C823    1.520   .     S
C822   H645    1.112   1_565 S
C823   H871    1.111   .     S
C823   H648    1.110   1_565 S
C823   H649    1.111   1_565 S
C824   H853    1.080   .     S
C824   C828    1.409   .     A
C824   N879    1.362   .     A
C825   H864    1.079   .     S
C825   N880    1.365   .     A
C826   O885    1.382   .     S
C827   O886    1.382   .     S
C828   O887    1.382   .     S
Cu829  Cu830   2.674   .     S
Cu829  O892    1.930   .     S
Cu829  O894    1.930   .     S
Cu829  O890    1.948   .     S
Cu829  O881    1.948   .     S
Cu829  N880    2.009   .     S
Cu830  O889    1.948   .     S
Cu830  N879    2.009   .     S
Cu830  O895    1.930   .     S
Cu830  O891    1.948   .     S
Cu830  O893    1.930   .     S
H844   C1260   1.110   .     S
H850   C1262   1.110   .     S
H852   C591    1.111   1_565 S
H863   C596    1.111   1_565 S
H867   C1269   1.108   .     S
C897   C914    1.458   .     S
C897   O993    1.290   .     A
C897   O1003   1.292   .     A
C898   C937    1.410   .     A
C898   C902    1.415   .     A
C898   O1000   1.382   .     S
C899   C903    1.406   .     S
C899   O1007   1.286   .     A
C899   O1004   1.286   .     A
C900   O1005   1.286   .     A
C900   C904    1.406   .     S
C900   O1006   1.286   .     A
C901   C940    1.419   .     A
C901   C938    1.419   .     A
C901   C1126   1.515   1_545 S
C902   C939    1.415   .     A
C902   C1125   1.515   .     S
C904   C7      1.188   1_556 S
C905   C910    1.394   .     A
C905   C916    1.396   .     A
C905   H986    1.084   .     S
C906   C911    1.395   .     A
C906   C917    1.396   .     A
C906   H987    1.084   .     S
C907   H988    1.084   .     S
C907   C912    1.394   .     A
C907   C917    1.396   .     A
C908   O1001   1.292   .     A
C908   O1002   1.290   .     A
C908   C915    1.458   .     S
C909   H989    1.084   .     S
C909   C916    1.396   .     A
C909   C913    1.395   .     A
C910   C914    1.412   .     A
C910   O1008   1.383   .     S
C911   C915    1.410   .     A
C911   O994    1.383   .     S
C912   O995    1.383   .     S
C912   C915    1.412   .     A
C913   C914    1.410   .     A
C913   O996    1.383   .     S
C916   C1029   1.452   1_455 S
C917   C1028   1.452   .     S
C918   H944    1.115   .     S
C918   H990    1.114   .     S
C918   O1008   1.412   .     S
C918   C920    1.522   .     S
C919   C938    1.409   .     A
C919   H943    1.080   .     S
C919   N991    1.362   .     A
C920   H947    1.111   .     S
C920   H946    1.111   .     S
C920   H49     1.111   1_556 S
C921   H949    1.114   .     S
C921   C922    1.522   .     S
C921   H948    1.115   .     S
C921   O994    1.413   .     S
C922   H950    1.111   .     S
C922   H952    1.109   .     S
C922   H55     1.110   1_556 S
C923   O995    1.412   .     S
C923   H953    1.114   .     S
C923   H955    1.114   .     S
C923   C924    1.522   .     S
C924   H957    1.110   .     S
C924   H958    1.110   .     S
C925   H959    1.115   .     S
C925   O996    1.413   .     S
C925   H960    1.114   .     S
C925   C926    1.522   .     S
C926   H963    1.109   .     S
C926   H961    1.110   .     S
C927   O997    1.410   .     S
C927   H966    1.114   .     S
C927   C1152   1.519   1_545 S
C927   H1188   1.111   1_545 S
C928   H969    1.111   .     S
C928   C1151   1.519   .     S
C928   H1191   1.110   .     S
C928   H72     1.108   1_556 S
C929   H971    1.116   .     S
C929   O998    1.410   .     S
C929   C931    1.520   .     S
C929   H1194   1.112   .     S
C930   C939    1.410   .     A
C930   N992    1.365   .     A
C930   H954    1.079   .     S
C931   H972    1.111   .     S
C931   H1197   1.110   .     S
C931   H1198   1.111   .     S
C932   O999    1.410   .     S
C932   H977    1.114   .     S
C932   C1157   1.519   1_545 S
C932   H1199   1.111   1_545 S
C933   H980    1.111   .     S
C933   C1156   1.519   .     S
C933   H1202   1.110   .     S
C934   H982    1.116   .     S
C934   O1000   1.410   .     S
C934   C935    1.520   .     S
C934   H1205   1.112   .     S
C935   H983    1.111   .     S
C935   H1208   1.110   .     S
C935   H1209   1.111   .     S
C936   H965    1.080   .     S
C936   C940    1.409   .     A
C936   N991    1.362   .     A
C937   H976    1.079   .     S
C937   N992    1.365   .     A
C938   O997    1.382   .     S
C939   O998    1.382   .     S
C940   O999    1.382   .     S
Cu941  Cu942   2.674   .     S
Cu941  O1004   1.930   .     S
Cu941  O1006   1.930   .     S
Cu941  O1002   1.948   .     S
Cu941  O993    1.948   .     S
Cu941  N992    2.009   .     S
Cu942  O1001   1.948   .     S
Cu942  N991    2.009   .     S
Cu942  O1007   1.930   .     S
Cu942  O1003   1.948   .     S
Cu942  O1005   1.930   .     S
H956   C28     1.110   1_556 S
H962   C30     1.110   1_556 S
H964   C1151   1.111   .     S
H967   C1152   1.110   1_545 S
H970   C1153   1.112   1_545 S
H973   C1155   1.110   1_545 S
H974   C1155   1.111   1_545 S
H975   C1156   1.111   .     S
H978   C1157   1.110   1_545 S
H979   C37     1.108   1_556 S
H981   C1158   1.112   1_545 S
H984   C1159   1.110   1_545 S
H985   C1159   1.111   1_545 S
C1009  C1026   1.458   .     S
C1009  O1105   1.290   .     A
C1009  O1115   1.292   .     A
C1010  C1049   1.410   .     A
C1010  C1014   1.415   .     A
C1010  O1112   1.382   .     S
C1011  C1015   1.406   .     S
C1011  O1119   1.286   .     A
C1011  O1116   1.286   .     A
C1012  O1117   1.286   .     A
C1012  C1016   1.406   .     S
C1012  O1118   1.286   .     A
C1013  C1052   1.419   .     A
C1013  C1050   1.419   .     A
C1013  C1238   1.515   1_545 S
C1014  C1051   1.415   .     A
C1014  C1237   1.515   .     S
C1016  C119    1.188   1_556 S
C1017  C1022   1.394   .     A
C1017  C1028   1.396   .     A
C1017  H1098   1.084   .     S
C1018  C1023   1.395   .     A
C1018  C1029   1.396   .     A
C1018  H1099   1.084   .     S
C1019  H1100   1.084   .     S
C1019  C1024   1.394   .     A
C1019  C1029   1.396   .     A
C1020  O1113   1.292   .     A
C1020  O1114   1.290   .     A
C1020  C1027   1.458   .     S
C1021  H1101   1.084   .     S
C1021  C1028   1.396   .     A
C1021  C1025   1.395   .     A
C1022  C1026   1.412   .     A
C1022  O1120   1.383   .     S
C1023  C1027   1.410   .     A
C1023  O1106   1.383   .     S
C1024  O1107   1.383   .     S
C1024  C1027   1.412   .     A
C1025  C1026   1.410   .     A
C1025  O1108   1.383   .     S
C1029  C916    1.452   1_655 S
C1030  H1056   1.115   .     S
C1030  H1102   1.114   .     S
C1030  O1120   1.412   .     S
C1030  C1032   1.522   .     S
C1031  C1050   1.409   .     A
C1031  H1055   1.080   .     S
C1031  N1103   1.362   .     A
C1032  H1059   1.111   .     S
C1032  H1058   1.111   .     S
C1032  H161    1.111   1_556 S
C1033  H1061   1.114   .     S
C1033  C1034   1.522   .     S
C1033  H1060   1.115   .     S
C1033  O1106   1.413   .     S
C1034  H1062   1.111   .     S
C1034  H1064   1.109   .     S
C1034  H167    1.110   1_556 S
C1035  O1107   1.412   .     S
C1035  H1065   1.114   .     S
C1035  H1067   1.114   .     S
C1035  C1036   1.522   .     S
C1036  H1069   1.110   .     S
C1036  H1070   1.110   .     S
C1037  H1071   1.115   .     S
C1037  O1108   1.413   .     S
C1037  H1072   1.114   .     S
C1037  C1038   1.522   .     S
C1038  H1075   1.109   .     S
C1038  H1073   1.110   .     S
C1039  O1109   1.410   .     S
C1039  H1078   1.114   .     S
C1039  C1264   1.519   1_545 S
C1039  H1300   1.111   1_545 S
C1040  H1081   1.111   .     S
C1040  C1263   1.519   .     S
C1040  H1303   1.110   .     S
C1040  H184    1.108   1_556 S
C1041  H1083   1.116   .     S
C1041  O1110   1.410   .     S
C1041  C1043   1.520   .     S
C1041  H1306   1.112   .     S
C1042  C1051   1.410   .     A
C1042  N1104   1.365   .     A
C1042  H1066   1.079   .     S
C1043  H1084   1.111   .     S
C1043  H1309   1.110   .     S
C1043  H1310   1.111   .     S
C1044  O1111   1.410   .     S
C1044  H1089   1.114   .     S
C1044  C1269   1.519   1_545 S
C1044  H1311   1.111   1_545 S
C1045  H1092   1.111   .     S
C1045  C1268   1.519   .     S
C1045  H1314   1.110   .     S
C1046  H1094   1.116   .     S
C1046  O1112   1.410   .     S
C1046  C1047   1.520   .     S
C1046  H1317   1.112   .     S
C1047  H1095   1.111   .     S
C1047  H1320   1.110   .     S
C1047  H1321   1.111   .     S
C1048  H1077   1.080   .     S
C1048  C1052   1.409   .     A
C1048  N1103   1.362   .     A
C1049  H1088   1.079   .     S
C1049  N1104   1.365   .     A
C1050  O1109   1.382   .     S
C1051  O1110   1.382   .     S
C1052  O1111   1.382   .     S
Cu1053 Cu1054  2.674   .     S
Cu1053 O1116   1.930   .     S
Cu1053 O1118   1.930   .     S
Cu1053 O1114   1.948   .     S
Cu1053 O1105   1.948   .     S
Cu1053 N1104   2.009   .     S
Cu1054 O1113   1.948   .     S
Cu1054 N1103   2.009   .     S
Cu1054 O1119   1.930   .     S
Cu1054 O1115   1.948   .     S
Cu1054 O1117   1.930   .     S
H1068  C140    1.110   1_556 S
H1074  C142    1.110   1_556 S
H1076  C1263   1.111   .     S
H1079  C1264   1.110   1_545 S
H1082  C1265   1.112   1_545 S
H1085  C1267   1.110   1_545 S
H1086  C1267   1.111   1_545 S
H1087  C1268   1.111   .     S
H1090  C1269   1.110   1_545 S
H1091  C149    1.108   1_556 S
H1093  C1270   1.112   1_545 S
H1096  C1271   1.110   1_545 S
H1097  C1271   1.111   1_545 S
C1121  C1138   1.458   .     S
C1121  O1217   1.290   .     A
C1121  O1227   1.292   .     A
C1122  C1161   1.410   .     A
C1122  C1126   1.415   .     A
C1122  O1224   1.382   .     S
C1123  C1127   1.406   .     S
C1123  O1231   1.286   .     A
C1123  O1228   1.286   .     A
C1124  O1229   1.286   .     A
C1124  C1128   1.406   .     S
C1124  O1230   1.286   .     A
C1125  C1164   1.419   .     A
C1125  C1162   1.419   .     A
C1126  C1163   1.415   .     A
C1126  C901    1.515   1_565 S
C1128  C231    1.188   1_556 S
C1129  C1134   1.394   .     A
C1129  C1140   1.396   .     A
C1129  H1210   1.084   .     S
C1130  C1135   1.395   .     A
C1130  C1141   1.396   .     A
C1130  H1211   1.084   .     S
C1131  H1212   1.084   .     S
C1131  C1136   1.394   .     A
C1131  C1141   1.396   .     A
C1132  O1225   1.292   .     A
C1132  O1226   1.290   .     A
C1132  C1139   1.458   .     S
C1133  H1213   1.084   .     S
C1133  C1140   1.396   .     A
C1133  C1137   1.395   .     A
C1134  C1138   1.412   .     A
C1134  O1232   1.383   .     S
C1135  C1139   1.410   .     A
C1135  O1218   1.383   .     S
C1136  O1219   1.383   .     S
C1136  C1139   1.412   .     A
C1137  C1138   1.410   .     A
C1137  O1220   1.383   .     S
C1140  C1253   1.452   1_455 S
C1141  C1252   1.452   .     S
C1142  H1168   1.115   .     S
C1142  H1214   1.114   .     S
C1142  O1232   1.412   .     S
C1142  C1144   1.522   .     S
C1143  C1162   1.409   .     A
C1143  H1167   1.080   .     S
C1143  N1215   1.362   .     A
C1144  H1171   1.111   .     S
C1144  H1170   1.111   .     S
C1144  H273    1.111   1_556 S
C1145  H1173   1.114   .     S
C1145  C1146   1.522   .     S
C1145  H1172   1.115   .     S
C1145  O1218   1.413   .     S
C1146  H1174   1.111   .     S
C1146  H1176   1.109   .     S
C1146  H279    1.110   1_556 S
C1147  O1219   1.412   .     S
C1147  H1177   1.114   .     S
C1147  H1179   1.114   .     S
C1147  C1148   1.522   .     S
C1148  H1181   1.110   .     S
C1148  H1182   1.110   .     S
C1149  H1183   1.115   .     S
C1149  O1220   1.413   .     S
C1149  H1184   1.114   .     S
C1149  C1150   1.522   .     S
C1150  H1187   1.109   .     S
C1150  H1185   1.110   .     S
C1151  O1221   1.410   .     S
C1151  H1190   1.114   .     S
C1152  H1193   1.111   .     S
C1152  C927    1.519   1_565 S
C1152  H967    1.110   1_565 S
C1152  H296    1.108   1_556 S
C1153  H1195   1.116   .     S
C1153  O1222   1.410   .     S
C1153  C1155   1.520   .     S
C1153  H970    1.112   1_565 S
C1154  C1163   1.410   .     A
C1154  N1216   1.365   .     A
C1154  H1178   1.079   .     S
C1155  H1196   1.111   .     S
C1155  H973    1.110   1_565 S
C1155  H974    1.111   1_565 S
C1156  O1223   1.410   .     S
C1156  H1201   1.114   .     S
C1157  H1204   1.111   .     S
C1157  C932    1.519   1_565 S
C1157  H978    1.110   1_565 S
C1158  H1206   1.116   .     S
C1158  O1224   1.410   .     S
C1158  C1159   1.520   .     S
C1158  H981    1.112   1_565 S
C1159  H1207   1.111   .     S
C1159  H984    1.110   1_565 S
C1159  H985    1.111   1_565 S
C1160  H1189   1.080   .     S
C1160  C1164   1.409   .     A
C1160  N1215   1.362   .     A
C1161  H1200   1.079   .     S
C1161  N1216   1.365   .     A
C1162  O1221   1.382   .     S
C1163  O1222   1.382   .     S
C1164  O1223   1.382   .     S
Cu1165 Cu1166  2.674   .     S
Cu1165 O1228   1.930   .     S
Cu1165 O1230   1.930   .     S
Cu1165 O1226   1.948   .     S
Cu1165 O1217   1.948   .     S
Cu1165 N1216   2.009   .     S
Cu1166 O1225   1.948   .     S
Cu1166 N1215   2.009   .     S
Cu1166 O1231   1.930   .     S
Cu1166 O1227   1.948   .     S
Cu1166 O1229   1.930   .     S
H1180  C252    1.110   1_556 S
H1186  C254    1.110   1_556 S
H1188  C927    1.111   1_565 S
H1199  C932    1.111   1_565 S
H1203  C261    1.108   1_556 S
C1233  C1250   1.458   .     S
C1233  O1329   1.290   .     A
C1233  O1339   1.292   .     A
C1234  C1273   1.410   .     A
C1234  C1238   1.415   .     A
C1234  O1336   1.382   .     S
C1235  C1239   1.406   .     S
C1235  O1343   1.286   .     A
C1235  O1340   1.286   .     A
C1236  O1341   1.286   .     A
C1236  C1240   1.406   .     S
C1236  O1342   1.286   .     A
C1237  C1276   1.419   .     A
C1237  C1274   1.419   .     A
C1238  C1275   1.415   .     A
C1238  C1013   1.515   1_565 S
C1240  C343    1.188   1_556 S
C1241  C1246   1.394   .     A
C1241  C1252   1.396   .     A
C1241  H1322   1.084   .     S
C1242  C1247   1.395   .     A
C1242  C1253   1.396   .     A
C1242  H1323   1.084   .     S
C1243  H1324   1.084   .     S
C1243  C1248   1.394   .     A
C1243  C1253   1.396   .     A
C1244  O1337   1.292   .     A
C1244  O1338   1.290   .     A
C1244  C1251   1.458   .     S
C1245  H1325   1.084   .     S
C1245  C1252   1.396   .     A
C1245  C1249   1.395   .     A
C1246  C1250   1.412   .     A
C1246  O1344   1.383   .     S
C1247  C1251   1.410   .     A
C1247  O1330   1.383   .     S
C1248  O1331   1.383   .     S
C1248  C1251   1.412   .     A
C1249  C1250   1.410   .     A
C1249  O1332   1.383   .     S
C1253  C1140   1.452   1_655 S
C1254  H1280   1.115   .     S
C1254  H1326   1.114   .     S
C1254  O1344   1.412   .     S
C1254  C1256   1.522   .     S
C1255  C1274   1.409   .     A
C1255  H1279   1.080   .     S
C1255  N1327   1.362   .     A
C1256  H1283   1.111   .     S
C1256  H1282   1.111   .     S
C1256  H385    1.111   1_556 S
C1257  H1285   1.114   .     S
C1257  C1258   1.522   .     S
C1257  H1284   1.115   .     S
C1257  O1330   1.413   .     S
C1258  H1286   1.111   .     S
C1258  H1288   1.109   .     S
C1258  H391    1.110   1_556 S
C1259  O1331   1.412   .     S
C1259  H1289   1.114   .     S
C1259  H1291   1.114   .     S
C1259  C1260   1.522   .     S
C1260  H1293   1.110   .     S
C1260  H1294   1.110   .     S
C1261  H1295   1.115   .     S
C1261  O1332   1.413   .     S
C1261  H1296   1.114   .     S
C1261  C1262   1.522   .     S
C1262  H1299   1.109   .     S
C1262  H1297   1.110   .     S
C1263  O1333   1.410   .     S
C1263  H1302   1.114   .     S
C1264  H1305   1.111   .     S
C1264  C1039   1.519   1_565 S
C1264  H1079   1.110   1_565 S
C1264  H408    1.108   1_556 S
C1265  H1307   1.116   .     S
C1265  O1334   1.410   .     S
C1265  C1267   1.520   .     S
C1265  H1082   1.112   1_565 S
C1266  C1275   1.410   .     A
C1266  N1328   1.365   .     A
C1266  H1290   1.079   .     S
C1267  H1308   1.111   .     S
C1267  H1085   1.110   1_565 S
C1267  H1086   1.111   1_565 S
C1268  O1335   1.410   .     S
C1268  H1313   1.114   .     S
C1269  H1316   1.111   .     S
C1269  C1044   1.519   1_565 S
C1269  H1090   1.110   1_565 S
C1270  H1318   1.116   .     S
C1270  O1336   1.410   .     S
C1270  C1271   1.520   .     S
C1270  H1093   1.112   1_565 S
C1271  H1319   1.111   .     S
C1271  H1096   1.110   1_565 S
C1271  H1097   1.111   1_565 S
C1272  H1301   1.080   .     S
C1272  C1276   1.409   .     A
C1272  N1327   1.362   .     A
C1273  H1312   1.079   .     S
C1273  N1328   1.365   .     A
C1274  O1333   1.382   .     S
C1275  O1334   1.382   .     S
C1276  O1335   1.382   .     S
Cu1277 Cu1278  2.674   .     S
Cu1277 O1340   1.930   .     S
Cu1277 O1342   1.930   .     S
Cu1277 O1338   1.948   .     S
Cu1277 O1329   1.948   .     S
Cu1277 N1328   2.009   .     S
Cu1278 O1337   1.948   .     S
Cu1278 N1327   2.009   .     S
Cu1278 O1343   1.930   .     S
Cu1278 O1339   1.948   .     S
Cu1278 O1341   1.930   .     S
H1292  C364    1.110   1_556 S
H1298  C366    1.110   1_556 S
H1300  C1039   1.111   1_565 S
H1311  C1044   1.111   1_565 S
H1315  C373    1.108   1_556 S
