data_str_m2_o1_o5_pcu_sym.92
_audit_creation_date              2020-01-03
_audit_creation_method            'Materials Studio'
_symmetry_space_group_name_H-M    'P1'
_symmetry_Int_Tables_number       1
_symmetry_cell_setting            triclinic
loop_
_symmetry_equiv_pos_as_xyz
  x,y,z
_cell_length_a                    32.3107
_cell_length_b                    29.2416
_cell_length_c                    27.2391
_cell_angle_alpha                 88.7706
_cell_angle_beta                  95.1090
_cell_angle_gamma                 91.9192
loop_
_atom_site_label
_atom_site_type_symbol
_atom_site_fract_x
_atom_site_fract_y
_atom_site_fract_z
_atom_site_U_iso_or_equiv
_atom_site_adp_type
_atom_site_occupancy
C1     C     0.08767   0.16602   0.16551   0.00000  Uiso   1.00
C2     C     0.01836   0.18139   0.12362   0.00000  Uiso   1.00
C3     C     0.29063   0.16859   0.16847   0.00000  Uiso   1.00
C4     C     0.04273   0.16445   0.16505   0.00000  Uiso   1.00
C5     C     0.13798   0.02421   0.13626   0.00000  Uiso   1.00
C6     C     0.19728   0.31004   0.19346   0.00000  Uiso   1.00
C7     C     0.19303   0.02479   0.19912   0.00000  Uiso   1.00
C8     C     0.13946   0.30825   0.13441   0.00000  Uiso   1.00
C9     C     0.05226   0.13522   0.25152   0.00000  Uiso   1.00
C10    C     0.28238   0.20337   0.08339   0.00000  Uiso   1.00
C11    C     0.29585   0.13420   0.25500   0.00000  Uiso   1.00
C12    C     0.24569   0.16728   0.16774   0.00000  Uiso   1.00
C13    C     0.03778   0.19205   0.07708   0.00000  Uiso   1.00
C14    C     0.10109   0.04718   0.10785   0.00000  Uiso   1.00
C15    C     0.06105   0.03899   0.13428   0.00000  Uiso   1.00
C16    C     0.02247   0.05302   0.10174   0.00000  Uiso   1.00
C17    C     0.24195   0.29444   0.20190   0.00000  Uiso   1.00
C18    C     0.25237   0.26972   0.25164   0.00000  Uiso   1.00
C19    C     0.29925   0.26502   0.26253   0.00000  Uiso   1.00
C20    C     0.21552   0.04683   0.24463   0.00000  Uiso   1.00
C21    C     0.19070   0.03877   0.28978   0.00000  Uiso   1.00
C22    C     0.21404   0.05841   0.00295   0.00000  Uiso   1.00
C23    C     0.16677   0.16697   0.07377   0.00000  Uiso   1.00
C24    C     0.11501   0.28467   0.09087   0.00000  Uiso   1.00
C25    C     0.13619   0.29357   0.04276   0.00000  Uiso   1.00
C26    C     0.10833   0.27843   0.33077   0.00000  Uiso   1.00
C27    C     0.16683   0.16640   0.25959   0.00000  Uiso   1.00
C28    C     0.16679   0.16713   0.02189   0.00000  Uiso   1.00
C29    C     0.16679   0.16637   0.31146   0.00000  Uiso   1.00
C30    C     0.02480   0.14844   0.20750   0.00000  Uiso   1.00
C31    C     0.30880   0.18514   0.12615   0.00000  Uiso   1.00
C32    C     0.31494   0.14977   0.20935   0.00000  Uiso   1.00
Cu33   Cu    0.16667   0.21355   0.16667   0.00000  Uiso   1.00
Cu34   Cu    0.16667   0.11978   0.16667   0.00000  Uiso   1.00
H35    H     0.07953   0.08478   0.29292   0.00000  Uiso   1.00
H36    H     0.10657   0.08352   0.10059   0.00000  Uiso   1.00
H37    H     0.09577   0.03495   0.06965   0.00000  Uiso   1.00
H38    H     0.31235   0.24729   0.23207   0.00000  Uiso   1.00
H39    H     0.31480   0.29932   0.26709   0.00000  Uiso   1.00
H40    H     0.30578   0.24485   0.29718   0.00000  Uiso   1.00
H41    H     0.24075   0.28880   0.28206   0.00000  Uiso   1.00
H42    H     0.23750   0.23530   0.25174   0.00000  Uiso   1.00
H43    H     0.25116   0.27662   0.16979   0.00000  Uiso   1.00
H44    H     0.26394   0.32422   0.19926   0.00000  Uiso   1.00
H45    H     0.24241   0.03874   0.01337   0.00000  Uiso   1.00
H46    H     0.25516   0.19309   0.01533   0.00000  Uiso   1.00
H47    H     0.22311   0.09486   0.33024   0.00000  Uiso   1.00
H48    H     0.19398   0.05625   0.03395   0.00000  Uiso   1.00
H49    H     0.15972   0.05423   0.28358   0.00000  Uiso   1.00
H50    H     0.18539   0.00151   0.29588   0.00000  Uiso   1.00
H51    H     0.24686   0.03361   0.25423   0.00000  Uiso   1.00
H52    H     0.22239   0.08308   0.23849   0.00000  Uiso   1.00
H53    H     0.10188   0.24112   0.33250   0.00000  Uiso   1.00
H54    H     0.07856   0.29662   0.32824   0.00000  Uiso   1.00
H55    H     0.12409   0.28632   0.29687   0.00000  Uiso   1.00
H56    H     0.14405   0.33039   0.03794   0.00000  Uiso   1.00
H57    H     0.29724   0.09092   0.31385   0.00000  Uiso   1.00
H58    H     0.16600   0.27566   0.04410   0.00000  Uiso   1.00
H59    H     0.11018   0.24811   0.09638   0.00000  Uiso   1.00
H60    H     0.08253   0.29582   0.08613   0.00000  Uiso   1.00
H61    H     0.07999   0.17414   0.03158   0.00000  Uiso   1.00
H62    H     0.02543   0.08935   0.08988   0.00000  Uiso   1.00
H63    H     0.01806   0.03131   0.06859   0.00000  Uiso   1.00
H64    H     0.32794   0.04859   0.12270   0.00000  Uiso   1.00
H65    H     0.05687   0.00239   0.14496   0.00000  Uiso   1.00
H66    H     0.06300   0.05821   0.16902   0.00000  Uiso   1.00
N67    N     0.16667   0.28402   0.16667   0.00000  Uiso   1.00
N68    N     0.16667   0.04931   0.16667   0.00000  Uiso   1.00
O69    O     0.10655   0.20625   0.16666   0.00000  Uiso   1.00
O70    O     0.05959   0.08912   0.26239   0.00000  Uiso   1.00
O71    O     0.26844   0.24163   0.08483   0.00000  Uiso   1.00
O72    O     0.27380   0.17685   0.04153   0.00000  Uiso   1.00
O73    O     0.26680   0.15456   0.26889   0.00000  Uiso   1.00
O74    O     0.31125   0.09650   0.28236   0.00000  Uiso   1.00
O75    O     0.02768   0.22548   0.05160   0.00000  Uiso   1.00
O76    O     0.06777   0.16312   0.06260   0.00000  Uiso   1.00
O77    O     0.22679   0.12709   0.16667   0.00000  Uiso   1.00
O78    O     0.22679   0.20625   0.16667   0.00000  Uiso   1.00
O79    O     0.10655   0.12709   0.16666   0.00000  Uiso   1.00
O80    O     0.16667   0.20625   0.09613   0.00000  Uiso   1.00
O81    O     0.16667   0.12708   0.23720   0.00000  Uiso   1.00
O82    O     0.16667   0.20625   0.23720   0.00000  Uiso   1.00
O83    O     0.16667   0.12708   0.09613   0.00000  Uiso   1.00
O84    O     0.06973   0.16514   0.27694   0.00000  Uiso   1.00
C85    C     0.42100   0.16602   0.16551   0.00000  Uiso   1.00
C86    C     0.35170   0.18139   0.12362   0.00000  Uiso   1.00
C87    C     0.62396   0.16859   0.16847   0.00000  Uiso   1.00
C88    C     0.37607   0.16445   0.16505   0.00000  Uiso   1.00
C89    C     0.47131   0.02421   0.13626   0.00000  Uiso   1.00
C90    C     0.53062   0.31004   0.19346   0.00000  Uiso   1.00
C91    C     0.52636   0.02479   0.19912   0.00000  Uiso   1.00
C92    C     0.47279   0.30825   0.13441   0.00000  Uiso   1.00
C93    C     0.38559   0.13522   0.25152   0.00000  Uiso   1.00
C94    C     0.61571   0.20337   0.08339   0.00000  Uiso   1.00
C95    C     0.62919   0.13420   0.25500   0.00000  Uiso   1.00
C96    C     0.57902   0.16728   0.16774   0.00000  Uiso   1.00
C97    C     0.37111   0.19205   0.07708   0.00000  Uiso   1.00
C98    C     0.43443   0.04718   0.10785   0.00000  Uiso   1.00
C99    C     0.39438   0.03899   0.13428   0.00000  Uiso   1.00
C100   C     0.35580   0.05302   0.10174   0.00000  Uiso   1.00
C101   C     0.57528   0.29444   0.20190   0.00000  Uiso   1.00
C102   C     0.58571   0.26972   0.25164   0.00000  Uiso   1.00
C103   C     0.63259   0.26502   0.26253   0.00000  Uiso   1.00
C104   C     0.54885   0.04683   0.24463   0.00000  Uiso   1.00
C105   C     0.52403   0.03877   0.28978   0.00000  Uiso   1.00
C106   C     0.54737   0.05841   0.00295   0.00000  Uiso   1.00
C107   C     0.50010   0.16697   0.07377   0.00000  Uiso   1.00
C108   C     0.44834   0.28467   0.09087   0.00000  Uiso   1.00
C109   C     0.46953   0.29357   0.04276   0.00000  Uiso   1.00
C110   C     0.44166   0.27843   0.33077   0.00000  Uiso   1.00
C111   C     0.50016   0.16640   0.25959   0.00000  Uiso   1.00
C112   C     0.50012   0.16713   0.02189   0.00000  Uiso   1.00
C113   C     0.50012   0.16637   0.31146   0.00000  Uiso   1.00
C114   C     0.35813   0.14844   0.20750   0.00000  Uiso   1.00
C115   C     0.64213   0.18514   0.12615   0.00000  Uiso   1.00
C116   C     0.64827   0.14977   0.20935   0.00000  Uiso   1.00
Cu117  Cu    0.50000   0.21355   0.16667   0.00000  Uiso   1.00
Cu118  Cu    0.50000   0.11978   0.16667   0.00000  Uiso   1.00
H119   H     0.41286   0.08478   0.29292   0.00000  Uiso   1.00
H120   H     0.43990   0.08352   0.10059   0.00000  Uiso   1.00
H121   H     0.42911   0.03495   0.06965   0.00000  Uiso   1.00
H122   H     0.64568   0.24729   0.23207   0.00000  Uiso   1.00
H123   H     0.64813   0.29932   0.26709   0.00000  Uiso   1.00
H124   H     0.63911   0.24485   0.29718   0.00000  Uiso   1.00
H125   H     0.57408   0.28880   0.28206   0.00000  Uiso   1.00
H126   H     0.57084   0.23530   0.25174   0.00000  Uiso   1.00
H127   H     0.58449   0.27662   0.16979   0.00000  Uiso   1.00
H128   H     0.59728   0.32422   0.19926   0.00000  Uiso   1.00
H129   H     0.57574   0.03874   0.01337   0.00000  Uiso   1.00
H130   H     0.58849   0.19309   0.01533   0.00000  Uiso   1.00
H131   H     0.55644   0.09486   0.33024   0.00000  Uiso   1.00
H132   H     0.52732   0.05625   0.03395   0.00000  Uiso   1.00
H133   H     0.49306   0.05423   0.28358   0.00000  Uiso   1.00
H134   H     0.51872   0.00151   0.29588   0.00000  Uiso   1.00
H135   H     0.58019   0.03361   0.25423   0.00000  Uiso   1.00
H136   H     0.55572   0.08308   0.23849   0.00000  Uiso   1.00
H137   H     0.43521   0.24112   0.33250   0.00000  Uiso   1.00
H138   H     0.41189   0.29662   0.32824   0.00000  Uiso   1.00
H139   H     0.45742   0.28632   0.29687   0.00000  Uiso   1.00
H140   H     0.47738   0.33039   0.03794   0.00000  Uiso   1.00
H141   H     0.63057   0.09092   0.31385   0.00000  Uiso   1.00
H142   H     0.49933   0.27566   0.04410   0.00000  Uiso   1.00
H143   H     0.44352   0.24811   0.09638   0.00000  Uiso   1.00
H144   H     0.41586   0.29582   0.08613   0.00000  Uiso   1.00
H145   H     0.41333   0.17414   0.03158   0.00000  Uiso   1.00
H146   H     0.35876   0.08935   0.08988   0.00000  Uiso   1.00
H147   H     0.35139   0.03131   0.06859   0.00000  Uiso   1.00
H148   H     0.66128   0.04859   0.12270   0.00000  Uiso   1.00
H149   H     0.39021   0.00239   0.14496   0.00000  Uiso   1.00
H150   H     0.39633   0.05821   0.16902   0.00000  Uiso   1.00
N151   N     0.50000   0.28402   0.16667   0.00000  Uiso   1.00
N152   N     0.50000   0.04931   0.16667   0.00000  Uiso   1.00
O153   O     0.43988   0.20625   0.16666   0.00000  Uiso   1.00
O154   O     0.39292   0.08912   0.26239   0.00000  Uiso   1.00
O155   O     0.60177   0.24163   0.08483   0.00000  Uiso   1.00
O156   O     0.60713   0.17685   0.04153   0.00000  Uiso   1.00
O157   O     0.60013   0.15456   0.26889   0.00000  Uiso   1.00
O158   O     0.64459   0.09650   0.28236   0.00000  Uiso   1.00
O159   O     0.36102   0.22548   0.05160   0.00000  Uiso   1.00
O160   O     0.40110   0.16312   0.06260   0.00000  Uiso   1.00
O161   O     0.56012   0.12709   0.16667   0.00000  Uiso   1.00
O162   O     0.56012   0.20625   0.16667   0.00000  Uiso   1.00
O163   O     0.43988   0.12709   0.16666   0.00000  Uiso   1.00
O164   O     0.50000   0.20625   0.09613   0.00000  Uiso   1.00
O165   O     0.50000   0.12708   0.23720   0.00000  Uiso   1.00
O166   O     0.50000   0.20625   0.23720   0.00000  Uiso   1.00
O167   O     0.50000   0.12708   0.09613   0.00000  Uiso   1.00
O168   O     0.40306   0.16514   0.27694   0.00000  Uiso   1.00
C169   C     0.75434   0.16602   0.16551   0.00000  Uiso   1.00
C170   C     0.68503   0.18139   0.12362   0.00000  Uiso   1.00
C171   C     0.95729   0.16859   0.16847   0.00000  Uiso   1.00
C172   C     0.70940   0.16445   0.16505   0.00000  Uiso   1.00
C173   C     0.80465   0.02421   0.13626   0.00000  Uiso   1.00
C174   C     0.86395   0.31004   0.19346   0.00000  Uiso   1.00
C175   C     0.85969   0.02479   0.19912   0.00000  Uiso   1.00
C176   C     0.80612   0.30825   0.13441   0.00000  Uiso   1.00
C177   C     0.71893   0.13522   0.25152   0.00000  Uiso   1.00
C178   C     0.94905   0.20337   0.08339   0.00000  Uiso   1.00
C179   C     0.96252   0.13420   0.25500   0.00000  Uiso   1.00
C180   C     0.91235   0.16728   0.16774   0.00000  Uiso   1.00
C181   C     0.70444   0.19205   0.07708   0.00000  Uiso   1.00
C182   C     0.76776   0.04718   0.10785   0.00000  Uiso   1.00
C183   C     0.72772   0.03899   0.13428   0.00000  Uiso   1.00
C184   C     0.68913   0.05302   0.10174   0.00000  Uiso   1.00
C185   C     0.90862   0.29444   0.20190   0.00000  Uiso   1.00
C186   C     0.91904   0.26972   0.25164   0.00000  Uiso   1.00
C187   C     0.96592   0.26502   0.26253   0.00000  Uiso   1.00
C188   C     0.88218   0.04683   0.24463   0.00000  Uiso   1.00
C189   C     0.85737   0.03877   0.28978   0.00000  Uiso   1.00
C190   C     0.88071   0.05841   0.00295   0.00000  Uiso   1.00
C191   C     0.83344   0.16697   0.07377   0.00000  Uiso   1.00
C192   C     0.78168   0.28467   0.09087   0.00000  Uiso   1.00
C193   C     0.80286   0.29357   0.04276   0.00000  Uiso   1.00
C194   C     0.77500   0.27843   0.33077   0.00000  Uiso   1.00
C195   C     0.83350   0.16640   0.25959   0.00000  Uiso   1.00
C196   C     0.83346   0.16713   0.02189   0.00000  Uiso   1.00
C197   C     0.83346   0.16637   0.31146   0.00000  Uiso   1.00
C198   C     0.69146   0.14844   0.20750   0.00000  Uiso   1.00
C199   C     0.97547   0.18514   0.12615   0.00000  Uiso   1.00
C200   C     0.98160   0.14977   0.20935   0.00000  Uiso   1.00
Cu201  Cu    0.83333   0.21355   0.16667   0.00000  Uiso   1.00
Cu202  Cu    0.83333   0.11978   0.16667   0.00000  Uiso   1.00
H203   H     0.74620   0.08478   0.29292   0.00000  Uiso   1.00
H204   H     0.77324   0.08352   0.10059   0.00000  Uiso   1.00
H205   H     0.76244   0.03495   0.06965   0.00000  Uiso   1.00
H206   H     0.97901   0.24729   0.23207   0.00000  Uiso   1.00
H207   H     0.98147   0.29932   0.26709   0.00000  Uiso   1.00
H208   H     0.97245   0.24485   0.29718   0.00000  Uiso   1.00
H209   H     0.90742   0.28880   0.28206   0.00000  Uiso   1.00
H210   H     0.90417   0.23530   0.25174   0.00000  Uiso   1.00
H211   H     0.91782   0.27662   0.16979   0.00000  Uiso   1.00
H212   H     0.93061   0.32422   0.19926   0.00000  Uiso   1.00
H213   H     0.90907   0.03874   0.01337   0.00000  Uiso   1.00
H214   H     0.92182   0.19309   0.01533   0.00000  Uiso   1.00
H215   H     0.88978   0.09486   0.33024   0.00000  Uiso   1.00
H216   H     0.86065   0.05625   0.03395   0.00000  Uiso   1.00
H217   H     0.82639   0.05423   0.28358   0.00000  Uiso   1.00
H218   H     0.85206   0.00151   0.29588   0.00000  Uiso   1.00
H219   H     0.91352   0.03361   0.25423   0.00000  Uiso   1.00
H220   H     0.88905   0.08308   0.23849   0.00000  Uiso   1.00
H221   H     0.76854   0.24112   0.33250   0.00000  Uiso   1.00
H222   H     0.74522   0.29662   0.32824   0.00000  Uiso   1.00
H223   H     0.79075   0.28632   0.29687   0.00000  Uiso   1.00
H224   H     0.81072   0.33039   0.03794   0.00000  Uiso   1.00
H225   H     0.96390   0.09092   0.31385   0.00000  Uiso   1.00
H226   H     0.83267   0.27566   0.04410   0.00000  Uiso   1.00
H227   H     0.77685   0.24811   0.09638   0.00000  Uiso   1.00
H228   H     0.74919   0.29582   0.08613   0.00000  Uiso   1.00
H229   H     0.74666   0.17414   0.03158   0.00000  Uiso   1.00
H230   H     0.69209   0.08935   0.08988   0.00000  Uiso   1.00
H231   H     0.68473   0.03131   0.06859   0.00000  Uiso   1.00
H232   H     0.99461   0.04859   0.12270   0.00000  Uiso   1.00
H233   H     0.72354   0.00239   0.14496   0.00000  Uiso   1.00
H234   H     0.72966   0.05821   0.16902   0.00000  Uiso   1.00
N235   N     0.83333   0.28402   0.16667   0.00000  Uiso   1.00
N236   N     0.83333   0.04931   0.16667   0.00000  Uiso   1.00
O237   O     0.77321   0.20625   0.16666   0.00000  Uiso   1.00
O238   O     0.72626   0.08912   0.26239   0.00000  Uiso   1.00
O239   O     0.93510   0.24163   0.08483   0.00000  Uiso   1.00
O240   O     0.94046   0.17685   0.04153   0.00000  Uiso   1.00
O241   O     0.93347   0.15456   0.26889   0.00000  Uiso   1.00
O242   O     0.97792   0.09650   0.28236   0.00000  Uiso   1.00
O243   O     0.69435   0.22548   0.05160   0.00000  Uiso   1.00
O244   O     0.73444   0.16312   0.06260   0.00000  Uiso   1.00
O245   O     0.89345   0.12709   0.16667   0.00000  Uiso   1.00
O246   O     0.89345   0.20625   0.16667   0.00000  Uiso   1.00
O247   O     0.77321   0.12709   0.16666   0.00000  Uiso   1.00
O248   O     0.83333   0.20625   0.09613   0.00000  Uiso   1.00
O249   O     0.83333   0.12708   0.23720   0.00000  Uiso   1.00
O250   O     0.83333   0.20625   0.23720   0.00000  Uiso   1.00
O251   O     0.83333   0.12708   0.09613   0.00000  Uiso   1.00
O252   O     0.73639   0.16514   0.27694   0.00000  Uiso   1.00
C253   C     0.08767   0.49935   0.16551   0.00000  Uiso   1.00
C254   C     0.01836   0.51473   0.12362   0.00000  Uiso   1.00
C255   C     0.29063   0.50192   0.16847   0.00000  Uiso   1.00
C256   C     0.04273   0.49778   0.16505   0.00000  Uiso   1.00
C257   C     0.13798   0.35755   0.13626   0.00000  Uiso   1.00
C258   C     0.19728   0.64337   0.19346   0.00000  Uiso   1.00
C259   C     0.19303   0.35812   0.19912   0.00000  Uiso   1.00
C260   C     0.13946   0.64158   0.13441   0.00000  Uiso   1.00
C261   C     0.05226   0.46855   0.25152   0.00000  Uiso   1.00
C262   C     0.28238   0.53670   0.08339   0.00000  Uiso   1.00
C263   C     0.29585   0.46754   0.25500   0.00000  Uiso   1.00
C264   C     0.24569   0.50061   0.16774   0.00000  Uiso   1.00
C265   C     0.03778   0.52539   0.07708   0.00000  Uiso   1.00
C266   C     0.10109   0.38051   0.10785   0.00000  Uiso   1.00
C267   C     0.06105   0.37232   0.13428   0.00000  Uiso   1.00
C268   C     0.02247   0.38635   0.10174   0.00000  Uiso   1.00
C269   C     0.24195   0.62777   0.20190   0.00000  Uiso   1.00
C270   C     0.25237   0.60305   0.25164   0.00000  Uiso   1.00
C271   C     0.29925   0.59835   0.26253   0.00000  Uiso   1.00
C272   C     0.21552   0.38016   0.24463   0.00000  Uiso   1.00
C273   C     0.19070   0.37211   0.28978   0.00000  Uiso   1.00
C274   C     0.21404   0.39175   0.00295   0.00000  Uiso   1.00
C275   C     0.16677   0.50030   0.07377   0.00000  Uiso   1.00
C276   C     0.11501   0.61800   0.09087   0.00000  Uiso   1.00
C277   C     0.13619   0.62690   0.04276   0.00000  Uiso   1.00
C278   C     0.10833   0.61176   0.33077   0.00000  Uiso   1.00
C279   C     0.16683   0.49973   0.25959   0.00000  Uiso   1.00
C280   C     0.16679   0.50047   0.02189   0.00000  Uiso   1.00
C281   C     0.16679   0.49970   0.31146   0.00000  Uiso   1.00
C282   C     0.02480   0.48177   0.20750   0.00000  Uiso   1.00
C283   C     0.30880   0.51847   0.12615   0.00000  Uiso   1.00
C284   C     0.31494   0.48310   0.20935   0.00000  Uiso   1.00
Cu285  Cu    0.16667   0.54689   0.16667   0.00000  Uiso   1.00
Cu286  Cu    0.16667   0.45311   0.16667   0.00000  Uiso   1.00
H287   H     0.07953   0.41812   0.29292   0.00000  Uiso   1.00
H288   H     0.10657   0.41685   0.10059   0.00000  Uiso   1.00
H289   H     0.09577   0.36829   0.06965   0.00000  Uiso   1.00
H290   H     0.31235   0.58063   0.23207   0.00000  Uiso   1.00
H291   H     0.31480   0.63265   0.26709   0.00000  Uiso   1.00
H292   H     0.30578   0.57818   0.29718   0.00000  Uiso   1.00
H293   H     0.24075   0.62214   0.28206   0.00000  Uiso   1.00
H294   H     0.23750   0.56863   0.25174   0.00000  Uiso   1.00
H295   H     0.25116   0.60995   0.16979   0.00000  Uiso   1.00
H296   H     0.26394   0.65755   0.19926   0.00000  Uiso   1.00
H297   H     0.24241   0.37207   0.01337   0.00000  Uiso   1.00
H298   H     0.25516   0.52643   0.01533   0.00000  Uiso   1.00
H299   H     0.22311   0.42819   0.33024   0.00000  Uiso   1.00
H300   H     0.19398   0.38959   0.03395   0.00000  Uiso   1.00
H301   H     0.15972   0.38756   0.28358   0.00000  Uiso   1.00
H302   H     0.18539   0.33484   0.29588   0.00000  Uiso   1.00
H303   H     0.24686   0.36694   0.25423   0.00000  Uiso   1.00
H304   H     0.22239   0.41641   0.23849   0.00000  Uiso   1.00
H305   H     0.10188   0.57445   0.33250   0.00000  Uiso   1.00
H306   H     0.07856   0.62995   0.32824   0.00000  Uiso   1.00
H307   H     0.12409   0.61966   0.29687   0.00000  Uiso   1.00
H308   H     0.14405   0.66372   0.03794   0.00000  Uiso   1.00
H309   H     0.29724   0.42425   0.31385   0.00000  Uiso   1.00
H310   H     0.16600   0.60900   0.04410   0.00000  Uiso   1.00
H311   H     0.11018   0.58144   0.09638   0.00000  Uiso   1.00
H312   H     0.08253   0.62916   0.08613   0.00000  Uiso   1.00
H313   H     0.07999   0.50748   0.03158   0.00000  Uiso   1.00
H314   H     0.02543   0.42268   0.08988   0.00000  Uiso   1.00
H315   H     0.01806   0.36464   0.06859   0.00000  Uiso   1.00
H316   H     0.32794   0.38193   0.12270   0.00000  Uiso   1.00
H317   H     0.05687   0.33573   0.14496   0.00000  Uiso   1.00
H318   H     0.06300   0.39154   0.16902   0.00000  Uiso   1.00
N319   N     0.16667   0.61736   0.16667   0.00000  Uiso   1.00
N320   N     0.16667   0.38264   0.16667   0.00000  Uiso   1.00
O321   O     0.10655   0.53958   0.16666   0.00000  Uiso   1.00
O322   O     0.05959   0.42246   0.26239   0.00000  Uiso   1.00
O323   O     0.26844   0.57496   0.08483   0.00000  Uiso   1.00
O324   O     0.27380   0.51018   0.04153   0.00000  Uiso   1.00
O325   O     0.26680   0.48789   0.26889   0.00000  Uiso   1.00
O326   O     0.31125   0.42983   0.28236   0.00000  Uiso   1.00
O327   O     0.02768   0.55881   0.05160   0.00000  Uiso   1.00
O328   O     0.06777   0.49645   0.06260   0.00000  Uiso   1.00
O329   O     0.22679   0.46042   0.16667   0.00000  Uiso   1.00
O330   O     0.22679   0.53958   0.16667   0.00000  Uiso   1.00
O331   O     0.10655   0.46042   0.16666   0.00000  Uiso   1.00
O332   O     0.16667   0.53959   0.09613   0.00000  Uiso   1.00
O333   O     0.16667   0.46041   0.23720   0.00000  Uiso   1.00
O334   O     0.16667   0.53959   0.23720   0.00000  Uiso   1.00
O335   O     0.16667   0.46041   0.09613   0.00000  Uiso   1.00
O336   O     0.06973   0.49847   0.27694   0.00000  Uiso   1.00
C337   C     0.42100   0.49935   0.16551   0.00000  Uiso   1.00
C338   C     0.35170   0.51473   0.12362   0.00000  Uiso   1.00
C339   C     0.62396   0.50192   0.16847   0.00000  Uiso   1.00
C340   C     0.37607   0.49778   0.16505   0.00000  Uiso   1.00
C341   C     0.47131   0.35755   0.13626   0.00000  Uiso   1.00
C342   C     0.53062   0.64337   0.19346   0.00000  Uiso   1.00
C343   C     0.52636   0.35812   0.19912   0.00000  Uiso   1.00
C344   C     0.47279   0.64158   0.13441   0.00000  Uiso   1.00
C345   C     0.38559   0.46855   0.25152   0.00000  Uiso   1.00
C346   C     0.61571   0.53670   0.08339   0.00000  Uiso   1.00
C347   C     0.62919   0.46754   0.25500   0.00000  Uiso   1.00
C348   C     0.57902   0.50061   0.16774   0.00000  Uiso   1.00
C349   C     0.37111   0.52539   0.07708   0.00000  Uiso   1.00
C350   C     0.43443   0.38051   0.10785   0.00000  Uiso   1.00
C351   C     0.39438   0.37232   0.13428   0.00000  Uiso   1.00
C352   C     0.35580   0.38635   0.10174   0.00000  Uiso   1.00
C353   C     0.57528   0.62777   0.20190   0.00000  Uiso   1.00
C354   C     0.58571   0.60305   0.25164   0.00000  Uiso   1.00
C355   C     0.63259   0.59835   0.26253   0.00000  Uiso   1.00
C356   C     0.54885   0.38016   0.24463   0.00000  Uiso   1.00
C357   C     0.52403   0.37211   0.28978   0.00000  Uiso   1.00
C358   C     0.54737   0.39175   0.00295   0.00000  Uiso   1.00
C359   C     0.50010   0.50030   0.07377   0.00000  Uiso   1.00
C360   C     0.44834   0.61800   0.09087   0.00000  Uiso   1.00
C361   C     0.46953   0.62690   0.04276   0.00000  Uiso   1.00
C362   C     0.44166   0.61176   0.33077   0.00000  Uiso   1.00
C363   C     0.50016   0.49973   0.25959   0.00000  Uiso   1.00
C364   C     0.50012   0.50047   0.02189   0.00000  Uiso   1.00
C365   C     0.50012   0.49970   0.31146   0.00000  Uiso   1.00
C366   C     0.35813   0.48177   0.20750   0.00000  Uiso   1.00
C367   C     0.64213   0.51847   0.12615   0.00000  Uiso   1.00
C368   C     0.64827   0.48310   0.20935   0.00000  Uiso   1.00
Cu369  Cu    0.50000   0.54689   0.16667   0.00000  Uiso   1.00
Cu370  Cu    0.50000   0.45311   0.16667   0.00000  Uiso   1.00
H371   H     0.41286   0.41812   0.29292   0.00000  Uiso   1.00
H372   H     0.43990   0.41685   0.10059   0.00000  Uiso   1.00
H373   H     0.42911   0.36829   0.06965   0.00000  Uiso   1.00
H374   H     0.64568   0.58063   0.23207   0.00000  Uiso   1.00
H375   H     0.64813   0.63265   0.26709   0.00000  Uiso   1.00
H376   H     0.63911   0.57818   0.29718   0.00000  Uiso   1.00
H377   H     0.57408   0.62214   0.28206   0.00000  Uiso   1.00
H378   H     0.57084   0.56863   0.25174   0.00000  Uiso   1.00
H379   H     0.58449   0.60995   0.16979   0.00000  Uiso   1.00
H380   H     0.59728   0.65755   0.19926   0.00000  Uiso   1.00
H381   H     0.57574   0.37207   0.01337   0.00000  Uiso   1.00
H382   H     0.58849   0.52643   0.01533   0.00000  Uiso   1.00
H383   H     0.55644   0.42819   0.33024   0.00000  Uiso   1.00
H384   H     0.52732   0.38959   0.03395   0.00000  Uiso   1.00
H385   H     0.49306   0.38756   0.28358   0.00000  Uiso   1.00
H386   H     0.51872   0.33484   0.29588   0.00000  Uiso   1.00
H387   H     0.58019   0.36694   0.25423   0.00000  Uiso   1.00
H388   H     0.55572   0.41641   0.23849   0.00000  Uiso   1.00
H389   H     0.43521   0.57445   0.33250   0.00000  Uiso   1.00
H390   H     0.41189   0.62995   0.32824   0.00000  Uiso   1.00
H391   H     0.45742   0.61966   0.29687   0.00000  Uiso   1.00
H392   H     0.47738   0.66372   0.03794   0.00000  Uiso   1.00
H393   H     0.63057   0.42425   0.31385   0.00000  Uiso   1.00
H394   H     0.49933   0.60900   0.04410   0.00000  Uiso   1.00
H395   H     0.44352   0.58144   0.09638   0.00000  Uiso   1.00
H396   H     0.41586   0.62916   0.08613   0.00000  Uiso   1.00
H397   H     0.41333   0.50748   0.03158   0.00000  Uiso   1.00
H398   H     0.35876   0.42268   0.08988   0.00000  Uiso   1.00
H399   H     0.35139   0.36464   0.06859   0.00000  Uiso   1.00
H400   H     0.66128   0.38193   0.12270   0.00000  Uiso   1.00
H401   H     0.39021   0.33573   0.14496   0.00000  Uiso   1.00
H402   H     0.39633   0.39154   0.16902   0.00000  Uiso   1.00
N403   N     0.50000   0.61736   0.16667   0.00000  Uiso   1.00
N404   N     0.50000   0.38264   0.16667   0.00000  Uiso   1.00
O405   O     0.43988   0.53958   0.16666   0.00000  Uiso   1.00
O406   O     0.39292   0.42246   0.26239   0.00000  Uiso   1.00
O407   O     0.60177   0.57496   0.08483   0.00000  Uiso   1.00
O408   O     0.60713   0.51018   0.04153   0.00000  Uiso   1.00
O409   O     0.60013   0.48789   0.26889   0.00000  Uiso   1.00
O410   O     0.64459   0.42983   0.28236   0.00000  Uiso   1.00
O411   O     0.36102   0.55881   0.05160   0.00000  Uiso   1.00
O412   O     0.40110   0.49645   0.06260   0.00000  Uiso   1.00
O413   O     0.56012   0.46042   0.16667   0.00000  Uiso   1.00
O414   O     0.56012   0.53958   0.16667   0.00000  Uiso   1.00
O415   O     0.43988   0.46042   0.16666   0.00000  Uiso   1.00
O416   O     0.50000   0.53959   0.09613   0.00000  Uiso   1.00
O417   O     0.50000   0.46041   0.23720   0.00000  Uiso   1.00
O418   O     0.50000   0.53959   0.23720   0.00000  Uiso   1.00
O419   O     0.50000   0.46041   0.09613   0.00000  Uiso   1.00
O420   O     0.40306   0.49847   0.27694   0.00000  Uiso   1.00
C421   C     0.75434   0.49935   0.16551   0.00000  Uiso   1.00
C422   C     0.68503   0.51473   0.12362   0.00000  Uiso   1.00
C423   C     0.95729   0.50192   0.16847   0.00000  Uiso   1.00
C424   C     0.70940   0.49778   0.16505   0.00000  Uiso   1.00
C425   C     0.80465   0.35755   0.13626   0.00000  Uiso   1.00
C426   C     0.86395   0.64337   0.19346   0.00000  Uiso   1.00
C427   C     0.85969   0.35812   0.19912   0.00000  Uiso   1.00
C428   C     0.80612   0.64158   0.13441   0.00000  Uiso   1.00
C429   C     0.71893   0.46855   0.25152   0.00000  Uiso   1.00
C430   C     0.94905   0.53670   0.08339   0.00000  Uiso   1.00
C431   C     0.96252   0.46754   0.25500   0.00000  Uiso   1.00
C432   C     0.91235   0.50061   0.16774   0.00000  Uiso   1.00
C433   C     0.70444   0.52539   0.07708   0.00000  Uiso   1.00
C434   C     0.76776   0.38051   0.10785   0.00000  Uiso   1.00
C435   C     0.72772   0.37232   0.13428   0.00000  Uiso   1.00
C436   C     0.68913   0.38635   0.10174   0.00000  Uiso   1.00
C437   C     0.90862   0.62777   0.20190   0.00000  Uiso   1.00
C438   C     0.91904   0.60305   0.25164   0.00000  Uiso   1.00
C439   C     0.96592   0.59835   0.26253   0.00000  Uiso   1.00
C440   C     0.88218   0.38016   0.24463   0.00000  Uiso   1.00
C441   C     0.85737   0.37211   0.28978   0.00000  Uiso   1.00
C442   C     0.88071   0.39175   0.00295   0.00000  Uiso   1.00
C443   C     0.83344   0.50030   0.07377   0.00000  Uiso   1.00
C444   C     0.78168   0.61800   0.09087   0.00000  Uiso   1.00
C445   C     0.80286   0.62690   0.04276   0.00000  Uiso   1.00
C446   C     0.77500   0.61176   0.33077   0.00000  Uiso   1.00
C447   C     0.83350   0.49973   0.25959   0.00000  Uiso   1.00
C448   C     0.83346   0.50047   0.02189   0.00000  Uiso   1.00
C449   C     0.83346   0.49970   0.31146   0.00000  Uiso   1.00
C450   C     0.69146   0.48177   0.20750   0.00000  Uiso   1.00
C451   C     0.97547   0.51847   0.12615   0.00000  Uiso   1.00
C452   C     0.98160   0.48310   0.20935   0.00000  Uiso   1.00
Cu453  Cu    0.83333   0.54689   0.16667   0.00000  Uiso   1.00
Cu454  Cu    0.83333   0.45311   0.16667   0.00000  Uiso   1.00
H455   H     0.74620   0.41812   0.29292   0.00000  Uiso   1.00
H456   H     0.77324   0.41685   0.10059   0.00000  Uiso   1.00
H457   H     0.76244   0.36829   0.06965   0.00000  Uiso   1.00
H458   H     0.97901   0.58063   0.23207   0.00000  Uiso   1.00
H459   H     0.98147   0.63265   0.26709   0.00000  Uiso   1.00
H460   H     0.97245   0.57818   0.29718   0.00000  Uiso   1.00
H461   H     0.90742   0.62214   0.28206   0.00000  Uiso   1.00
H462   H     0.90417   0.56863   0.25174   0.00000  Uiso   1.00
H463   H     0.91782   0.60995   0.16979   0.00000  Uiso   1.00
H464   H     0.93061   0.65755   0.19926   0.00000  Uiso   1.00
H465   H     0.90907   0.37207   0.01337   0.00000  Uiso   1.00
H466   H     0.92182   0.52643   0.01533   0.00000  Uiso   1.00
H467   H     0.88978   0.42819   0.33024   0.00000  Uiso   1.00
H468   H     0.86065   0.38959   0.03395   0.00000  Uiso   1.00
H469   H     0.82639   0.38756   0.28358   0.00000  Uiso   1.00
H470   H     0.85206   0.33484   0.29588   0.00000  Uiso   1.00
H471   H     0.91352   0.36694   0.25423   0.00000  Uiso   1.00
H472   H     0.88905   0.41641   0.23849   0.00000  Uiso   1.00
H473   H     0.76854   0.57445   0.33250   0.00000  Uiso   1.00
H474   H     0.74522   0.62995   0.32824   0.00000  Uiso   1.00
H475   H     0.79075   0.61966   0.29687   0.00000  Uiso   1.00
H476   H     0.81072   0.66372   0.03794   0.00000  Uiso   1.00
H477   H     0.96390   0.42425   0.31385   0.00000  Uiso   1.00
H478   H     0.83267   0.60900   0.04410   0.00000  Uiso   1.00
H479   H     0.77685   0.58144   0.09638   0.00000  Uiso   1.00
H480   H     0.74919   0.62916   0.08613   0.00000  Uiso   1.00
H481   H     0.74666   0.50748   0.03158   0.00000  Uiso   1.00
H482   H     0.69209   0.42268   0.08988   0.00000  Uiso   1.00
H483   H     0.68473   0.36464   0.06859   0.00000  Uiso   1.00
H484   H     0.99461   0.38193   0.12270   0.00000  Uiso   1.00
H485   H     0.72354   0.33573   0.14496   0.00000  Uiso   1.00
H486   H     0.72966   0.39154   0.16902   0.00000  Uiso   1.00
N487   N     0.83333   0.61736   0.16667   0.00000  Uiso   1.00
N488   N     0.83333   0.38264   0.16667   0.00000  Uiso   1.00
O489   O     0.77321   0.53958   0.16666   0.00000  Uiso   1.00
O490   O     0.72626   0.42246   0.26239   0.00000  Uiso   1.00
O491   O     0.93510   0.57496   0.08483   0.00000  Uiso   1.00
O492   O     0.94046   0.51018   0.04153   0.00000  Uiso   1.00
O493   O     0.93347   0.48789   0.26889   0.00000  Uiso   1.00
O494   O     0.97792   0.42983   0.28236   0.00000  Uiso   1.00
O495   O     0.69435   0.55881   0.05160   0.00000  Uiso   1.00
O496   O     0.73444   0.49645   0.06260   0.00000  Uiso   1.00
O497   O     0.89345   0.46042   0.16667   0.00000  Uiso   1.00
O498   O     0.89345   0.53958   0.16667   0.00000  Uiso   1.00
O499   O     0.77321   0.46042   0.16666   0.00000  Uiso   1.00
O500   O     0.83333   0.53959   0.09613   0.00000  Uiso   1.00
O501   O     0.83333   0.46041   0.23720   0.00000  Uiso   1.00
O502   O     0.83333   0.53959   0.23720   0.00000  Uiso   1.00
O503   O     0.83333   0.46041   0.09613   0.00000  Uiso   1.00
O504   O     0.73639   0.49847   0.27694   0.00000  Uiso   1.00
C505   C     0.08767   0.83269   0.16551   0.00000  Uiso   1.00
C506   C     0.01836   0.84806   0.12362   0.00000  Uiso   1.00
C507   C     0.29063   0.83525   0.16847   0.00000  Uiso   1.00
C508   C     0.04273   0.83112   0.16505   0.00000  Uiso   1.00
C509   C     0.13798   0.69088   0.13626   0.00000  Uiso   1.00
C510   C     0.19728   0.97671   0.19346   0.00000  Uiso   1.00
C511   C     0.19303   0.69145   0.19912   0.00000  Uiso   1.00
C512   C     0.13946   0.97492   0.13441   0.00000  Uiso   1.00
C513   C     0.05226   0.80189   0.25152   0.00000  Uiso   1.00
C514   C     0.28238   0.87003   0.08339   0.00000  Uiso   1.00
C515   C     0.29585   0.80087   0.25500   0.00000  Uiso   1.00
C516   C     0.24569   0.83394   0.16774   0.00000  Uiso   1.00
C517   C     0.03778   0.85872   0.07708   0.00000  Uiso   1.00
C518   C     0.10109   0.71385   0.10785   0.00000  Uiso   1.00
C519   C     0.06105   0.70566   0.13428   0.00000  Uiso   1.00
C520   C     0.02247   0.71968   0.10174   0.00000  Uiso   1.00
C521   C     0.24195   0.96111   0.20190   0.00000  Uiso   1.00
C522   C     0.25237   0.93639   0.25164   0.00000  Uiso   1.00
C523   C     0.29925   0.93169   0.26253   0.00000  Uiso   1.00
C524   C     0.21552   0.71349   0.24463   0.00000  Uiso   1.00
C525   C     0.19070   0.70544   0.28978   0.00000  Uiso   1.00
C526   C     0.21404   0.72508   0.00295   0.00000  Uiso   1.00
C527   C     0.16677   0.83364   0.07377   0.00000  Uiso   1.00
C528   C     0.11501   0.95133   0.09087   0.00000  Uiso   1.00
C529   C     0.13619   0.96024   0.04276   0.00000  Uiso   1.00
C530   C     0.10833   0.94510   0.33077   0.00000  Uiso   1.00
C531   C     0.16683   0.83306   0.25959   0.00000  Uiso   1.00
C532   C     0.16679   0.83380   0.02189   0.00000  Uiso   1.00
C533   C     0.16679   0.83303   0.31146   0.00000  Uiso   1.00
C534   C     0.02480   0.81511   0.20750   0.00000  Uiso   1.00
C535   C     0.30880   0.85180   0.12615   0.00000  Uiso   1.00
C536   C     0.31494   0.81644   0.20935   0.00000  Uiso   1.00
Cu537  Cu    0.16667   0.88022   0.16667   0.00000  Uiso   1.00
Cu538  Cu    0.16667   0.78645   0.16667   0.00000  Uiso   1.00
H539   H     0.07953   0.75145   0.29292   0.00000  Uiso   1.00
H540   H     0.10657   0.75019   0.10059   0.00000  Uiso   1.00
H541   H     0.09577   0.70162   0.06965   0.00000  Uiso   1.00
H542   H     0.31235   0.91396   0.23207   0.00000  Uiso   1.00
H543   H     0.31480   0.96599   0.26709   0.00000  Uiso   1.00
H544   H     0.30578   0.91151   0.29718   0.00000  Uiso   1.00
H545   H     0.24075   0.95547   0.28206   0.00000  Uiso   1.00
H546   H     0.23750   0.90196   0.25174   0.00000  Uiso   1.00
H547   H     0.25116   0.94329   0.16979   0.00000  Uiso   1.00
H548   H     0.26394   0.99089   0.19926   0.00000  Uiso   1.00
H549   H     0.24241   0.70541   0.01337   0.00000  Uiso   1.00
H550   H     0.25516   0.85976   0.01533   0.00000  Uiso   1.00
H551   H     0.22311   0.76153   0.33024   0.00000  Uiso   1.00
H552   H     0.19398   0.72292   0.03395   0.00000  Uiso   1.00
H553   H     0.15972   0.72089   0.28358   0.00000  Uiso   1.00
H554   H     0.18539   0.66817   0.29588   0.00000  Uiso   1.00
H555   H     0.24686   0.70028   0.25423   0.00000  Uiso   1.00
H556   H     0.22239   0.74974   0.23849   0.00000  Uiso   1.00
H557   H     0.10188   0.90778   0.33250   0.00000  Uiso   1.00
H558   H     0.07856   0.96329   0.32824   0.00000  Uiso   1.00
H559   H     0.12409   0.95299   0.29687   0.00000  Uiso   1.00
H560   H     0.14405   0.99705   0.03794   0.00000  Uiso   1.00
H561   H     0.29724   0.75758   0.31385   0.00000  Uiso   1.00
H562   H     0.16600   0.94233   0.04410   0.00000  Uiso   1.00
H563   H     0.11018   0.91478   0.09638   0.00000  Uiso   1.00
H564   H     0.08253   0.96249   0.08613   0.00000  Uiso   1.00
H565   H     0.07999   0.84081   0.03158   0.00000  Uiso   1.00
H566   H     0.02543   0.75601   0.08988   0.00000  Uiso   1.00
H567   H     0.01806   0.69798   0.06859   0.00000  Uiso   1.00
H568   H     0.32794   0.71526   0.12270   0.00000  Uiso   1.00
H569   H     0.05687   0.66906   0.14496   0.00000  Uiso   1.00
H570   H     0.06300   0.72488   0.16902   0.00000  Uiso   1.00
N571   N     0.16667   0.95069   0.16667   0.00000  Uiso   1.00
N572   N     0.16667   0.71598   0.16667   0.00000  Uiso   1.00
O573   O     0.10655   0.87291   0.16666   0.00000  Uiso   1.00
O574   O     0.05959   0.75579   0.26239   0.00000  Uiso   1.00
O575   O     0.26844   0.90829   0.08483   0.00000  Uiso   1.00
O576   O     0.27380   0.84351   0.04153   0.00000  Uiso   1.00
O577   O     0.26680   0.82123   0.26889   0.00000  Uiso   1.00
O578   O     0.31125   0.76317   0.28236   0.00000  Uiso   1.00
O579   O     0.02768   0.89215   0.05160   0.00000  Uiso   1.00
O580   O     0.06777   0.82978   0.06260   0.00000  Uiso   1.00
O581   O     0.22679   0.79375   0.16667   0.00000  Uiso   1.00
O582   O     0.22679   0.87291   0.16667   0.00000  Uiso   1.00
O583   O     0.10655   0.79375   0.16666   0.00000  Uiso   1.00
O584   O     0.16667   0.87292   0.09613   0.00000  Uiso   1.00
O585   O     0.16667   0.79375   0.23720   0.00000  Uiso   1.00
O586   O     0.16667   0.87292   0.23720   0.00000  Uiso   1.00
O587   O     0.16667   0.79375   0.09613   0.00000  Uiso   1.00
O588   O     0.06973   0.83180   0.27694   0.00000  Uiso   1.00
C589   C     0.42100   0.83269   0.16551   0.00000  Uiso   1.00
C590   C     0.35170   0.84806   0.12362   0.00000  Uiso   1.00
C591   C     0.62396   0.83525   0.16847   0.00000  Uiso   1.00
C592   C     0.37607   0.83112   0.16505   0.00000  Uiso   1.00
C593   C     0.47131   0.69088   0.13626   0.00000  Uiso   1.00
C594   C     0.53062   0.97671   0.19346   0.00000  Uiso   1.00
C595   C     0.52636   0.69145   0.19912   0.00000  Uiso   1.00
C596   C     0.47279   0.97492   0.13441   0.00000  Uiso   1.00
C597   C     0.38559   0.80189   0.25152   0.00000  Uiso   1.00
C598   C     0.61571   0.87003   0.08339   0.00000  Uiso   1.00
C599   C     0.62919   0.80087   0.25500   0.00000  Uiso   1.00
C600   C     0.57902   0.83394   0.16774   0.00000  Uiso   1.00
C601   C     0.37111   0.85872   0.07708   0.00000  Uiso   1.00
C602   C     0.43443   0.71385   0.10785   0.00000  Uiso   1.00
C603   C     0.39438   0.70566   0.13428   0.00000  Uiso   1.00
C604   C     0.35580   0.71968   0.10174   0.00000  Uiso   1.00
C605   C     0.57528   0.96111   0.20190   0.00000  Uiso   1.00
C606   C     0.58571   0.93639   0.25164   0.00000  Uiso   1.00
C607   C     0.63259   0.93169   0.26253   0.00000  Uiso   1.00
C608   C     0.54885   0.71349   0.24463   0.00000  Uiso   1.00
C609   C     0.52403   0.70544   0.28978   0.00000  Uiso   1.00
C610   C     0.54737   0.72508   0.00295   0.00000  Uiso   1.00
C611   C     0.50010   0.83364   0.07377   0.00000  Uiso   1.00
C612   C     0.44834   0.95133   0.09087   0.00000  Uiso   1.00
C613   C     0.46953   0.96024   0.04276   0.00000  Uiso   1.00
C614   C     0.44166   0.94510   0.33077   0.00000  Uiso   1.00
C615   C     0.50016   0.83306   0.25959   0.00000  Uiso   1.00
C616   C     0.50012   0.83380   0.02189   0.00000  Uiso   1.00
C617   C     0.50012   0.83303   0.31146   0.00000  Uiso   1.00
C618   C     0.35813   0.81511   0.20750   0.00000  Uiso   1.00
C619   C     0.64213   0.85180   0.12615   0.00000  Uiso   1.00
C620   C     0.64827   0.81644   0.20935   0.00000  Uiso   1.00
Cu621  Cu    0.50000   0.88022   0.16667   0.00000  Uiso   1.00
Cu622  Cu    0.50000   0.78645   0.16667   0.00000  Uiso   1.00
H623   H     0.41286   0.75145   0.29292   0.00000  Uiso   1.00
H624   H     0.43990   0.75019   0.10059   0.00000  Uiso   1.00
H625   H     0.42911   0.70162   0.06965   0.00000  Uiso   1.00
H626   H     0.64568   0.91396   0.23207   0.00000  Uiso   1.00
H627   H     0.64813   0.96599   0.26709   0.00000  Uiso   1.00
H628   H     0.63911   0.91151   0.29718   0.00000  Uiso   1.00
H629   H     0.57408   0.95547   0.28206   0.00000  Uiso   1.00
H630   H     0.57084   0.90196   0.25174   0.00000  Uiso   1.00
H631   H     0.58449   0.94329   0.16979   0.00000  Uiso   1.00
H632   H     0.59728   0.99089   0.19926   0.00000  Uiso   1.00
H633   H     0.57574   0.70541   0.01337   0.00000  Uiso   1.00
H634   H     0.58849   0.85976   0.01533   0.00000  Uiso   1.00
H635   H     0.55644   0.76153   0.33024   0.00000  Uiso   1.00
H636   H     0.52732   0.72292   0.03395   0.00000  Uiso   1.00
H637   H     0.49306   0.72089   0.28358   0.00000  Uiso   1.00
H638   H     0.51872   0.66817   0.29588   0.00000  Uiso   1.00
H639   H     0.58019   0.70028   0.25423   0.00000  Uiso   1.00
H640   H     0.55572   0.74974   0.23849   0.00000  Uiso   1.00
H641   H     0.43521   0.90778   0.33250   0.00000  Uiso   1.00
H642   H     0.41189   0.96329   0.32824   0.00000  Uiso   1.00
H643   H     0.45742   0.95299   0.29687   0.00000  Uiso   1.00
H644   H     0.47738   0.99705   0.03794   0.00000  Uiso   1.00
H645   H     0.63057   0.75758   0.31385   0.00000  Uiso   1.00
H646   H     0.49933   0.94233   0.04410   0.00000  Uiso   1.00
H647   H     0.44352   0.91478   0.09638   0.00000  Uiso   1.00
H648   H     0.41586   0.96249   0.08613   0.00000  Uiso   1.00
H649   H     0.41333   0.84081   0.03158   0.00000  Uiso   1.00
H650   H     0.35876   0.75601   0.08988   0.00000  Uiso   1.00
H651   H     0.35139   0.69798   0.06859   0.00000  Uiso   1.00
H652   H     0.66128   0.71526   0.12270   0.00000  Uiso   1.00
H653   H     0.39021   0.66906   0.14496   0.00000  Uiso   1.00
H654   H     0.39633   0.72488   0.16902   0.00000  Uiso   1.00
N655   N     0.50000   0.95069   0.16667   0.00000  Uiso   1.00
N656   N     0.50000   0.71598   0.16667   0.00000  Uiso   1.00
O657   O     0.43988   0.87291   0.16666   0.00000  Uiso   1.00
O658   O     0.39292   0.75579   0.26239   0.00000  Uiso   1.00
O659   O     0.60177   0.90829   0.08483   0.00000  Uiso   1.00
O660   O     0.60713   0.84351   0.04153   0.00000  Uiso   1.00
O661   O     0.60013   0.82123   0.26889   0.00000  Uiso   1.00
O662   O     0.64459   0.76317   0.28236   0.00000  Uiso   1.00
O663   O     0.36102   0.89215   0.05160   0.00000  Uiso   1.00
O664   O     0.40110   0.82978   0.06260   0.00000  Uiso   1.00
O665   O     0.56012   0.79375   0.16667   0.00000  Uiso   1.00
O666   O     0.56012   0.87291   0.16667   0.00000  Uiso   1.00
O667   O     0.43988   0.79375   0.16666   0.00000  Uiso   1.00
O668   O     0.50000   0.87292   0.09613   0.00000  Uiso   1.00
O669   O     0.50000   0.79375   0.23720   0.00000  Uiso   1.00
O670   O     0.50000   0.87292   0.23720   0.00000  Uiso   1.00
O671   O     0.50000   0.79375   0.09613   0.00000  Uiso   1.00
O672   O     0.40306   0.83180   0.27694   0.00000  Uiso   1.00
C673   C     0.75434   0.83269   0.16551   0.00000  Uiso   1.00
C674   C     0.68503   0.84806   0.12362   0.00000  Uiso   1.00
C675   C     0.95729   0.83525   0.16847   0.00000  Uiso   1.00
C676   C     0.70940   0.83112   0.16505   0.00000  Uiso   1.00
C677   C     0.80465   0.69088   0.13626   0.00000  Uiso   1.00
C678   C     0.86395   0.97671   0.19346   0.00000  Uiso   1.00
C679   C     0.85969   0.69145   0.19912   0.00000  Uiso   1.00
C680   C     0.80612   0.97492   0.13441   0.00000  Uiso   1.00
C681   C     0.71893   0.80189   0.25152   0.00000  Uiso   1.00
C682   C     0.94905   0.87003   0.08339   0.00000  Uiso   1.00
C683   C     0.96252   0.80087   0.25500   0.00000  Uiso   1.00
C684   C     0.91235   0.83394   0.16774   0.00000  Uiso   1.00
C685   C     0.70444   0.85872   0.07708   0.00000  Uiso   1.00
C686   C     0.76776   0.71385   0.10785   0.00000  Uiso   1.00
C687   C     0.72772   0.70566   0.13428   0.00000  Uiso   1.00
C688   C     0.68913   0.71968   0.10174   0.00000  Uiso   1.00
C689   C     0.90862   0.96111   0.20190   0.00000  Uiso   1.00
C690   C     0.91904   0.93639   0.25164   0.00000  Uiso   1.00
C691   C     0.96592   0.93169   0.26253   0.00000  Uiso   1.00
C692   C     0.88218   0.71349   0.24463   0.00000  Uiso   1.00
C693   C     0.85737   0.70544   0.28978   0.00000  Uiso   1.00
C694   C     0.88071   0.72508   0.00295   0.00000  Uiso   1.00
C695   C     0.83344   0.83364   0.07377   0.00000  Uiso   1.00
C696   C     0.78168   0.95133   0.09087   0.00000  Uiso   1.00
C697   C     0.80286   0.96024   0.04276   0.00000  Uiso   1.00
C698   C     0.77500   0.94510   0.33077   0.00000  Uiso   1.00
C699   C     0.83350   0.83306   0.25959   0.00000  Uiso   1.00
C700   C     0.83346   0.83380   0.02189   0.00000  Uiso   1.00
C701   C     0.83346   0.83303   0.31146   0.00000  Uiso   1.00
C702   C     0.69146   0.81511   0.20750   0.00000  Uiso   1.00
C703   C     0.97547   0.85180   0.12615   0.00000  Uiso   1.00
C704   C     0.98160   0.81644   0.20935   0.00000  Uiso   1.00
Cu705  Cu    0.83333   0.88022   0.16667   0.00000  Uiso   1.00
Cu706  Cu    0.83333   0.78645   0.16667   0.00000  Uiso   1.00
H707   H     0.74620   0.75145   0.29292   0.00000  Uiso   1.00
H708   H     0.77324   0.75019   0.10059   0.00000  Uiso   1.00
H709   H     0.76244   0.70162   0.06965   0.00000  Uiso   1.00
H710   H     0.97901   0.91396   0.23207   0.00000  Uiso   1.00
H711   H     0.98147   0.96599   0.26709   0.00000  Uiso   1.00
H712   H     0.97245   0.91151   0.29718   0.00000  Uiso   1.00
H713   H     0.90742   0.95547   0.28206   0.00000  Uiso   1.00
H714   H     0.90417   0.90196   0.25174   0.00000  Uiso   1.00
H715   H     0.91782   0.94329   0.16979   0.00000  Uiso   1.00
H716   H     0.93061   0.99089   0.19926   0.00000  Uiso   1.00
H717   H     0.90907   0.70541   0.01337   0.00000  Uiso   1.00
H718   H     0.92182   0.85976   0.01533   0.00000  Uiso   1.00
H719   H     0.88978   0.76153   0.33024   0.00000  Uiso   1.00
H720   H     0.86065   0.72292   0.03395   0.00000  Uiso   1.00
H721   H     0.82639   0.72089   0.28358   0.00000  Uiso   1.00
H722   H     0.85206   0.66817   0.29588   0.00000  Uiso   1.00
H723   H     0.91352   0.70028   0.25423   0.00000  Uiso   1.00
H724   H     0.88905   0.74974   0.23849   0.00000  Uiso   1.00
H725   H     0.76854   0.90778   0.33250   0.00000  Uiso   1.00
H726   H     0.74522   0.96329   0.32824   0.00000  Uiso   1.00
H727   H     0.79075   0.95299   0.29687   0.00000  Uiso   1.00
H728   H     0.81072   0.99705   0.03794   0.00000  Uiso   1.00
H729   H     0.96390   0.75758   0.31385   0.00000  Uiso   1.00
H730   H     0.83267   0.94233   0.04410   0.00000  Uiso   1.00
H731   H     0.77685   0.91478   0.09638   0.00000  Uiso   1.00
H732   H     0.74919   0.96249   0.08613   0.00000  Uiso   1.00
H733   H     0.74666   0.84081   0.03158   0.00000  Uiso   1.00
H734   H     0.69209   0.75601   0.08988   0.00000  Uiso   1.00
H735   H     0.68473   0.69798   0.06859   0.00000  Uiso   1.00
H736   H     0.99461   0.71526   0.12270   0.00000  Uiso   1.00
H737   H     0.72354   0.66906   0.14496   0.00000  Uiso   1.00
H738   H     0.72966   0.72488   0.16902   0.00000  Uiso   1.00
N739   N     0.83333   0.95069   0.16667   0.00000  Uiso   1.00
N740   N     0.83333   0.71598   0.16667   0.00000  Uiso   1.00
O741   O     0.77321   0.87291   0.16666   0.00000  Uiso   1.00
O742   O     0.72626   0.75579   0.26239   0.00000  Uiso   1.00
O743   O     0.93510   0.90829   0.08483   0.00000  Uiso   1.00
O744   O     0.94046   0.84351   0.04153   0.00000  Uiso   1.00
O745   O     0.93347   0.82123   0.26889   0.00000  Uiso   1.00
O746   O     0.97792   0.76317   0.28236   0.00000  Uiso   1.00
O747   O     0.69435   0.89215   0.05160   0.00000  Uiso   1.00
O748   O     0.73444   0.82978   0.06260   0.00000  Uiso   1.00
O749   O     0.89345   0.79375   0.16667   0.00000  Uiso   1.00
O750   O     0.89345   0.87291   0.16667   0.00000  Uiso   1.00
O751   O     0.77321   0.79375   0.16666   0.00000  Uiso   1.00
O752   O     0.83333   0.87292   0.09613   0.00000  Uiso   1.00
O753   O     0.83333   0.79375   0.23720   0.00000  Uiso   1.00
O754   O     0.83333   0.87292   0.23720   0.00000  Uiso   1.00
O755   O     0.83333   0.79375   0.09613   0.00000  Uiso   1.00
O756   O     0.73639   0.83180   0.27694   0.00000  Uiso   1.00
C757   C     0.08767   0.16602   0.49884   0.00000  Uiso   1.00
C758   C     0.01836   0.18139   0.45696   0.00000  Uiso   1.00
C759   C     0.29063   0.16859   0.50180   0.00000  Uiso   1.00
C760   C     0.04273   0.16445   0.49839   0.00000  Uiso   1.00
C761   C     0.13798   0.02421   0.46960   0.00000  Uiso   1.00
C762   C     0.19728   0.31004   0.52679   0.00000  Uiso   1.00
C763   C     0.19303   0.02479   0.53245   0.00000  Uiso   1.00
C764   C     0.13946   0.30825   0.46774   0.00000  Uiso   1.00
C765   C     0.05226   0.13522   0.58485   0.00000  Uiso   1.00
C766   C     0.28238   0.20337   0.41672   0.00000  Uiso   1.00
C767   C     0.29585   0.13420   0.58833   0.00000  Uiso   1.00
C768   C     0.24569   0.16728   0.50107   0.00000  Uiso   1.00
C769   C     0.03778   0.19205   0.41042   0.00000  Uiso   1.00
C770   C     0.10109   0.04718   0.44118   0.00000  Uiso   1.00
C771   C     0.06105   0.03899   0.46761   0.00000  Uiso   1.00
C772   C     0.02247   0.05302   0.43507   0.00000  Uiso   1.00
C773   C     0.24195   0.29444   0.53523   0.00000  Uiso   1.00
C774   C     0.25237   0.26972   0.58498   0.00000  Uiso   1.00
C775   C     0.29925   0.26502   0.59587   0.00000  Uiso   1.00
C776   C     0.21552   0.04683   0.57796   0.00000  Uiso   1.00
C777   C     0.19070   0.03877   0.62311   0.00000  Uiso   1.00
C778   C     0.21404   0.05841   0.33628   0.00000  Uiso   1.00
C779   C     0.16677   0.16697   0.40710   0.00000  Uiso   1.00
C780   C     0.11501   0.28467   0.42421   0.00000  Uiso   1.00
C781   C     0.13619   0.29357   0.37609   0.00000  Uiso   1.00
C782   C     0.10833   0.27843   0.66410   0.00000  Uiso   1.00
C783   C     0.16683   0.16640   0.59292   0.00000  Uiso   1.00
C784   C     0.16679   0.16713   0.35523   0.00000  Uiso   1.00
C785   C     0.16679   0.16637   0.64479   0.00000  Uiso   1.00
C786   C     0.02480   0.14844   0.54084   0.00000  Uiso   1.00
C787   C     0.30880   0.18514   0.45949   0.00000  Uiso   1.00
C788   C     0.31494   0.14977   0.54268   0.00000  Uiso   1.00
Cu789  Cu    0.16667   0.21355   0.50000   0.00000  Uiso   1.00
Cu790  Cu    0.16667   0.11978   0.50000   0.00000  Uiso   1.00
H791   H     0.07953   0.08478   0.62625   0.00000  Uiso   1.00
H792   H     0.10657   0.08352   0.43392   0.00000  Uiso   1.00
H793   H     0.09577   0.03495   0.40299   0.00000  Uiso   1.00
H794   H     0.31235   0.24729   0.56540   0.00000  Uiso   1.00
H795   H     0.31480   0.29932   0.60042   0.00000  Uiso   1.00
H796   H     0.30578   0.24485   0.63051   0.00000  Uiso   1.00
H797   H     0.24075   0.28880   0.61539   0.00000  Uiso   1.00
H798   H     0.23750   0.23530   0.58507   0.00000  Uiso   1.00
H799   H     0.25116   0.27662   0.50312   0.00000  Uiso   1.00
H800   H     0.26394   0.32422   0.53259   0.00000  Uiso   1.00
H801   H     0.24241   0.03874   0.34671   0.00000  Uiso   1.00
H802   H     0.25516   0.19309   0.34866   0.00000  Uiso   1.00
H803   H     0.22311   0.09486   0.66357   0.00000  Uiso   1.00
H804   H     0.19398   0.05625   0.36729   0.00000  Uiso   1.00
H805   H     0.15972   0.05423   0.61691   0.00000  Uiso   1.00
H806   H     0.18539   0.00151   0.62922   0.00000  Uiso   1.00
H807   H     0.24686   0.03361   0.58756   0.00000  Uiso   1.00
H808   H     0.22239   0.08308   0.57183   0.00000  Uiso   1.00
H809   H     0.10188   0.24112   0.66584   0.00000  Uiso   1.00
H810   H     0.07856   0.29662   0.66158   0.00000  Uiso   1.00
H811   H     0.12409   0.28632   0.63021   0.00000  Uiso   1.00
H812   H     0.14405   0.33039   0.37127   0.00000  Uiso   1.00
H813   H     0.29724   0.09092   0.64718   0.00000  Uiso   1.00
H814   H     0.16600   0.27566   0.37743   0.00000  Uiso   1.00
H815   H     0.11018   0.24811   0.42972   0.00000  Uiso   1.00
H816   H     0.08253   0.29582   0.41946   0.00000  Uiso   1.00
H817   H     0.07999   0.17414   0.36492   0.00000  Uiso   1.00
H818   H     0.02543   0.08935   0.42322   0.00000  Uiso   1.00
H819   H     0.01806   0.03131   0.40192   0.00000  Uiso   1.00
H820   H     0.32794   0.04859   0.45604   0.00000  Uiso   1.00
H821   H     0.05687   0.00239   0.47830   0.00000  Uiso   1.00
H822   H     0.06300   0.05821   0.50236   0.00000  Uiso   1.00
N823   N     0.16667   0.28402   0.50000   0.00000  Uiso   1.00
N824   N     0.16667   0.04931   0.50000   0.00000  Uiso   1.00
O825   O     0.10655   0.20625   0.50000   0.00000  Uiso   1.00
O826   O     0.05959   0.08912   0.59573   0.00000  Uiso   1.00
O827   O     0.26844   0.24163   0.41816   0.00000  Uiso   1.00
O828   O     0.27380   0.17685   0.37487   0.00000  Uiso   1.00
O829   O     0.26680   0.15456   0.60222   0.00000  Uiso   1.00
O830   O     0.31125   0.09650   0.61569   0.00000  Uiso   1.00
O831   O     0.02768   0.22548   0.38493   0.00000  Uiso   1.00
O832   O     0.06777   0.16312   0.39593   0.00000  Uiso   1.00
O833   O     0.22679   0.12709   0.50000   0.00000  Uiso   1.00
O834   O     0.22679   0.20625   0.50000   0.00000  Uiso   1.00
O835   O     0.10655   0.12709   0.50000   0.00000  Uiso   1.00
O836   O     0.16667   0.20625   0.42946   0.00000  Uiso   1.00
O837   O     0.16667   0.12708   0.57054   0.00000  Uiso   1.00
O838   O     0.16667   0.20625   0.57054   0.00000  Uiso   1.00
O839   O     0.16667   0.12708   0.42946   0.00000  Uiso   1.00
O840   O     0.06973   0.16514   0.61027   0.00000  Uiso   1.00
C841   C     0.42100   0.16602   0.49884   0.00000  Uiso   1.00
C842   C     0.35170   0.18139   0.45696   0.00000  Uiso   1.00
C843   C     0.62396   0.16859   0.50180   0.00000  Uiso   1.00
C844   C     0.37607   0.16445   0.49839   0.00000  Uiso   1.00
C845   C     0.47131   0.02421   0.46960   0.00000  Uiso   1.00
C846   C     0.53062   0.31004   0.52679   0.00000  Uiso   1.00
C847   C     0.52636   0.02479   0.53245   0.00000  Uiso   1.00
C848   C     0.47279   0.30825   0.46774   0.00000  Uiso   1.00
C849   C     0.38559   0.13522   0.58485   0.00000  Uiso   1.00
C850   C     0.61571   0.20337   0.41672   0.00000  Uiso   1.00
C851   C     0.62919   0.13420   0.58833   0.00000  Uiso   1.00
C852   C     0.57902   0.16728   0.50107   0.00000  Uiso   1.00
C853   C     0.37111   0.19205   0.41042   0.00000  Uiso   1.00
C854   C     0.43443   0.04718   0.44118   0.00000  Uiso   1.00
C855   C     0.39438   0.03899   0.46761   0.00000  Uiso   1.00
C856   C     0.35580   0.05302   0.43507   0.00000  Uiso   1.00
C857   C     0.57528   0.29444   0.53523   0.00000  Uiso   1.00
C858   C     0.58571   0.26972   0.58498   0.00000  Uiso   1.00
C859   C     0.63259   0.26502   0.59587   0.00000  Uiso   1.00
C860   C     0.54885   0.04683   0.57796   0.00000  Uiso   1.00
C861   C     0.52403   0.03877   0.62311   0.00000  Uiso   1.00
C862   C     0.54737   0.05841   0.33628   0.00000  Uiso   1.00
C863   C     0.50010   0.16697   0.40710   0.00000  Uiso   1.00
C864   C     0.44834   0.28467   0.42421   0.00000  Uiso   1.00
C865   C     0.46953   0.29357   0.37609   0.00000  Uiso   1.00
C866   C     0.44166   0.27843   0.66410   0.00000  Uiso   1.00
C867   C     0.50016   0.16640   0.59292   0.00000  Uiso   1.00
C868   C     0.50012   0.16713   0.35523   0.00000  Uiso   1.00
C869   C     0.50012   0.16637   0.64479   0.00000  Uiso   1.00
C870   C     0.35813   0.14844   0.54084   0.00000  Uiso   1.00
C871   C     0.64213   0.18514   0.45949   0.00000  Uiso   1.00
C872   C     0.64827   0.14977   0.54268   0.00000  Uiso   1.00
Cu873  Cu    0.50000   0.21355   0.50000   0.00000  Uiso   1.00
Cu874  Cu    0.50000   0.11978   0.50000   0.00000  Uiso   1.00
H875   H     0.41286   0.08478   0.62625   0.00000  Uiso   1.00
H876   H     0.43990   0.08352   0.43392   0.00000  Uiso   1.00
H877   H     0.42911   0.03495   0.40299   0.00000  Uiso   1.00
H878   H     0.64568   0.24729   0.56540   0.00000  Uiso   1.00
H879   H     0.64813   0.29932   0.60042   0.00000  Uiso   1.00
H880   H     0.63911   0.24485   0.63051   0.00000  Uiso   1.00
H881   H     0.57408   0.28880   0.61539   0.00000  Uiso   1.00
H882   H     0.57084   0.23530   0.58507   0.00000  Uiso   1.00
H883   H     0.58449   0.27662   0.50312   0.00000  Uiso   1.00
H884   H     0.59728   0.32422   0.53259   0.00000  Uiso   1.00
H885   H     0.57574   0.03874   0.34671   0.00000  Uiso   1.00
H886   H     0.58849   0.19309   0.34866   0.00000  Uiso   1.00
H887   H     0.55644   0.09486   0.66357   0.00000  Uiso   1.00
H888   H     0.52732   0.05625   0.36729   0.00000  Uiso   1.00
H889   H     0.49306   0.05423   0.61691   0.00000  Uiso   1.00
H890   H     0.51872   0.00151   0.62922   0.00000  Uiso   1.00
H891   H     0.58019   0.03361   0.58756   0.00000  Uiso   1.00
H892   H     0.55572   0.08308   0.57183   0.00000  Uiso   1.00
H893   H     0.43521   0.24112   0.66584   0.00000  Uiso   1.00
H894   H     0.41189   0.29662   0.66158   0.00000  Uiso   1.00
H895   H     0.45742   0.28632   0.63021   0.00000  Uiso   1.00
H896   H     0.47738   0.33039   0.37127   0.00000  Uiso   1.00
H897   H     0.63057   0.09092   0.64718   0.00000  Uiso   1.00
H898   H     0.49933   0.27566   0.37743   0.00000  Uiso   1.00
H899   H     0.44352   0.24811   0.42972   0.00000  Uiso   1.00
H900   H     0.41586   0.29582   0.41946   0.00000  Uiso   1.00
H901   H     0.41333   0.17414   0.36492   0.00000  Uiso   1.00
H902   H     0.35876   0.08935   0.42322   0.00000  Uiso   1.00
H903   H     0.35139   0.03131   0.40192   0.00000  Uiso   1.00
H904   H     0.66128   0.04859   0.45604   0.00000  Uiso   1.00
H905   H     0.39021   0.00239   0.47830   0.00000  Uiso   1.00
H906   H     0.39633   0.05821   0.50236   0.00000  Uiso   1.00
N907   N     0.50000   0.28402   0.50000   0.00000  Uiso   1.00
N908   N     0.50000   0.04931   0.50000   0.00000  Uiso   1.00
O909   O     0.43988   0.20625   0.50000   0.00000  Uiso   1.00
O910   O     0.39292   0.08912   0.59573   0.00000  Uiso   1.00
O911   O     0.60177   0.24163   0.41816   0.00000  Uiso   1.00
O912   O     0.60713   0.17685   0.37487   0.00000  Uiso   1.00
O913   O     0.60013   0.15456   0.60222   0.00000  Uiso   1.00
O914   O     0.64459   0.09650   0.61569   0.00000  Uiso   1.00
O915   O     0.36102   0.22548   0.38493   0.00000  Uiso   1.00
O916   O     0.40110   0.16312   0.39593   0.00000  Uiso   1.00
O917   O     0.56012   0.12709   0.50000   0.00000  Uiso   1.00
O918   O     0.56012   0.20625   0.50000   0.00000  Uiso   1.00
O919   O     0.43988   0.12709   0.50000   0.00000  Uiso   1.00
O920   O     0.50000   0.20625   0.42946   0.00000  Uiso   1.00
O921   O     0.50000   0.12708   0.57054   0.00000  Uiso   1.00
O922   O     0.50000   0.20625   0.57054   0.00000  Uiso   1.00
O923   O     0.50000   0.12708   0.42946   0.00000  Uiso   1.00
O924   O     0.40306   0.16514   0.61027   0.00000  Uiso   1.00
C925   C     0.75434   0.16602   0.49884   0.00000  Uiso   1.00
C926   C     0.68503   0.18139   0.45696   0.00000  Uiso   1.00
C927   C     0.95729   0.16859   0.50180   0.00000  Uiso   1.00
C928   C     0.70940   0.16445   0.49839   0.00000  Uiso   1.00
C929   C     0.80465   0.02421   0.46960   0.00000  Uiso   1.00
C930   C     0.86395   0.31004   0.52679   0.00000  Uiso   1.00
C931   C     0.85969   0.02479   0.53245   0.00000  Uiso   1.00
C932   C     0.80612   0.30825   0.46774   0.00000  Uiso   1.00
C933   C     0.71893   0.13522   0.58485   0.00000  Uiso   1.00
C934   C     0.94905   0.20337   0.41672   0.00000  Uiso   1.00
C935   C     0.96252   0.13420   0.58833   0.00000  Uiso   1.00
C936   C     0.91235   0.16728   0.50107   0.00000  Uiso   1.00
C937   C     0.70444   0.19205   0.41042   0.00000  Uiso   1.00
C938   C     0.76776   0.04718   0.44118   0.00000  Uiso   1.00
C939   C     0.72772   0.03899   0.46761   0.00000  Uiso   1.00
C940   C     0.68913   0.05302   0.43507   0.00000  Uiso   1.00
C941   C     0.90862   0.29444   0.53523   0.00000  Uiso   1.00
C942   C     0.91904   0.26972   0.58498   0.00000  Uiso   1.00
C943   C     0.96592   0.26502   0.59587   0.00000  Uiso   1.00
C944   C     0.88218   0.04683   0.57796   0.00000  Uiso   1.00
C945   C     0.85737   0.03877   0.62311   0.00000  Uiso   1.00
C946   C     0.88071   0.05841   0.33628   0.00000  Uiso   1.00
C947   C     0.83344   0.16697   0.40710   0.00000  Uiso   1.00
C948   C     0.78168   0.28467   0.42421   0.00000  Uiso   1.00
C949   C     0.80286   0.29357   0.37609   0.00000  Uiso   1.00
C950   C     0.77500   0.27843   0.66410   0.00000  Uiso   1.00
C951   C     0.83350   0.16640   0.59292   0.00000  Uiso   1.00
C952   C     0.83346   0.16713   0.35523   0.00000  Uiso   1.00
C953   C     0.83346   0.16637   0.64479   0.00000  Uiso   1.00
C954   C     0.69146   0.14844   0.54084   0.00000  Uiso   1.00
C955   C     0.97547   0.18514   0.45949   0.00000  Uiso   1.00
C956   C     0.98160   0.14977   0.54268   0.00000  Uiso   1.00
Cu957  Cu    0.83333   0.21355   0.50000   0.00000  Uiso   1.00
Cu958  Cu    0.83333   0.11978   0.50000   0.00000  Uiso   1.00
H959   H     0.74620   0.08478   0.62625   0.00000  Uiso   1.00
H960   H     0.77324   0.08352   0.43392   0.00000  Uiso   1.00
H961   H     0.76244   0.03495   0.40299   0.00000  Uiso   1.00
H962   H     0.97901   0.24729   0.56540   0.00000  Uiso   1.00
H963   H     0.98147   0.29932   0.60042   0.00000  Uiso   1.00
H964   H     0.97245   0.24485   0.63051   0.00000  Uiso   1.00
H965   H     0.90742   0.28880   0.61539   0.00000  Uiso   1.00
H966   H     0.90417   0.23530   0.58507   0.00000  Uiso   1.00
H967   H     0.91782   0.27662   0.50312   0.00000  Uiso   1.00
H968   H     0.93061   0.32422   0.53259   0.00000  Uiso   1.00
H969   H     0.90907   0.03874   0.34671   0.00000  Uiso   1.00
H970   H     0.92182   0.19309   0.34866   0.00000  Uiso   1.00
H971   H     0.88978   0.09486   0.66357   0.00000  Uiso   1.00
H972   H     0.86065   0.05625   0.36729   0.00000  Uiso   1.00
H973   H     0.82639   0.05423   0.61691   0.00000  Uiso   1.00
H974   H     0.85206   0.00151   0.62922   0.00000  Uiso   1.00
H975   H     0.91352   0.03361   0.58756   0.00000  Uiso   1.00
H976   H     0.88905   0.08308   0.57183   0.00000  Uiso   1.00
H977   H     0.76854   0.24112   0.66584   0.00000  Uiso   1.00
H978   H     0.74522   0.29662   0.66158   0.00000  Uiso   1.00
H979   H     0.79075   0.28632   0.63021   0.00000  Uiso   1.00
H980   H     0.81072   0.33039   0.37127   0.00000  Uiso   1.00
H981   H     0.96390   0.09092   0.64718   0.00000  Uiso   1.00
H982   H     0.83267   0.27566   0.37743   0.00000  Uiso   1.00
H983   H     0.77685   0.24811   0.42972   0.00000  Uiso   1.00
H984   H     0.74919   0.29582   0.41946   0.00000  Uiso   1.00
H985   H     0.74666   0.17414   0.36492   0.00000  Uiso   1.00
H986   H     0.69209   0.08935   0.42322   0.00000  Uiso   1.00
H987   H     0.68473   0.03131   0.40192   0.00000  Uiso   1.00
H988   H     0.99461   0.04859   0.45604   0.00000  Uiso   1.00
H989   H     0.72354   0.00239   0.47830   0.00000  Uiso   1.00
H990   H     0.72966   0.05821   0.50236   0.00000  Uiso   1.00
N991   N     0.83333   0.28402   0.50000   0.00000  Uiso   1.00
N992   N     0.83333   0.04931   0.50000   0.00000  Uiso   1.00
O993   O     0.77321   0.20625   0.50000   0.00000  Uiso   1.00
O994   O     0.72626   0.08912   0.59573   0.00000  Uiso   1.00
O995   O     0.93510   0.24163   0.41816   0.00000  Uiso   1.00
O996   O     0.94046   0.17685   0.37487   0.00000  Uiso   1.00
O997   O     0.93347   0.15456   0.60222   0.00000  Uiso   1.00
O998   O     0.97792   0.09650   0.61569   0.00000  Uiso   1.00
O999   O     0.69435   0.22548   0.38493   0.00000  Uiso   1.00
O1000  O     0.73444   0.16312   0.39593   0.00000  Uiso   1.00
O1001  O     0.89345   0.12709   0.50000   0.00000  Uiso   1.00
O1002  O     0.89345   0.20625   0.50000   0.00000  Uiso   1.00
O1003  O     0.77321   0.12709   0.50000   0.00000  Uiso   1.00
O1004  O     0.83333   0.20625   0.42946   0.00000  Uiso   1.00
O1005  O     0.83333   0.12708   0.57054   0.00000  Uiso   1.00
O1006  O     0.83333   0.20625   0.57054   0.00000  Uiso   1.00
O1007  O     0.83333   0.12708   0.42946   0.00000  Uiso   1.00
O1008  O     0.73639   0.16514   0.61027   0.00000  Uiso   1.00
C1009  C     0.08767   0.49935   0.49884   0.00000  Uiso   1.00
C1010  C     0.01836   0.51473   0.45696   0.00000  Uiso   1.00
C1011  C     0.29063   0.50192   0.50180   0.00000  Uiso   1.00
C1012  C     0.04273   0.49778   0.49839   0.00000  Uiso   1.00
C1013  C     0.13798   0.35755   0.46960   0.00000  Uiso   1.00
C1014  C     0.19728   0.64337   0.52679   0.00000  Uiso   1.00
C1015  C     0.19303   0.35812   0.53245   0.00000  Uiso   1.00
C1016  C     0.13946   0.64158   0.46774   0.00000  Uiso   1.00
C1017  C     0.05226   0.46855   0.58485   0.00000  Uiso   1.00
C1018  C     0.28238   0.53670   0.41672   0.00000  Uiso   1.00
C1019  C     0.29585   0.46754   0.58833   0.00000  Uiso   1.00
C1020  C     0.24569   0.50061   0.50107   0.00000  Uiso   1.00
C1021  C     0.03778   0.52539   0.41042   0.00000  Uiso   1.00
C1022  C     0.10109   0.38051   0.44118   0.00000  Uiso   1.00
C1023  C     0.06105   0.37232   0.46761   0.00000  Uiso   1.00
C1024  C     0.02247   0.38635   0.43507   0.00000  Uiso   1.00
C1025  C     0.24195   0.62777   0.53523   0.00000  Uiso   1.00
C1026  C     0.25237   0.60305   0.58498   0.00000  Uiso   1.00
C1027  C     0.29925   0.59835   0.59587   0.00000  Uiso   1.00
C1028  C     0.21552   0.38016   0.57796   0.00000  Uiso   1.00
C1029  C     0.19070   0.37211   0.62311   0.00000  Uiso   1.00
C1030  C     0.21404   0.39175   0.33628   0.00000  Uiso   1.00
C1031  C     0.16677   0.50030   0.40710   0.00000  Uiso   1.00
C1032  C     0.11501   0.61800   0.42421   0.00000  Uiso   1.00
C1033  C     0.13619   0.62690   0.37609   0.00000  Uiso   1.00
C1034  C     0.10833   0.61176   0.66410   0.00000  Uiso   1.00
C1035  C     0.16683   0.49973   0.59292   0.00000  Uiso   1.00
C1036  C     0.16679   0.50047   0.35523   0.00000  Uiso   1.00
C1037  C     0.16679   0.49970   0.64479   0.00000  Uiso   1.00
C1038  C     0.02480   0.48177   0.54084   0.00000  Uiso   1.00
C1039  C     0.30880   0.51847   0.45949   0.00000  Uiso   1.00
C1040  C     0.31494   0.48310   0.54268   0.00000  Uiso   1.00
Cu1041 Cu    0.16667   0.54689   0.50000   0.00000  Uiso   1.00
Cu1042 Cu    0.16667   0.45311   0.50000   0.00000  Uiso   1.00
H1043  H     0.07953   0.41812   0.62625   0.00000  Uiso   1.00
H1044  H     0.10657   0.41685   0.43392   0.00000  Uiso   1.00
H1045  H     0.09577   0.36829   0.40299   0.00000  Uiso   1.00
H1046  H     0.31235   0.58063   0.56540   0.00000  Uiso   1.00
H1047  H     0.31480   0.63265   0.60042   0.00000  Uiso   1.00
H1048  H     0.30578   0.57818   0.63051   0.00000  Uiso   1.00
H1049  H     0.24075   0.62214   0.61539   0.00000  Uiso   1.00
H1050  H     0.23750   0.56863   0.58507   0.00000  Uiso   1.00
H1051  H     0.25116   0.60995   0.50312   0.00000  Uiso   1.00
H1052  H     0.26394   0.65755   0.53259   0.00000  Uiso   1.00
H1053  H     0.24241   0.37207   0.34671   0.00000  Uiso   1.00
H1054  H     0.25516   0.52643   0.34866   0.00000  Uiso   1.00
H1055  H     0.22311   0.42819   0.66357   0.00000  Uiso   1.00
H1056  H     0.19398   0.38959   0.36729   0.00000  Uiso   1.00
H1057  H     0.15972   0.38756   0.61691   0.00000  Uiso   1.00
H1058  H     0.18539   0.33484   0.62922   0.00000  Uiso   1.00
H1059  H     0.24686   0.36694   0.58756   0.00000  Uiso   1.00
H1060  H     0.22239   0.41641   0.57183   0.00000  Uiso   1.00
H1061  H     0.10188   0.57445   0.66584   0.00000  Uiso   1.00
H1062  H     0.07856   0.62995   0.66158   0.00000  Uiso   1.00
H1063  H     0.12409   0.61966   0.63021   0.00000  Uiso   1.00
H1064  H     0.14405   0.66372   0.37127   0.00000  Uiso   1.00
H1065  H     0.29724   0.42425   0.64718   0.00000  Uiso   1.00
H1066  H     0.16600   0.60900   0.37743   0.00000  Uiso   1.00
H1067  H     0.11018   0.58144   0.42972   0.00000  Uiso   1.00
H1068  H     0.08253   0.62916   0.41946   0.00000  Uiso   1.00
H1069  H     0.07999   0.50748   0.36492   0.00000  Uiso   1.00
H1070  H     0.02543   0.42268   0.42322   0.00000  Uiso   1.00
H1071  H     0.01806   0.36464   0.40192   0.00000  Uiso   1.00
H1072  H     0.32794   0.38193   0.45604   0.00000  Uiso   1.00
H1073  H     0.05687   0.33573   0.47830   0.00000  Uiso   1.00
H1074  H     0.06300   0.39154   0.50236   0.00000  Uiso   1.00
N1075  N     0.16667   0.61736   0.50000   0.00000  Uiso   1.00
N1076  N     0.16667   0.38264   0.50000   0.00000  Uiso   1.00
O1077  O     0.10655   0.53958   0.50000   0.00000  Uiso   1.00
O1078  O     0.05959   0.42246   0.59573   0.00000  Uiso   1.00
O1079  O     0.26844   0.57496   0.41816   0.00000  Uiso   1.00
O1080  O     0.27380   0.51018   0.37487   0.00000  Uiso   1.00
O1081  O     0.26680   0.48789   0.60222   0.00000  Uiso   1.00
O1082  O     0.31125   0.42983   0.61569   0.00000  Uiso   1.00
O1083  O     0.02768   0.55881   0.38493   0.00000  Uiso   1.00
O1084  O     0.06777   0.49645   0.39593   0.00000  Uiso   1.00
O1085  O     0.22679   0.46042   0.50000   0.00000  Uiso   1.00
O1086  O     0.22679   0.53958   0.50000   0.00000  Uiso   1.00
O1087  O     0.10655   0.46042   0.50000   0.00000  Uiso   1.00
O1088  O     0.16667   0.53959   0.42946   0.00000  Uiso   1.00
O1089  O     0.16667   0.46041   0.57054   0.00000  Uiso   1.00
O1090  O     0.16667   0.53959   0.57054   0.00000  Uiso   1.00
O1091  O     0.16667   0.46041   0.42946   0.00000  Uiso   1.00
O1092  O     0.06973   0.49847   0.61027   0.00000  Uiso   1.00
C1093  C     0.42100   0.49935   0.49884   0.00000  Uiso   1.00
C1094  C     0.35170   0.51473   0.45696   0.00000  Uiso   1.00
C1095  C     0.62396   0.50192   0.50180   0.00000  Uiso   1.00
C1096  C     0.37607   0.49778   0.49839   0.00000  Uiso   1.00
C1097  C     0.47131   0.35755   0.46960   0.00000  Uiso   1.00
C1098  C     0.53062   0.64337   0.52679   0.00000  Uiso   1.00
C1099  C     0.52636   0.35812   0.53245   0.00000  Uiso   1.00
C1100  C     0.47279   0.64158   0.46774   0.00000  Uiso   1.00
C1101  C     0.38559   0.46855   0.58485   0.00000  Uiso   1.00
C1102  C     0.61571   0.53670   0.41672   0.00000  Uiso   1.00
C1103  C     0.62919   0.46754   0.58833   0.00000  Uiso   1.00
C1104  C     0.57902   0.50061   0.50107   0.00000  Uiso   1.00
C1105  C     0.37111   0.52539   0.41042   0.00000  Uiso   1.00
C1106  C     0.43443   0.38051   0.44118   0.00000  Uiso   1.00
C1107  C     0.39438   0.37232   0.46761   0.00000  Uiso   1.00
C1108  C     0.35580   0.38635   0.43507   0.00000  Uiso   1.00
C1109  C     0.57528   0.62777   0.53523   0.00000  Uiso   1.00
C1110  C     0.58571   0.60305   0.58498   0.00000  Uiso   1.00
C1111  C     0.63259   0.59835   0.59587   0.00000  Uiso   1.00
C1112  C     0.54885   0.38016   0.57796   0.00000  Uiso   1.00
C1113  C     0.52403   0.37211   0.62311   0.00000  Uiso   1.00
C1114  C     0.54737   0.39175   0.33628   0.00000  Uiso   1.00
C1115  C     0.50010   0.50030   0.40710   0.00000  Uiso   1.00
C1116  C     0.44834   0.61800   0.42421   0.00000  Uiso   1.00
C1117  C     0.46953   0.62690   0.37609   0.00000  Uiso   1.00
C1118  C     0.44166   0.61176   0.66410   0.00000  Uiso   1.00
C1119  C     0.50016   0.49973   0.59292   0.00000  Uiso   1.00
C1120  C     0.50012   0.50047   0.35523   0.00000  Uiso   1.00
C1121  C     0.50012   0.49970   0.64479   0.00000  Uiso   1.00
C1122  C     0.35813   0.48177   0.54084   0.00000  Uiso   1.00
C1123  C     0.64213   0.51847   0.45949   0.00000  Uiso   1.00
C1124  C     0.64827   0.48310   0.54268   0.00000  Uiso   1.00
Cu1125 Cu    0.50000   0.54689   0.50000   0.00000  Uiso   1.00
Cu1126 Cu    0.50000   0.45311   0.50000   0.00000  Uiso   1.00
H1127  H     0.41286   0.41812   0.62625   0.00000  Uiso   1.00
H1128  H     0.43990   0.41685   0.43392   0.00000  Uiso   1.00
H1129  H     0.42911   0.36829   0.40299   0.00000  Uiso   1.00
H1130  H     0.64568   0.58063   0.56540   0.00000  Uiso   1.00
H1131  H     0.64813   0.63265   0.60042   0.00000  Uiso   1.00
H1132  H     0.63911   0.57818   0.63051   0.00000  Uiso   1.00
H1133  H     0.57408   0.62214   0.61539   0.00000  Uiso   1.00
H1134  H     0.57084   0.56863   0.58507   0.00000  Uiso   1.00
H1135  H     0.58449   0.60995   0.50312   0.00000  Uiso   1.00
H1136  H     0.59728   0.65755   0.53259   0.00000  Uiso   1.00
H1137  H     0.57574   0.37207   0.34671   0.00000  Uiso   1.00
H1138  H     0.58849   0.52643   0.34866   0.00000  Uiso   1.00
H1139  H     0.55644   0.42819   0.66357   0.00000  Uiso   1.00
H1140  H     0.52732   0.38959   0.36729   0.00000  Uiso   1.00
H1141  H     0.49306   0.38756   0.61691   0.00000  Uiso   1.00
H1142  H     0.51872   0.33484   0.62922   0.00000  Uiso   1.00
H1143  H     0.58019   0.36694   0.58756   0.00000  Uiso   1.00
H1144  H     0.55572   0.41641   0.57183   0.00000  Uiso   1.00
H1145  H     0.43521   0.57445   0.66584   0.00000  Uiso   1.00
H1146  H     0.41189   0.62995   0.66158   0.00000  Uiso   1.00
H1147  H     0.45742   0.61966   0.63021   0.00000  Uiso   1.00
H1148  H     0.47738   0.66372   0.37127   0.00000  Uiso   1.00
H1149  H     0.63057   0.42425   0.64718   0.00000  Uiso   1.00
H1150  H     0.49933   0.60900   0.37743   0.00000  Uiso   1.00
H1151  H     0.44352   0.58144   0.42972   0.00000  Uiso   1.00
H1152  H     0.41586   0.62916   0.41946   0.00000  Uiso   1.00
H1153  H     0.41333   0.50748   0.36492   0.00000  Uiso   1.00
H1154  H     0.35876   0.42268   0.42322   0.00000  Uiso   1.00
H1155  H     0.35139   0.36464   0.40192   0.00000  Uiso   1.00
H1156  H     0.66128   0.38193   0.45604   0.00000  Uiso   1.00
H1157  H     0.39021   0.33573   0.47830   0.00000  Uiso   1.00
H1158  H     0.39633   0.39154   0.50236   0.00000  Uiso   1.00
N1159  N     0.50000   0.61736   0.50000   0.00000  Uiso   1.00
N1160  N     0.50000   0.38264   0.50000   0.00000  Uiso   1.00
O1161  O     0.43988   0.53958   0.50000   0.00000  Uiso   1.00
O1162  O     0.39292   0.42246   0.59573   0.00000  Uiso   1.00
O1163  O     0.60177   0.57496   0.41816   0.00000  Uiso   1.00
O1164  O     0.60713   0.51018   0.37487   0.00000  Uiso   1.00
O1165  O     0.60013   0.48789   0.60222   0.00000  Uiso   1.00
O1166  O     0.64459   0.42983   0.61569   0.00000  Uiso   1.00
O1167  O     0.36102   0.55881   0.38493   0.00000  Uiso   1.00
O1168  O     0.40110   0.49645   0.39593   0.00000  Uiso   1.00
O1169  O     0.56012   0.46042   0.50000   0.00000  Uiso   1.00
O1170  O     0.56012   0.53958   0.50000   0.00000  Uiso   1.00
O1171  O     0.43988   0.46042   0.50000   0.00000  Uiso   1.00
O1172  O     0.50000   0.53959   0.42946   0.00000  Uiso   1.00
O1173  O     0.50000   0.46041   0.57054   0.00000  Uiso   1.00
O1174  O     0.50000   0.53959   0.57054   0.00000  Uiso   1.00
O1175  O     0.50000   0.46041   0.42946   0.00000  Uiso   1.00
O1176  O     0.40306   0.49847   0.61027   0.00000  Uiso   1.00
C1177  C     0.75434   0.49935   0.49884   0.00000  Uiso   1.00
C1178  C     0.68503   0.51473   0.45696   0.00000  Uiso   1.00
C1179  C     0.95729   0.50192   0.50180   0.00000  Uiso   1.00
C1180  C     0.70940   0.49778   0.49839   0.00000  Uiso   1.00
C1181  C     0.80465   0.35755   0.46960   0.00000  Uiso   1.00
C1182  C     0.86395   0.64337   0.52679   0.00000  Uiso   1.00
C1183  C     0.85969   0.35812   0.53245   0.00000  Uiso   1.00
C1184  C     0.80612   0.64158   0.46774   0.00000  Uiso   1.00
C1185  C     0.71893   0.46855   0.58485   0.00000  Uiso   1.00
C1186  C     0.94905   0.53670   0.41672   0.00000  Uiso   1.00
C1187  C     0.96252   0.46754   0.58833   0.00000  Uiso   1.00
C1188  C     0.91235   0.50061   0.50107   0.00000  Uiso   1.00
C1189  C     0.70444   0.52539   0.41042   0.00000  Uiso   1.00
C1190  C     0.76776   0.38051   0.44118   0.00000  Uiso   1.00
C1191  C     0.72772   0.37232   0.46761   0.00000  Uiso   1.00
C1192  C     0.68913   0.38635   0.43507   0.00000  Uiso   1.00
C1193  C     0.90862   0.62777   0.53523   0.00000  Uiso   1.00
C1194  C     0.91904   0.60305   0.58498   0.00000  Uiso   1.00
C1195  C     0.96592   0.59835   0.59587   0.00000  Uiso   1.00
C1196  C     0.88218   0.38016   0.57796   0.00000  Uiso   1.00
C1197  C     0.85737   0.37211   0.62311   0.00000  Uiso   1.00
C1198  C     0.88071   0.39175   0.33628   0.00000  Uiso   1.00
C1199  C     0.83344   0.50030   0.40710   0.00000  Uiso   1.00
C1200  C     0.78168   0.61800   0.42421   0.00000  Uiso   1.00
C1201  C     0.80286   0.62690   0.37609   0.00000  Uiso   1.00
C1202  C     0.77500   0.61176   0.66410   0.00000  Uiso   1.00
C1203  C     0.83350   0.49973   0.59292   0.00000  Uiso   1.00
C1204  C     0.83346   0.50047   0.35523   0.00000  Uiso   1.00
C1205  C     0.83346   0.49970   0.64479   0.00000  Uiso   1.00
C1206  C     0.69146   0.48177   0.54084   0.00000  Uiso   1.00
C1207  C     0.97547   0.51847   0.45949   0.00000  Uiso   1.00
C1208  C     0.98160   0.48310   0.54268   0.00000  Uiso   1.00
Cu1209 Cu    0.83333   0.54689   0.50000   0.00000  Uiso   1.00
Cu1210 Cu    0.83333   0.45311   0.50000   0.00000  Uiso   1.00
H1211  H     0.74620   0.41812   0.62625   0.00000  Uiso   1.00
H1212  H     0.77324   0.41685   0.43392   0.00000  Uiso   1.00
H1213  H     0.76244   0.36829   0.40299   0.00000  Uiso   1.00
H1214  H     0.97901   0.58063   0.56540   0.00000  Uiso   1.00
H1215  H     0.98147   0.63265   0.60042   0.00000  Uiso   1.00
H1216  H     0.97245   0.57818   0.63051   0.00000  Uiso   1.00
H1217  H     0.90742   0.62214   0.61539   0.00000  Uiso   1.00
H1218  H     0.90417   0.56863   0.58507   0.00000  Uiso   1.00
H1219  H     0.91782   0.60995   0.50312   0.00000  Uiso   1.00
H1220  H     0.93061   0.65755   0.53259   0.00000  Uiso   1.00
H1221  H     0.90907   0.37207   0.34671   0.00000  Uiso   1.00
H1222  H     0.92182   0.52643   0.34866   0.00000  Uiso   1.00
H1223  H     0.88978   0.42819   0.66357   0.00000  Uiso   1.00
H1224  H     0.86065   0.38959   0.36729   0.00000  Uiso   1.00
H1225  H     0.82639   0.38756   0.61691   0.00000  Uiso   1.00
H1226  H     0.85206   0.33484   0.62922   0.00000  Uiso   1.00
H1227  H     0.91352   0.36694   0.58756   0.00000  Uiso   1.00
H1228  H     0.88905   0.41641   0.57183   0.00000  Uiso   1.00
H1229  H     0.76854   0.57445   0.66584   0.00000  Uiso   1.00
H1230  H     0.74522   0.62995   0.66158   0.00000  Uiso   1.00
H1231  H     0.79075   0.61966   0.63021   0.00000  Uiso   1.00
H1232  H     0.81072   0.66372   0.37127   0.00000  Uiso   1.00
H1233  H     0.96390   0.42425   0.64718   0.00000  Uiso   1.00
H1234  H     0.83267   0.60900   0.37743   0.00000  Uiso   1.00
H1235  H     0.77685   0.58144   0.42972   0.00000  Uiso   1.00
H1236  H     0.74919   0.62916   0.41946   0.00000  Uiso   1.00
H1237  H     0.74666   0.50748   0.36492   0.00000  Uiso   1.00
H1238  H     0.69209   0.42268   0.42322   0.00000  Uiso   1.00
H1239  H     0.68473   0.36464   0.40192   0.00000  Uiso   1.00
H1240  H     0.99461   0.38193   0.45604   0.00000  Uiso   1.00
H1241  H     0.72354   0.33573   0.47830   0.00000  Uiso   1.00
H1242  H     0.72966   0.39154   0.50236   0.00000  Uiso   1.00
N1243  N     0.83333   0.61736   0.50000   0.00000  Uiso   1.00
N1244  N     0.83333   0.38264   0.50000   0.00000  Uiso   1.00
O1245  O     0.77321   0.53958   0.50000   0.00000  Uiso   1.00
O1246  O     0.72626   0.42246   0.59573   0.00000  Uiso   1.00
O1247  O     0.93510   0.57496   0.41816   0.00000  Uiso   1.00
O1248  O     0.94046   0.51018   0.37487   0.00000  Uiso   1.00
O1249  O     0.93347   0.48789   0.60222   0.00000  Uiso   1.00
O1250  O     0.97792   0.42983   0.61569   0.00000  Uiso   1.00
O1251  O     0.69435   0.55881   0.38493   0.00000  Uiso   1.00
O1252  O     0.73444   0.49645   0.39593   0.00000  Uiso   1.00
O1253  O     0.89345   0.46042   0.50000   0.00000  Uiso   1.00
O1254  O     0.89345   0.53958   0.50000   0.00000  Uiso   1.00
O1255  O     0.77321   0.46042   0.50000   0.00000  Uiso   1.00
O1256  O     0.83333   0.53959   0.42946   0.00000  Uiso   1.00
O1257  O     0.83333   0.46041   0.57054   0.00000  Uiso   1.00
O1258  O     0.83333   0.53959   0.57054   0.00000  Uiso   1.00
O1259  O     0.83333   0.46041   0.42946   0.00000  Uiso   1.00
O1260  O     0.73639   0.49847   0.61027   0.00000  Uiso   1.00
C1261  C     0.08767   0.83269   0.49884   0.00000  Uiso   1.00
C1262  C     0.01836   0.84806   0.45696   0.00000  Uiso   1.00
C1263  C     0.29063   0.83525   0.50180   0.00000  Uiso   1.00
C1264  C     0.04273   0.83112   0.49839   0.00000  Uiso   1.00
C1265  C     0.13798   0.69088   0.46960   0.00000  Uiso   1.00
C1266  C     0.19728   0.97671   0.52679   0.00000  Uiso   1.00
C1267  C     0.19303   0.69145   0.53245   0.00000  Uiso   1.00
C1268  C     0.13946   0.97492   0.46774   0.00000  Uiso   1.00
C1269  C     0.05226   0.80189   0.58485   0.00000  Uiso   1.00
C1270  C     0.28238   0.87003   0.41672   0.00000  Uiso   1.00
C1271  C     0.29585   0.80087   0.58833   0.00000  Uiso   1.00
C1272  C     0.24569   0.83394   0.50107   0.00000  Uiso   1.00
C1273  C     0.03778   0.85872   0.41042   0.00000  Uiso   1.00
C1274  C     0.10109   0.71385   0.44118   0.00000  Uiso   1.00
C1275  C     0.06105   0.70566   0.46761   0.00000  Uiso   1.00
C1276  C     0.02247   0.71968   0.43507   0.00000  Uiso   1.00
C1277  C     0.24195   0.96111   0.53523   0.00000  Uiso   1.00
C1278  C     0.25237   0.93639   0.58498   0.00000  Uiso   1.00
C1279  C     0.29925   0.93169   0.59587   0.00000  Uiso   1.00
C1280  C     0.21552   0.71349   0.57796   0.00000  Uiso   1.00
C1281  C     0.19070   0.70544   0.62311   0.00000  Uiso   1.00
C1282  C     0.21404   0.72508   0.33628   0.00000  Uiso   1.00
C1283  C     0.16677   0.83364   0.40710   0.00000  Uiso   1.00
C1284  C     0.11501   0.95133   0.42421   0.00000  Uiso   1.00
C1285  C     0.13619   0.96024   0.37609   0.00000  Uiso   1.00
C1286  C     0.10833   0.94510   0.66410   0.00000  Uiso   1.00
C1287  C     0.16683   0.83306   0.59292   0.00000  Uiso   1.00
C1288  C     0.16679   0.83380   0.35523   0.00000  Uiso   1.00
C1289  C     0.16679   0.83303   0.64479   0.00000  Uiso   1.00
C1290  C     0.02480   0.81511   0.54084   0.00000  Uiso   1.00
C1291  C     0.30880   0.85180   0.45949   0.00000  Uiso   1.00
C1292  C     0.31494   0.81644   0.54268   0.00000  Uiso   1.00
Cu1293 Cu    0.16667   0.88022   0.50000   0.00000  Uiso   1.00
Cu1294 Cu    0.16667   0.78645   0.50000   0.00000  Uiso   1.00
H1295  H     0.07953   0.75145   0.62625   0.00000  Uiso   1.00
H1296  H     0.10657   0.75019   0.43392   0.00000  Uiso   1.00
H1297  H     0.09577   0.70162   0.40299   0.00000  Uiso   1.00
H1298  H     0.31235   0.91396   0.56540   0.00000  Uiso   1.00
H1299  H     0.31480   0.96599   0.60042   0.00000  Uiso   1.00
H1300  H     0.30578   0.91151   0.63051   0.00000  Uiso   1.00
H1301  H     0.24075   0.95547   0.61539   0.00000  Uiso   1.00
H1302  H     0.23750   0.90196   0.58507   0.00000  Uiso   1.00
H1303  H     0.25116   0.94329   0.50312   0.00000  Uiso   1.00
H1304  H     0.26394   0.99089   0.53259   0.00000  Uiso   1.00
H1305  H     0.24241   0.70541   0.34671   0.00000  Uiso   1.00
H1306  H     0.25516   0.85976   0.34866   0.00000  Uiso   1.00
H1307  H     0.22311   0.76153   0.66357   0.00000  Uiso   1.00
H1308  H     0.19398   0.72292   0.36729   0.00000  Uiso   1.00
H1309  H     0.15972   0.72089   0.61691   0.00000  Uiso   1.00
H1310  H     0.18539   0.66817   0.62922   0.00000  Uiso   1.00
H1311  H     0.24686   0.70028   0.58756   0.00000  Uiso   1.00
H1312  H     0.22239   0.74974   0.57183   0.00000  Uiso   1.00
H1313  H     0.10188   0.90778   0.66584   0.00000  Uiso   1.00
H1314  H     0.07856   0.96329   0.66158   0.00000  Uiso   1.00
H1315  H     0.12409   0.95299   0.63021   0.00000  Uiso   1.00
H1316  H     0.14405   0.99705   0.37127   0.00000  Uiso   1.00
H1317  H     0.29724   0.75758   0.64718   0.00000  Uiso   1.00
H1318  H     0.16600   0.94233   0.37743   0.00000  Uiso   1.00
H1319  H     0.11018   0.91478   0.42972   0.00000  Uiso   1.00
H1320  H     0.08253   0.96249   0.41946   0.00000  Uiso   1.00
H1321  H     0.07999   0.84081   0.36492   0.00000  Uiso   1.00
H1322  H     0.02543   0.75601   0.42322   0.00000  Uiso   1.00
H1323  H     0.01806   0.69798   0.40192   0.00000  Uiso   1.00
H1324  H     0.32794   0.71526   0.45604   0.00000  Uiso   1.00
H1325  H     0.05687   0.66906   0.47830   0.00000  Uiso   1.00
H1326  H     0.06300   0.72488   0.50236   0.00000  Uiso   1.00
N1327  N     0.16667   0.95069   0.50000   0.00000  Uiso   1.00
N1328  N     0.16667   0.71598   0.50000   0.00000  Uiso   1.00
O1329  O     0.10655   0.87291   0.50000   0.00000  Uiso   1.00
O1330  O     0.05959   0.75579   0.59573   0.00000  Uiso   1.00
O1331  O     0.26844   0.90829   0.41816   0.00000  Uiso   1.00
O1332  O     0.27380   0.84351   0.37487   0.00000  Uiso   1.00
O1333  O     0.26680   0.82123   0.60222   0.00000  Uiso   1.00
O1334  O     0.31125   0.76317   0.61569   0.00000  Uiso   1.00
O1335  O     0.02768   0.89215   0.38493   0.00000  Uiso   1.00
O1336  O     0.06777   0.82978   0.39593   0.00000  Uiso   1.00
O1337  O     0.22679   0.79375   0.50000   0.00000  Uiso   1.00
O1338  O     0.22679   0.87291   0.50000   0.00000  Uiso   1.00
O1339  O     0.10655   0.79375   0.50000   0.00000  Uiso   1.00
O1340  O     0.16667   0.87292   0.42946   0.00000  Uiso   1.00
O1341  O     0.16667   0.79375   0.57054   0.00000  Uiso   1.00
O1342  O     0.16667   0.87292   0.57054   0.00000  Uiso   1.00
O1343  O     0.16667   0.79375   0.42946   0.00000  Uiso   1.00
O1344  O     0.06973   0.83180   0.61027   0.00000  Uiso   1.00
C1345  C     0.42100   0.83269   0.49884   0.00000  Uiso   1.00
C1346  C     0.35170   0.84806   0.45696   0.00000  Uiso   1.00
C1347  C     0.62396   0.83525   0.50180   0.00000  Uiso   1.00
C1348  C     0.37607   0.83112   0.49839   0.00000  Uiso   1.00
C1349  C     0.47131   0.69088   0.46960   0.00000  Uiso   1.00
C1350  C     0.53062   0.97671   0.52679   0.00000  Uiso   1.00
C1351  C     0.52636   0.69145   0.53245   0.00000  Uiso   1.00
C1352  C     0.47279   0.97492   0.46774   0.00000  Uiso   1.00
C1353  C     0.38559   0.80189   0.58485   0.00000  Uiso   1.00
C1354  C     0.61571   0.87003   0.41672   0.00000  Uiso   1.00
C1355  C     0.62919   0.80087   0.58833   0.00000  Uiso   1.00
C1356  C     0.57902   0.83394   0.50107   0.00000  Uiso   1.00
C1357  C     0.37111   0.85872   0.41042   0.00000  Uiso   1.00
C1358  C     0.43443   0.71385   0.44118   0.00000  Uiso   1.00
C1359  C     0.39438   0.70566   0.46761   0.00000  Uiso   1.00
C1360  C     0.35580   0.71968   0.43507   0.00000  Uiso   1.00
C1361  C     0.57528   0.96111   0.53523   0.00000  Uiso   1.00
C1362  C     0.58571   0.93639   0.58498   0.00000  Uiso   1.00
C1363  C     0.63259   0.93169   0.59587   0.00000  Uiso   1.00
C1364  C     0.54885   0.71349   0.57796   0.00000  Uiso   1.00
C1365  C     0.52403   0.70544   0.62311   0.00000  Uiso   1.00
C1366  C     0.54737   0.72508   0.33628   0.00000  Uiso   1.00
C1367  C     0.50010   0.83364   0.40710   0.00000  Uiso   1.00
C1368  C     0.44834   0.95133   0.42421   0.00000  Uiso   1.00
C1369  C     0.46953   0.96024   0.37609   0.00000  Uiso   1.00
C1370  C     0.44166   0.94510   0.66410   0.00000  Uiso   1.00
C1371  C     0.50016   0.83306   0.59292   0.00000  Uiso   1.00
C1372  C     0.50012   0.83380   0.35523   0.00000  Uiso   1.00
C1373  C     0.50012   0.83303   0.64479   0.00000  Uiso   1.00
C1374  C     0.35813   0.81511   0.54084   0.00000  Uiso   1.00
C1375  C     0.64213   0.85180   0.45949   0.00000  Uiso   1.00
C1376  C     0.64827   0.81644   0.54268   0.00000  Uiso   1.00
Cu1377 Cu    0.50000   0.88022   0.50000   0.00000  Uiso   1.00
Cu1378 Cu    0.50000   0.78645   0.50000   0.00000  Uiso   1.00
H1379  H     0.41286   0.75145   0.62625   0.00000  Uiso   1.00
H1380  H     0.43990   0.75019   0.43392   0.00000  Uiso   1.00
H1381  H     0.42911   0.70162   0.40299   0.00000  Uiso   1.00
H1382  H     0.64568   0.91396   0.56540   0.00000  Uiso   1.00
H1383  H     0.64813   0.96599   0.60042   0.00000  Uiso   1.00
H1384  H     0.63911   0.91151   0.63051   0.00000  Uiso   1.00
H1385  H     0.57408   0.95547   0.61539   0.00000  Uiso   1.00
H1386  H     0.57084   0.90196   0.58507   0.00000  Uiso   1.00
H1387  H     0.58449   0.94329   0.50312   0.00000  Uiso   1.00
H1388  H     0.59728   0.99089   0.53259   0.00000  Uiso   1.00
H1389  H     0.57574   0.70541   0.34671   0.00000  Uiso   1.00
H1390  H     0.58849   0.85976   0.34866   0.00000  Uiso   1.00
H1391  H     0.55644   0.76153   0.66357   0.00000  Uiso   1.00
H1392  H     0.52732   0.72292   0.36729   0.00000  Uiso   1.00
H1393  H     0.49306   0.72089   0.61691   0.00000  Uiso   1.00
H1394  H     0.51872   0.66817   0.62922   0.00000  Uiso   1.00
H1395  H     0.58019   0.70028   0.58756   0.00000  Uiso   1.00
H1396  H     0.55572   0.74974   0.57183   0.00000  Uiso   1.00
H1397  H     0.43521   0.90778   0.66584   0.00000  Uiso   1.00
H1398  H     0.41189   0.96329   0.66158   0.00000  Uiso   1.00
H1399  H     0.45742   0.95299   0.63021   0.00000  Uiso   1.00
H1400  H     0.47738   0.99705   0.37127   0.00000  Uiso   1.00
H1401  H     0.63057   0.75758   0.64718   0.00000  Uiso   1.00
H1402  H     0.49933   0.94233   0.37743   0.00000  Uiso   1.00
H1403  H     0.44352   0.91478   0.42972   0.00000  Uiso   1.00
H1404  H     0.41586   0.96249   0.41946   0.00000  Uiso   1.00
H1405  H     0.41333   0.84081   0.36492   0.00000  Uiso   1.00
H1406  H     0.35876   0.75601   0.42322   0.00000  Uiso   1.00
H1407  H     0.35139   0.69798   0.40192   0.00000  Uiso   1.00
H1408  H     0.66128   0.71526   0.45604   0.00000  Uiso   1.00
H1409  H     0.39021   0.66906   0.47830   0.00000  Uiso   1.00
H1410  H     0.39633   0.72488   0.50236   0.00000  Uiso   1.00
N1411  N     0.50000   0.95069   0.50000   0.00000  Uiso   1.00
N1412  N     0.50000   0.71598   0.50000   0.00000  Uiso   1.00
O1413  O     0.43988   0.87291   0.50000   0.00000  Uiso   1.00
O1414  O     0.39292   0.75579   0.59573   0.00000  Uiso   1.00
O1415  O     0.60177   0.90829   0.41816   0.00000  Uiso   1.00
O1416  O     0.60713   0.84351   0.37487   0.00000  Uiso   1.00
O1417  O     0.60013   0.82123   0.60222   0.00000  Uiso   1.00
O1418  O     0.64459   0.76317   0.61569   0.00000  Uiso   1.00
O1419  O     0.36102   0.89215   0.38493   0.00000  Uiso   1.00
O1420  O     0.40110   0.82978   0.39593   0.00000  Uiso   1.00
O1421  O     0.56012   0.79375   0.50000   0.00000  Uiso   1.00
O1422  O     0.56012   0.87291   0.50000   0.00000  Uiso   1.00
O1423  O     0.43988   0.79375   0.50000   0.00000  Uiso   1.00
O1424  O     0.50000   0.87292   0.42946   0.00000  Uiso   1.00
O1425  O     0.50000   0.79375   0.57054   0.00000  Uiso   1.00
O1426  O     0.50000   0.87292   0.57054   0.00000  Uiso   1.00
O1427  O     0.50000   0.79375   0.42946   0.00000  Uiso   1.00
O1428  O     0.40306   0.83180   0.61027   0.00000  Uiso   1.00
C1429  C     0.75434   0.83269   0.49884   0.00000  Uiso   1.00
C1430  C     0.68503   0.84806   0.45696   0.00000  Uiso   1.00
C1431  C     0.95729   0.83525   0.50180   0.00000  Uiso   1.00
C1432  C     0.70940   0.83112   0.49839   0.00000  Uiso   1.00
C1433  C     0.80465   0.69088   0.46960   0.00000  Uiso   1.00
C1434  C     0.86395   0.97671   0.52679   0.00000  Uiso   1.00
C1435  C     0.85969   0.69145   0.53245   0.00000  Uiso   1.00
C1436  C     0.80612   0.97492   0.46774   0.00000  Uiso   1.00
C1437  C     0.71893   0.80189   0.58485   0.00000  Uiso   1.00
C1438  C     0.94905   0.87003   0.41672   0.00000  Uiso   1.00
C1439  C     0.96252   0.80087   0.58833   0.00000  Uiso   1.00
C1440  C     0.91235   0.83394   0.50107   0.00000  Uiso   1.00
C1441  C     0.70444   0.85872   0.41042   0.00000  Uiso   1.00
C1442  C     0.76776   0.71385   0.44118   0.00000  Uiso   1.00
C1443  C     0.72772   0.70566   0.46761   0.00000  Uiso   1.00
C1444  C     0.68913   0.71968   0.43507   0.00000  Uiso   1.00
C1445  C     0.90862   0.96111   0.53523   0.00000  Uiso   1.00
C1446  C     0.91904   0.93639   0.58498   0.00000  Uiso   1.00
C1447  C     0.96592   0.93169   0.59587   0.00000  Uiso   1.00
C1448  C     0.88218   0.71349   0.57796   0.00000  Uiso   1.00
C1449  C     0.85737   0.70544   0.62311   0.00000  Uiso   1.00
C1450  C     0.88071   0.72508   0.33628   0.00000  Uiso   1.00
C1451  C     0.83344   0.83364   0.40710   0.00000  Uiso   1.00
C1452  C     0.78168   0.95133   0.42421   0.00000  Uiso   1.00
C1453  C     0.80286   0.96024   0.37609   0.00000  Uiso   1.00
C1454  C     0.77500   0.94510   0.66410   0.00000  Uiso   1.00
C1455  C     0.83350   0.83306   0.59292   0.00000  Uiso   1.00
C1456  C     0.83346   0.83380   0.35523   0.00000  Uiso   1.00
C1457  C     0.83346   0.83303   0.64479   0.00000  Uiso   1.00
C1458  C     0.69146   0.81511   0.54084   0.00000  Uiso   1.00
C1459  C     0.97547   0.85180   0.45949   0.00000  Uiso   1.00
C1460  C     0.98160   0.81644   0.54268   0.00000  Uiso   1.00
Cu1461 Cu    0.83333   0.88022   0.50000   0.00000  Uiso   1.00
Cu1462 Cu    0.83333   0.78645   0.50000   0.00000  Uiso   1.00
H1463  H     0.74620   0.75145   0.62625   0.00000  Uiso   1.00
H1464  H     0.77324   0.75019   0.43392   0.00000  Uiso   1.00
H1465  H     0.76244   0.70162   0.40299   0.00000  Uiso   1.00
H1466  H     0.97901   0.91396   0.56540   0.00000  Uiso   1.00
H1467  H     0.98147   0.96599   0.60042   0.00000  Uiso   1.00
H1468  H     0.97245   0.91151   0.63051   0.00000  Uiso   1.00
H1469  H     0.90742   0.95547   0.61539   0.00000  Uiso   1.00
H1470  H     0.90417   0.90196   0.58507   0.00000  Uiso   1.00
H1471  H     0.91782   0.94329   0.50312   0.00000  Uiso   1.00
H1472  H     0.93061   0.99089   0.53259   0.00000  Uiso   1.00
H1473  H     0.90907   0.70541   0.34671   0.00000  Uiso   1.00
H1474  H     0.92182   0.85976   0.34866   0.00000  Uiso   1.00
H1475  H     0.88978   0.76153   0.66357   0.00000  Uiso   1.00
H1476  H     0.86065   0.72292   0.36729   0.00000  Uiso   1.00
H1477  H     0.82639   0.72089   0.61691   0.00000  Uiso   1.00
H1478  H     0.85206   0.66817   0.62922   0.00000  Uiso   1.00
H1479  H     0.91352   0.70028   0.58756   0.00000  Uiso   1.00
H1480  H     0.88905   0.74974   0.57183   0.00000  Uiso   1.00
H1481  H     0.76854   0.90778   0.66584   0.00000  Uiso   1.00
H1482  H     0.74522   0.96329   0.66158   0.00000  Uiso   1.00
H1483  H     0.79075   0.95299   0.63021   0.00000  Uiso   1.00
H1484  H     0.81072   0.99705   0.37127   0.00000  Uiso   1.00
H1485  H     0.96390   0.75758   0.64718   0.00000  Uiso   1.00
H1486  H     0.83267   0.94233   0.37743   0.00000  Uiso   1.00
H1487  H     0.77685   0.91478   0.42972   0.00000  Uiso   1.00
H1488  H     0.74919   0.96249   0.41946   0.00000  Uiso   1.00
H1489  H     0.74666   0.84081   0.36492   0.00000  Uiso   1.00
H1490  H     0.69209   0.75601   0.42322   0.00000  Uiso   1.00
H1491  H     0.68473   0.69798   0.40192   0.00000  Uiso   1.00
H1492  H     0.99461   0.71526   0.45604   0.00000  Uiso   1.00
H1493  H     0.72354   0.66906   0.47830   0.00000  Uiso   1.00
H1494  H     0.72966   0.72488   0.50236   0.00000  Uiso   1.00
N1495  N     0.83333   0.95069   0.50000   0.00000  Uiso   1.00
N1496  N     0.83333   0.71598   0.50000   0.00000  Uiso   1.00
O1497  O     0.77321   0.87291   0.50000   0.00000  Uiso   1.00
O1498  O     0.72626   0.75579   0.59573   0.00000  Uiso   1.00
O1499  O     0.93510   0.90829   0.41816   0.00000  Uiso   1.00
O1500  O     0.94046   0.84351   0.37487   0.00000  Uiso   1.00
O1501  O     0.93347   0.82123   0.60222   0.00000  Uiso   1.00
O1502  O     0.97792   0.76317   0.61569   0.00000  Uiso   1.00
O1503  O     0.69435   0.89215   0.38493   0.00000  Uiso   1.00
O1504  O     0.73444   0.82978   0.39593   0.00000  Uiso   1.00
O1505  O     0.89345   0.79375   0.50000   0.00000  Uiso   1.00
O1506  O     0.89345   0.87291   0.50000   0.00000  Uiso   1.00
O1507  O     0.77321   0.79375   0.50000   0.00000  Uiso   1.00
O1508  O     0.83333   0.87292   0.42946   0.00000  Uiso   1.00
O1509  O     0.83333   0.79375   0.57054   0.00000  Uiso   1.00
O1510  O     0.83333   0.87292   0.57054   0.00000  Uiso   1.00
O1511  O     0.83333   0.79375   0.42946   0.00000  Uiso   1.00
O1512  O     0.73639   0.83180   0.61027   0.00000  Uiso   1.00
C1513  C     0.08767   0.16602   0.83217   0.00000  Uiso   1.00
C1514  C     0.01836   0.18139   0.79029   0.00000  Uiso   1.00
C1515  C     0.29063   0.16859   0.83513   0.00000  Uiso   1.00
C1516  C     0.04273   0.16445   0.83172   0.00000  Uiso   1.00
C1517  C     0.13798   0.02421   0.80293   0.00000  Uiso   1.00
C1518  C     0.19728   0.31004   0.86012   0.00000  Uiso   1.00
C1519  C     0.19303   0.02479   0.86579   0.00000  Uiso   1.00
C1520  C     0.13946   0.30825   0.80108   0.00000  Uiso   1.00
C1521  C     0.05226   0.13522   0.91818   0.00000  Uiso   1.00
C1522  C     0.28238   0.20337   0.75005   0.00000  Uiso   1.00
C1523  C     0.29585   0.13420   0.92166   0.00000  Uiso   1.00
C1524  C     0.24569   0.16728   0.83440   0.00000  Uiso   1.00
C1525  C     0.03778   0.19205   0.74375   0.00000  Uiso   1.00
C1526  C     0.10109   0.04718   0.77451   0.00000  Uiso   1.00
C1527  C     0.06105   0.03899   0.80095   0.00000  Uiso   1.00
C1528  C     0.02247   0.05302   0.76841   0.00000  Uiso   1.00
C1529  C     0.24195   0.29444   0.86856   0.00000  Uiso   1.00
C1530  C     0.25237   0.26972   0.91831   0.00000  Uiso   1.00
C1531  C     0.29925   0.26502   0.92920   0.00000  Uiso   1.00
C1532  C     0.21552   0.04683   0.91130   0.00000  Uiso   1.00
C1533  C     0.19070   0.03877   0.95645   0.00000  Uiso   1.00
C1534  C     0.21404   0.05841   0.66961   0.00000  Uiso   1.00
C1535  C     0.16677   0.16697   0.74044   0.00000  Uiso   1.00
C1536  C     0.11501   0.28467   0.75754   0.00000  Uiso   1.00
C1537  C     0.13619   0.29357   0.70943   0.00000  Uiso   1.00
C1538  C     0.10833   0.27843   0.99743   0.00000  Uiso   1.00
C1539  C     0.16683   0.16640   0.92626   0.00000  Uiso   1.00
C1540  C     0.16679   0.16713   0.68856   0.00000  Uiso   1.00
C1541  C     0.16679   0.16637   0.97812   0.00000  Uiso   1.00
C1542  C     0.02480   0.14844   0.87417   0.00000  Uiso   1.00
C1543  C     0.30880   0.18514   0.79282   0.00000  Uiso   1.00
C1544  C     0.31494   0.14977   0.87602   0.00000  Uiso   1.00
Cu1545 Cu    0.16667   0.21355   0.83333   0.00000  Uiso   1.00
Cu1546 Cu    0.16667   0.11978   0.83333   0.00000  Uiso   1.00
H1547  H     0.07953   0.08478   0.95959   0.00000  Uiso   1.00
H1548  H     0.10657   0.08352   0.76726   0.00000  Uiso   1.00
H1549  H     0.09577   0.03495   0.73632   0.00000  Uiso   1.00
H1550  H     0.31235   0.24729   0.89874   0.00000  Uiso   1.00
H1551  H     0.31480   0.29932   0.93376   0.00000  Uiso   1.00
H1552  H     0.30578   0.24485   0.96385   0.00000  Uiso   1.00
H1553  H     0.24075   0.28880   0.94873   0.00000  Uiso   1.00
H1554  H     0.23750   0.23530   0.91840   0.00000  Uiso   1.00
H1555  H     0.25116   0.27662   0.83646   0.00000  Uiso   1.00
H1556  H     0.26394   0.32422   0.86592   0.00000  Uiso   1.00
H1557  H     0.24241   0.03874   0.68004   0.00000  Uiso   1.00
H1558  H     0.25516   0.19309   0.68200   0.00000  Uiso   1.00
H1559  H     0.22311   0.09486   0.99690   0.00000  Uiso   1.00
H1560  H     0.19398   0.05625   0.70062   0.00000  Uiso   1.00
H1561  H     0.15972   0.05423   0.95025   0.00000  Uiso   1.00
H1562  H     0.18539   0.00151   0.96255   0.00000  Uiso   1.00
H1563  H     0.24686   0.03361   0.92089   0.00000  Uiso   1.00
H1564  H     0.22239   0.08308   0.90516   0.00000  Uiso   1.00
H1565  H     0.10188   0.24112   0.99917   0.00000  Uiso   1.00
H1566  H     0.07856   0.29662   0.99491   0.00000  Uiso   1.00
H1567  H     0.12409   0.28632   0.96354   0.00000  Uiso   1.00
H1568  H     0.14405   0.33039   0.70461   0.00000  Uiso   1.00
H1569  H     0.29724   0.09092   0.98052   0.00000  Uiso   1.00
H1570  H     0.16600   0.27566   0.71077   0.00000  Uiso   1.00
H1571  H     0.11018   0.24811   0.76305   0.00000  Uiso   1.00
H1572  H     0.08253   0.29582   0.75279   0.00000  Uiso   1.00
H1573  H     0.07999   0.17414   0.69825   0.00000  Uiso   1.00
H1574  H     0.02543   0.08935   0.75655   0.00000  Uiso   1.00
H1575  H     0.01806   0.03131   0.73525   0.00000  Uiso   1.00
H1576  H     0.32794   0.04859   0.78937   0.00000  Uiso   1.00
H1577  H     0.05687   0.00239   0.81163   0.00000  Uiso   1.00
H1578  H     0.06300   0.05821   0.83569   0.00000  Uiso   1.00
N1579  N     0.16667   0.28402   0.83333   0.00000  Uiso   1.00
N1580  N     0.16667   0.04931   0.83333   0.00000  Uiso   1.00
O1581  O     0.10655   0.20625   0.83333   0.00000  Uiso   1.00
O1582  O     0.05959   0.08912   0.92906   0.00000  Uiso   1.00
O1583  O     0.26844   0.24163   0.75150   0.00000  Uiso   1.00
O1584  O     0.27380   0.17685   0.70820   0.00000  Uiso   1.00
O1585  O     0.26680   0.15456   0.93556   0.00000  Uiso   1.00
O1586  O     0.31125   0.09650   0.94903   0.00000  Uiso   1.00
O1587  O     0.02768   0.22548   0.71827   0.00000  Uiso   1.00
O1588  O     0.06777   0.16312   0.72927   0.00000  Uiso   1.00
O1589  O     0.22679   0.12709   0.83334   0.00000  Uiso   1.00
O1590  O     0.22679   0.20625   0.83334   0.00000  Uiso   1.00
O1591  O     0.10655   0.12709   0.83333   0.00000  Uiso   1.00
O1592  O     0.16667   0.20625   0.76280   0.00000  Uiso   1.00
O1593  O     0.16667   0.12708   0.90387   0.00000  Uiso   1.00
O1594  O     0.16667   0.20625   0.90387   0.00000  Uiso   1.00
O1595  O     0.16667   0.12708   0.76280   0.00000  Uiso   1.00
O1596  O     0.06973   0.16514   0.94360   0.00000  Uiso   1.00
C1597  C     0.42100   0.16602   0.83217   0.00000  Uiso   1.00
C1598  C     0.35170   0.18139   0.79029   0.00000  Uiso   1.00
C1599  C     0.62396   0.16859   0.83513   0.00000  Uiso   1.00
C1600  C     0.37607   0.16445   0.83172   0.00000  Uiso   1.00
C1601  C     0.47131   0.02421   0.80293   0.00000  Uiso   1.00
C1602  C     0.53062   0.31004   0.86012   0.00000  Uiso   1.00
C1603  C     0.52636   0.02479   0.86579   0.00000  Uiso   1.00
C1604  C     0.47279   0.30825   0.80108   0.00000  Uiso   1.00
C1605  C     0.38559   0.13522   0.91818   0.00000  Uiso   1.00
C1606  C     0.61571   0.20337   0.75005   0.00000  Uiso   1.00
C1607  C     0.62919   0.13420   0.92166   0.00000  Uiso   1.00
C1608  C     0.57902   0.16728   0.83440   0.00000  Uiso   1.00
C1609  C     0.37111   0.19205   0.74375   0.00000  Uiso   1.00
C1610  C     0.43443   0.04718   0.77451   0.00000  Uiso   1.00
C1611  C     0.39438   0.03899   0.80095   0.00000  Uiso   1.00
C1612  C     0.35580   0.05302   0.76841   0.00000  Uiso   1.00
C1613  C     0.57528   0.29444   0.86856   0.00000  Uiso   1.00
C1614  C     0.58571   0.26972   0.91831   0.00000  Uiso   1.00
C1615  C     0.63259   0.26502   0.92920   0.00000  Uiso   1.00
C1616  C     0.54885   0.04683   0.91130   0.00000  Uiso   1.00
C1617  C     0.52403   0.03877   0.95645   0.00000  Uiso   1.00
C1618  C     0.54737   0.05841   0.66961   0.00000  Uiso   1.00
C1619  C     0.50010   0.16697   0.74044   0.00000  Uiso   1.00
C1620  C     0.44834   0.28467   0.75754   0.00000  Uiso   1.00
C1621  C     0.46953   0.29357   0.70943   0.00000  Uiso   1.00
C1622  C     0.44166   0.27843   0.99743   0.00000  Uiso   1.00
C1623  C     0.50016   0.16640   0.92626   0.00000  Uiso   1.00
C1624  C     0.50012   0.16713   0.68856   0.00000  Uiso   1.00
C1625  C     0.50012   0.16637   0.97812   0.00000  Uiso   1.00
C1626  C     0.35813   0.14844   0.87417   0.00000  Uiso   1.00
C1627  C     0.64213   0.18514   0.79282   0.00000  Uiso   1.00
C1628  C     0.64827   0.14977   0.87602   0.00000  Uiso   1.00
Cu1629 Cu    0.50000   0.21355   0.83333   0.00000  Uiso   1.00
Cu1630 Cu    0.50000   0.11978   0.83333   0.00000  Uiso   1.00
H1631  H     0.41286   0.08478   0.95959   0.00000  Uiso   1.00
H1632  H     0.43990   0.08352   0.76726   0.00000  Uiso   1.00
H1633  H     0.42911   0.03495   0.73632   0.00000  Uiso   1.00
H1634  H     0.64568   0.24729   0.89874   0.00000  Uiso   1.00
H1635  H     0.64813   0.29932   0.93376   0.00000  Uiso   1.00
H1636  H     0.63911   0.24485   0.96385   0.00000  Uiso   1.00
H1637  H     0.57408   0.28880   0.94873   0.00000  Uiso   1.00
H1638  H     0.57084   0.23530   0.91840   0.00000  Uiso   1.00
H1639  H     0.58449   0.27662   0.83646   0.00000  Uiso   1.00
H1640  H     0.59728   0.32422   0.86592   0.00000  Uiso   1.00
H1641  H     0.57574   0.03874   0.68004   0.00000  Uiso   1.00
H1642  H     0.58849   0.19309   0.68200   0.00000  Uiso   1.00
H1643  H     0.55644   0.09486   0.99690   0.00000  Uiso   1.00
H1644  H     0.52732   0.05625   0.70062   0.00000  Uiso   1.00
H1645  H     0.49306   0.05423   0.95025   0.00000  Uiso   1.00
H1646  H     0.51872   0.00151   0.96255   0.00000  Uiso   1.00
H1647  H     0.58019   0.03361   0.92089   0.00000  Uiso   1.00
H1648  H     0.55572   0.08308   0.90516   0.00000  Uiso   1.00
H1649  H     0.43521   0.24112   0.99917   0.00000  Uiso   1.00
H1650  H     0.41189   0.29662   0.99491   0.00000  Uiso   1.00
H1651  H     0.45742   0.28632   0.96354   0.00000  Uiso   1.00
H1652  H     0.47738   0.33039   0.70461   0.00000  Uiso   1.00
H1653  H     0.63057   0.09092   0.98052   0.00000  Uiso   1.00
H1654  H     0.49933   0.27566   0.71077   0.00000  Uiso   1.00
H1655  H     0.44352   0.24811   0.76305   0.00000  Uiso   1.00
H1656  H     0.41586   0.29582   0.75279   0.00000  Uiso   1.00
H1657  H     0.41333   0.17414   0.69825   0.00000  Uiso   1.00
H1658  H     0.35876   0.08935   0.75655   0.00000  Uiso   1.00
H1659  H     0.35139   0.03131   0.73525   0.00000  Uiso   1.00
H1660  H     0.66128   0.04859   0.78937   0.00000  Uiso   1.00
H1661  H     0.39021   0.00239   0.81163   0.00000  Uiso   1.00
H1662  H     0.39633   0.05821   0.83569   0.00000  Uiso   1.00
N1663  N     0.50000   0.28402   0.83333   0.00000  Uiso   1.00
N1664  N     0.50000   0.04931   0.83333   0.00000  Uiso   1.00
O1665  O     0.43988   0.20625   0.83333   0.00000  Uiso   1.00
O1666  O     0.39292   0.08912   0.92906   0.00000  Uiso   1.00
O1667  O     0.60177   0.24163   0.75150   0.00000  Uiso   1.00
O1668  O     0.60713   0.17685   0.70820   0.00000  Uiso   1.00
O1669  O     0.60013   0.15456   0.93556   0.00000  Uiso   1.00
O1670  O     0.64459   0.09650   0.94903   0.00000  Uiso   1.00
O1671  O     0.36102   0.22548   0.71827   0.00000  Uiso   1.00
O1672  O     0.40110   0.16312   0.72927   0.00000  Uiso   1.00
O1673  O     0.56012   0.12709   0.83334   0.00000  Uiso   1.00
O1674  O     0.56012   0.20625   0.83334   0.00000  Uiso   1.00
O1675  O     0.43988   0.12709   0.83333   0.00000  Uiso   1.00
O1676  O     0.50000   0.20625   0.76280   0.00000  Uiso   1.00
O1677  O     0.50000   0.12708   0.90387   0.00000  Uiso   1.00
O1678  O     0.50000   0.20625   0.90387   0.00000  Uiso   1.00
O1679  O     0.50000   0.12708   0.76280   0.00000  Uiso   1.00
O1680  O     0.40306   0.16514   0.94360   0.00000  Uiso   1.00
C1681  C     0.75434   0.16602   0.83217   0.00000  Uiso   1.00
C1682  C     0.68503   0.18139   0.79029   0.00000  Uiso   1.00
C1683  C     0.95729   0.16859   0.83513   0.00000  Uiso   1.00
C1684  C     0.70940   0.16445   0.83172   0.00000  Uiso   1.00
C1685  C     0.80465   0.02421   0.80293   0.00000  Uiso   1.00
C1686  C     0.86395   0.31004   0.86012   0.00000  Uiso   1.00
C1687  C     0.85969   0.02479   0.86579   0.00000  Uiso   1.00
C1688  C     0.80612   0.30825   0.80108   0.00000  Uiso   1.00
C1689  C     0.71893   0.13522   0.91818   0.00000  Uiso   1.00
C1690  C     0.94905   0.20337   0.75005   0.00000  Uiso   1.00
C1691  C     0.96252   0.13420   0.92166   0.00000  Uiso   1.00
C1692  C     0.91235   0.16728   0.83440   0.00000  Uiso   1.00
C1693  C     0.70444   0.19205   0.74375   0.00000  Uiso   1.00
C1694  C     0.76776   0.04718   0.77451   0.00000  Uiso   1.00
C1695  C     0.72772   0.03899   0.80095   0.00000  Uiso   1.00
C1696  C     0.68913   0.05302   0.76841   0.00000  Uiso   1.00
C1697  C     0.90862   0.29444   0.86856   0.00000  Uiso   1.00
C1698  C     0.91904   0.26972   0.91831   0.00000  Uiso   1.00
C1699  C     0.96592   0.26502   0.92920   0.00000  Uiso   1.00
C1700  C     0.88218   0.04683   0.91130   0.00000  Uiso   1.00
C1701  C     0.85737   0.03877   0.95645   0.00000  Uiso   1.00
C1702  C     0.88071   0.05841   0.66961   0.00000  Uiso   1.00
C1703  C     0.83344   0.16697   0.74044   0.00000  Uiso   1.00
C1704  C     0.78168   0.28467   0.75754   0.00000  Uiso   1.00
C1705  C     0.80286   0.29357   0.70943   0.00000  Uiso   1.00
C1706  C     0.77500   0.27843   0.99743   0.00000  Uiso   1.00
C1707  C     0.83350   0.16640   0.92626   0.00000  Uiso   1.00
C1708  C     0.83346   0.16713   0.68856   0.00000  Uiso   1.00
C1709  C     0.83346   0.16637   0.97812   0.00000  Uiso   1.00
C1710  C     0.69146   0.14844   0.87417   0.00000  Uiso   1.00
C1711  C     0.97547   0.18514   0.79282   0.00000  Uiso   1.00
C1712  C     0.98160   0.14977   0.87602   0.00000  Uiso   1.00
Cu1713 Cu    0.83333   0.21355   0.83333   0.00000  Uiso   1.00
Cu1714 Cu    0.83333   0.11978   0.83333   0.00000  Uiso   1.00
H1715  H     0.74620   0.08478   0.95959   0.00000  Uiso   1.00
H1716  H     0.77324   0.08352   0.76726   0.00000  Uiso   1.00
H1717  H     0.76244   0.03495   0.73632   0.00000  Uiso   1.00
H1718  H     0.97901   0.24729   0.89874   0.00000  Uiso   1.00
H1719  H     0.98147   0.29932   0.93376   0.00000  Uiso   1.00
H1720  H     0.97245   0.24485   0.96385   0.00000  Uiso   1.00
H1721  H     0.90742   0.28880   0.94873   0.00000  Uiso   1.00
H1722  H     0.90417   0.23530   0.91840   0.00000  Uiso   1.00
H1723  H     0.91782   0.27662   0.83646   0.00000  Uiso   1.00
H1724  H     0.93061   0.32422   0.86592   0.00000  Uiso   1.00
H1725  H     0.90907   0.03874   0.68004   0.00000  Uiso   1.00
H1726  H     0.92182   0.19309   0.68200   0.00000  Uiso   1.00
H1727  H     0.88978   0.09486   0.99690   0.00000  Uiso   1.00
H1728  H     0.86065   0.05625   0.70062   0.00000  Uiso   1.00
H1729  H     0.82639   0.05423   0.95025   0.00000  Uiso   1.00
H1730  H     0.85206   0.00151   0.96255   0.00000  Uiso   1.00
H1731  H     0.91352   0.03361   0.92089   0.00000  Uiso   1.00
H1732  H     0.88905   0.08308   0.90516   0.00000  Uiso   1.00
H1733  H     0.76854   0.24112   0.99917   0.00000  Uiso   1.00
H1734  H     0.74522   0.29662   0.99491   0.00000  Uiso   1.00
H1735  H     0.79075   0.28632   0.96354   0.00000  Uiso   1.00
H1736  H     0.81072   0.33039   0.70461   0.00000  Uiso   1.00
H1737  H     0.96390   0.09092   0.98052   0.00000  Uiso   1.00
H1738  H     0.83267   0.27566   0.71077   0.00000  Uiso   1.00
H1739  H     0.77685   0.24811   0.76305   0.00000  Uiso   1.00
H1740  H     0.74919   0.29582   0.75279   0.00000  Uiso   1.00
H1741  H     0.74666   0.17414   0.69825   0.00000  Uiso   1.00
H1742  H     0.69209   0.08935   0.75655   0.00000  Uiso   1.00
H1743  H     0.68473   0.03131   0.73525   0.00000  Uiso   1.00
H1744  H     0.99461   0.04859   0.78937   0.00000  Uiso   1.00
H1745  H     0.72354   0.00239   0.81163   0.00000  Uiso   1.00
H1746  H     0.72966   0.05821   0.83569   0.00000  Uiso   1.00
N1747  N     0.83333   0.28402   0.83333   0.00000  Uiso   1.00
N1748  N     0.83333   0.04931   0.83333   0.00000  Uiso   1.00
O1749  O     0.77321   0.20625   0.83333   0.00000  Uiso   1.00
O1750  O     0.72626   0.08912   0.92906   0.00000  Uiso   1.00
O1751  O     0.93510   0.24163   0.75150   0.00000  Uiso   1.00
O1752  O     0.94046   0.17685   0.70820   0.00000  Uiso   1.00
O1753  O     0.93347   0.15456   0.93556   0.00000  Uiso   1.00
O1754  O     0.97792   0.09650   0.94903   0.00000  Uiso   1.00
O1755  O     0.69435   0.22548   0.71827   0.00000  Uiso   1.00
O1756  O     0.73444   0.16312   0.72927   0.00000  Uiso   1.00
O1757  O     0.89345   0.12709   0.83334   0.00000  Uiso   1.00
O1758  O     0.89345   0.20625   0.83334   0.00000  Uiso   1.00
O1759  O     0.77321   0.12709   0.83333   0.00000  Uiso   1.00
O1760  O     0.83333   0.20625   0.76280   0.00000  Uiso   1.00
O1761  O     0.83333   0.12708   0.90387   0.00000  Uiso   1.00
O1762  O     0.83333   0.20625   0.90387   0.00000  Uiso   1.00
O1763  O     0.83333   0.12708   0.76280   0.00000  Uiso   1.00
O1764  O     0.73639   0.16514   0.94360   0.00000  Uiso   1.00
C1765  C     0.08767   0.49935   0.83217   0.00000  Uiso   1.00
C1766  C     0.01836   0.51473   0.79029   0.00000  Uiso   1.00
C1767  C     0.29063   0.50192   0.83513   0.00000  Uiso   1.00
C1768  C     0.04273   0.49778   0.83172   0.00000  Uiso   1.00
C1769  C     0.13798   0.35755   0.80293   0.00000  Uiso   1.00
C1770  C     0.19728   0.64337   0.86012   0.00000  Uiso   1.00
C1771  C     0.19303   0.35812   0.86579   0.00000  Uiso   1.00
C1772  C     0.13946   0.64158   0.80108   0.00000  Uiso   1.00
C1773  C     0.05226   0.46855   0.91818   0.00000  Uiso   1.00
C1774  C     0.28238   0.53670   0.75005   0.00000  Uiso   1.00
C1775  C     0.29585   0.46754   0.92166   0.00000  Uiso   1.00
C1776  C     0.24569   0.50061   0.83440   0.00000  Uiso   1.00
C1777  C     0.03778   0.52539   0.74375   0.00000  Uiso   1.00
C1778  C     0.10109   0.38051   0.77451   0.00000  Uiso   1.00
C1779  C     0.06105   0.37232   0.80095   0.00000  Uiso   1.00
C1780  C     0.02247   0.38635   0.76841   0.00000  Uiso   1.00
C1781  C     0.24195   0.62777   0.86856   0.00000  Uiso   1.00
C1782  C     0.25237   0.60305   0.91831   0.00000  Uiso   1.00
C1783  C     0.29925   0.59835   0.92920   0.00000  Uiso   1.00
C1784  C     0.21552   0.38016   0.91130   0.00000  Uiso   1.00
C1785  C     0.19070   0.37211   0.95645   0.00000  Uiso   1.00
C1786  C     0.21404   0.39175   0.66961   0.00000  Uiso   1.00
C1787  C     0.16677   0.50030   0.74044   0.00000  Uiso   1.00
C1788  C     0.11501   0.61800   0.75754   0.00000  Uiso   1.00
C1789  C     0.13619   0.62690   0.70943   0.00000  Uiso   1.00
C1790  C     0.10833   0.61176   0.99743   0.00000  Uiso   1.00
C1791  C     0.16683   0.49973   0.92626   0.00000  Uiso   1.00
C1792  C     0.16679   0.50047   0.68856   0.00000  Uiso   1.00
C1793  C     0.16679   0.49970   0.97812   0.00000  Uiso   1.00
C1794  C     0.02480   0.48177   0.87417   0.00000  Uiso   1.00
C1795  C     0.30880   0.51847   0.79282   0.00000  Uiso   1.00
C1796  C     0.31494   0.48310   0.87602   0.00000  Uiso   1.00
Cu1797 Cu    0.16667   0.54689   0.83333   0.00000  Uiso   1.00
Cu1798 Cu    0.16667   0.45311   0.83333   0.00000  Uiso   1.00
H1799  H     0.07953   0.41812   0.95959   0.00000  Uiso   1.00
H1800  H     0.10657   0.41685   0.76726   0.00000  Uiso   1.00
H1801  H     0.09577   0.36829   0.73632   0.00000  Uiso   1.00
H1802  H     0.31235   0.58063   0.89874   0.00000  Uiso   1.00
H1803  H     0.31480   0.63265   0.93376   0.00000  Uiso   1.00
H1804  H     0.30578   0.57818   0.96385   0.00000  Uiso   1.00
H1805  H     0.24075   0.62214   0.94873   0.00000  Uiso   1.00
H1806  H     0.23750   0.56863   0.91840   0.00000  Uiso   1.00
H1807  H     0.25116   0.60995   0.83646   0.00000  Uiso   1.00
H1808  H     0.26394   0.65755   0.86592   0.00000  Uiso   1.00
H1809  H     0.24241   0.37207   0.68004   0.00000  Uiso   1.00
H1810  H     0.25516   0.52643   0.68200   0.00000  Uiso   1.00
H1811  H     0.22311   0.42819   0.99690   0.00000  Uiso   1.00
H1812  H     0.19398   0.38959   0.70062   0.00000  Uiso   1.00
H1813  H     0.15972   0.38756   0.95025   0.00000  Uiso   1.00
H1814  H     0.18539   0.33484   0.96255   0.00000  Uiso   1.00
H1815  H     0.24686   0.36694   0.92089   0.00000  Uiso   1.00
H1816  H     0.22239   0.41641   0.90516   0.00000  Uiso   1.00
H1817  H     0.10188   0.57445   0.99917   0.00000  Uiso   1.00
H1818  H     0.07856   0.62995   0.99491   0.00000  Uiso   1.00
H1819  H     0.12409   0.61966   0.96354   0.00000  Uiso   1.00
H1820  H     0.14405   0.66372   0.70461   0.00000  Uiso   1.00
H1821  H     0.29724   0.42425   0.98052   0.00000  Uiso   1.00
H1822  H     0.16600   0.60900   0.71077   0.00000  Uiso   1.00
H1823  H     0.11018   0.58144   0.76305   0.00000  Uiso   1.00
H1824  H     0.08253   0.62916   0.75279   0.00000  Uiso   1.00
H1825  H     0.07999   0.50748   0.69825   0.00000  Uiso   1.00
H1826  H     0.02543   0.42268   0.75655   0.00000  Uiso   1.00
H1827  H     0.01806   0.36464   0.73525   0.00000  Uiso   1.00
H1828  H     0.32794   0.38193   0.78937   0.00000  Uiso   1.00
H1829  H     0.05687   0.33573   0.81163   0.00000  Uiso   1.00
H1830  H     0.06300   0.39154   0.83569   0.00000  Uiso   1.00
N1831  N     0.16667   0.61736   0.83333   0.00000  Uiso   1.00
N1832  N     0.16667   0.38264   0.83333   0.00000  Uiso   1.00
O1833  O     0.10655   0.53958   0.83333   0.00000  Uiso   1.00
O1834  O     0.05959   0.42246   0.92906   0.00000  Uiso   1.00
O1835  O     0.26844   0.57496   0.75150   0.00000  Uiso   1.00
O1836  O     0.27380   0.51018   0.70820   0.00000  Uiso   1.00
O1837  O     0.26680   0.48789   0.93556   0.00000  Uiso   1.00
O1838  O     0.31125   0.42983   0.94903   0.00000  Uiso   1.00
O1839  O     0.02768   0.55881   0.71827   0.00000  Uiso   1.00
O1840  O     0.06777   0.49645   0.72927   0.00000  Uiso   1.00
O1841  O     0.22679   0.46042   0.83334   0.00000  Uiso   1.00
O1842  O     0.22679   0.53958   0.83334   0.00000  Uiso   1.00
O1843  O     0.10655   0.46042   0.83333   0.00000  Uiso   1.00
O1844  O     0.16667   0.53959   0.76280   0.00000  Uiso   1.00
O1845  O     0.16667   0.46041   0.90387   0.00000  Uiso   1.00
O1846  O     0.16667   0.53959   0.90387   0.00000  Uiso   1.00
O1847  O     0.16667   0.46041   0.76280   0.00000  Uiso   1.00
O1848  O     0.06973   0.49847   0.94360   0.00000  Uiso   1.00
C1849  C     0.42100   0.49935   0.83217   0.00000  Uiso   1.00
C1850  C     0.35170   0.51473   0.79029   0.00000  Uiso   1.00
C1851  C     0.62396   0.50192   0.83513   0.00000  Uiso   1.00
C1852  C     0.37607   0.49778   0.83172   0.00000  Uiso   1.00
C1853  C     0.47131   0.35755   0.80293   0.00000  Uiso   1.00
C1854  C     0.53062   0.64337   0.86012   0.00000  Uiso   1.00
C1855  C     0.52636   0.35812   0.86579   0.00000  Uiso   1.00
C1856  C     0.47279   0.64158   0.80108   0.00000  Uiso   1.00
C1857  C     0.38559   0.46855   0.91818   0.00000  Uiso   1.00
C1858  C     0.61571   0.53670   0.75005   0.00000  Uiso   1.00
C1859  C     0.62919   0.46754   0.92166   0.00000  Uiso   1.00
C1860  C     0.57902   0.50061   0.83440   0.00000  Uiso   1.00
C1861  C     0.37111   0.52539   0.74375   0.00000  Uiso   1.00
C1862  C     0.43443   0.38051   0.77451   0.00000  Uiso   1.00
C1863  C     0.39438   0.37232   0.80095   0.00000  Uiso   1.00
C1864  C     0.35580   0.38635   0.76841   0.00000  Uiso   1.00
C1865  C     0.57528   0.62777   0.86856   0.00000  Uiso   1.00
C1866  C     0.58571   0.60305   0.91831   0.00000  Uiso   1.00
C1867  C     0.63259   0.59835   0.92920   0.00000  Uiso   1.00
C1868  C     0.54885   0.38016   0.91130   0.00000  Uiso   1.00
C1869  C     0.52403   0.37211   0.95645   0.00000  Uiso   1.00
C1870  C     0.54737   0.39175   0.66961   0.00000  Uiso   1.00
C1871  C     0.50010   0.50030   0.74044   0.00000  Uiso   1.00
C1872  C     0.44834   0.61800   0.75754   0.00000  Uiso   1.00
C1873  C     0.46953   0.62690   0.70943   0.00000  Uiso   1.00
C1874  C     0.44166   0.61176   0.99743   0.00000  Uiso   1.00
C1875  C     0.50016   0.49973   0.92626   0.00000  Uiso   1.00
C1876  C     0.50012   0.50047   0.68856   0.00000  Uiso   1.00
C1877  C     0.50012   0.49970   0.97812   0.00000  Uiso   1.00
C1878  C     0.35813   0.48177   0.87417   0.00000  Uiso   1.00
C1879  C     0.64213   0.51847   0.79282   0.00000  Uiso   1.00
C1880  C     0.64827   0.48310   0.87602   0.00000  Uiso   1.00
Cu1881 Cu    0.50000   0.54689   0.83333   0.00000  Uiso   1.00
Cu1882 Cu    0.50000   0.45311   0.83333   0.00000  Uiso   1.00
H1883  H     0.41286   0.41812   0.95959   0.00000  Uiso   1.00
H1884  H     0.43990   0.41685   0.76726   0.00000  Uiso   1.00
H1885  H     0.42911   0.36829   0.73632   0.00000  Uiso   1.00
H1886  H     0.64568   0.58063   0.89874   0.00000  Uiso   1.00
H1887  H     0.64813   0.63265   0.93376   0.00000  Uiso   1.00
H1888  H     0.63911   0.57818   0.96385   0.00000  Uiso   1.00
H1889  H     0.57408   0.62214   0.94873   0.00000  Uiso   1.00
H1890  H     0.57084   0.56863   0.91840   0.00000  Uiso   1.00
H1891  H     0.58449   0.60995   0.83646   0.00000  Uiso   1.00
H1892  H     0.59728   0.65755   0.86592   0.00000  Uiso   1.00
H1893  H     0.57574   0.37207   0.68004   0.00000  Uiso   1.00
H1894  H     0.58849   0.52643   0.68200   0.00000  Uiso   1.00
H1895  H     0.55644   0.42819   0.99690   0.00000  Uiso   1.00
H1896  H     0.52732   0.38959   0.70062   0.00000  Uiso   1.00
H1897  H     0.49306   0.38756   0.95025   0.00000  Uiso   1.00
H1898  H     0.51872   0.33484   0.96255   0.00000  Uiso   1.00
H1899  H     0.58019   0.36694   0.92089   0.00000  Uiso   1.00
H1900  H     0.55572   0.41641   0.90516   0.00000  Uiso   1.00
H1901  H     0.43521   0.57445   0.99917   0.00000  Uiso   1.00
H1902  H     0.41189   0.62995   0.99491   0.00000  Uiso   1.00
H1903  H     0.45742   0.61966   0.96354   0.00000  Uiso   1.00
H1904  H     0.47738   0.66372   0.70461   0.00000  Uiso   1.00
H1905  H     0.63057   0.42425   0.98052   0.00000  Uiso   1.00
H1906  H     0.49933   0.60900   0.71077   0.00000  Uiso   1.00
H1907  H     0.44352   0.58144   0.76305   0.00000  Uiso   1.00
H1908  H     0.41586   0.62916   0.75279   0.00000  Uiso   1.00
H1909  H     0.41333   0.50748   0.69825   0.00000  Uiso   1.00
H1910  H     0.35876   0.42268   0.75655   0.00000  Uiso   1.00
H1911  H     0.35139   0.36464   0.73525   0.00000  Uiso   1.00
H1912  H     0.66128   0.38193   0.78937   0.00000  Uiso   1.00
H1913  H     0.39021   0.33573   0.81163   0.00000  Uiso   1.00
H1914  H     0.39633   0.39154   0.83569   0.00000  Uiso   1.00
N1915  N     0.50000   0.61736   0.83333   0.00000  Uiso   1.00
N1916  N     0.50000   0.38264   0.83333   0.00000  Uiso   1.00
O1917  O     0.43988   0.53958   0.83333   0.00000  Uiso   1.00
O1918  O     0.39292   0.42246   0.92906   0.00000  Uiso   1.00
O1919  O     0.60177   0.57496   0.75150   0.00000  Uiso   1.00
O1920  O     0.60713   0.51018   0.70820   0.00000  Uiso   1.00
O1921  O     0.60013   0.48789   0.93556   0.00000  Uiso   1.00
O1922  O     0.64459   0.42983   0.94903   0.00000  Uiso   1.00
O1923  O     0.36102   0.55881   0.71827   0.00000  Uiso   1.00
O1924  O     0.40110   0.49645   0.72927   0.00000  Uiso   1.00
O1925  O     0.56012   0.46042   0.83334   0.00000  Uiso   1.00
O1926  O     0.56012   0.53958   0.83334   0.00000  Uiso   1.00
O1927  O     0.43988   0.46042   0.83333   0.00000  Uiso   1.00
O1928  O     0.50000   0.53959   0.76280   0.00000  Uiso   1.00
O1929  O     0.50000   0.46041   0.90387   0.00000  Uiso   1.00
O1930  O     0.50000   0.53959   0.90387   0.00000  Uiso   1.00
O1931  O     0.50000   0.46041   0.76280   0.00000  Uiso   1.00
O1932  O     0.40306   0.49847   0.94360   0.00000  Uiso   1.00
C1933  C     0.75434   0.49935   0.83217   0.00000  Uiso   1.00
C1934  C     0.68503   0.51473   0.79029   0.00000  Uiso   1.00
C1935  C     0.95729   0.50192   0.83513   0.00000  Uiso   1.00
C1936  C     0.70940   0.49778   0.83172   0.00000  Uiso   1.00
C1937  C     0.80465   0.35755   0.80293   0.00000  Uiso   1.00
C1938  C     0.86395   0.64337   0.86012   0.00000  Uiso   1.00
C1939  C     0.85969   0.35812   0.86579   0.00000  Uiso   1.00
C1940  C     0.80612   0.64158   0.80108   0.00000  Uiso   1.00
C1941  C     0.71893   0.46855   0.91818   0.00000  Uiso   1.00
C1942  C     0.94905   0.53670   0.75005   0.00000  Uiso   1.00
C1943  C     0.96252   0.46754   0.92166   0.00000  Uiso   1.00
C1944  C     0.91235   0.50061   0.83440   0.00000  Uiso   1.00
C1945  C     0.70444   0.52539   0.74375   0.00000  Uiso   1.00
C1946  C     0.76776   0.38051   0.77451   0.00000  Uiso   1.00
C1947  C     0.72772   0.37232   0.80095   0.00000  Uiso   1.00
C1948  C     0.68913   0.38635   0.76841   0.00000  Uiso   1.00
C1949  C     0.90862   0.62777   0.86856   0.00000  Uiso   1.00
C1950  C     0.91904   0.60305   0.91831   0.00000  Uiso   1.00
C1951  C     0.96592   0.59835   0.92920   0.00000  Uiso   1.00
C1952  C     0.88218   0.38016   0.91130   0.00000  Uiso   1.00
C1953  C     0.85737   0.37211   0.95645   0.00000  Uiso   1.00
C1954  C     0.88071   0.39175   0.66961   0.00000  Uiso   1.00
C1955  C     0.83344   0.50030   0.74044   0.00000  Uiso   1.00
C1956  C     0.78168   0.61800   0.75754   0.00000  Uiso   1.00
C1957  C     0.80286   0.62690   0.70943   0.00000  Uiso   1.00
C1958  C     0.77500   0.61176   0.99743   0.00000  Uiso   1.00
C1959  C     0.83350   0.49973   0.92626   0.00000  Uiso   1.00
C1960  C     0.83346   0.50047   0.68856   0.00000  Uiso   1.00
C1961  C     0.83346   0.49970   0.97812   0.00000  Uiso   1.00
C1962  C     0.69146   0.48177   0.87417   0.00000  Uiso   1.00
C1963  C     0.97547   0.51847   0.79282   0.00000  Uiso   1.00
C1964  C     0.98160   0.48310   0.87602   0.00000  Uiso   1.00
Cu1965 Cu    0.83333   0.54689   0.83333   0.00000  Uiso   1.00
Cu1966 Cu    0.83333   0.45311   0.83333   0.00000  Uiso   1.00
H1967  H     0.74620   0.41812   0.95959   0.00000  Uiso   1.00
H1968  H     0.77324   0.41685   0.76726   0.00000  Uiso   1.00
H1969  H     0.76244   0.36829   0.73632   0.00000  Uiso   1.00
H1970  H     0.97901   0.58063   0.89874   0.00000  Uiso   1.00
H1971  H     0.98147   0.63265   0.93376   0.00000  Uiso   1.00
H1972  H     0.97245   0.57818   0.96385   0.00000  Uiso   1.00
H1973  H     0.90742   0.62214   0.94873   0.00000  Uiso   1.00
H1974  H     0.90417   0.56863   0.91840   0.00000  Uiso   1.00
H1975  H     0.91782   0.60995   0.83646   0.00000  Uiso   1.00
H1976  H     0.93061   0.65755   0.86592   0.00000  Uiso   1.00
H1977  H     0.90907   0.37207   0.68004   0.00000  Uiso   1.00
H1978  H     0.92182   0.52643   0.68200   0.00000  Uiso   1.00
H1979  H     0.88978   0.42819   0.99690   0.00000  Uiso   1.00
H1980  H     0.86065   0.38959   0.70062   0.00000  Uiso   1.00
H1981  H     0.82639   0.38756   0.95025   0.00000  Uiso   1.00
H1982  H     0.85206   0.33484   0.96255   0.00000  Uiso   1.00
H1983  H     0.91352   0.36694   0.92089   0.00000  Uiso   1.00
H1984  H     0.88905   0.41641   0.90516   0.00000  Uiso   1.00
H1985  H     0.76854   0.57445   0.99917   0.00000  Uiso   1.00
H1986  H     0.74522   0.62995   0.99491   0.00000  Uiso   1.00
H1987  H     0.79075   0.61966   0.96354   0.00000  Uiso   1.00
H1988  H     0.81072   0.66372   0.70461   0.00000  Uiso   1.00
H1989  H     0.96390   0.42425   0.98052   0.00000  Uiso   1.00
H1990  H     0.83267   0.60900   0.71077   0.00000  Uiso   1.00
H1991  H     0.77685   0.58144   0.76305   0.00000  Uiso   1.00
H1992  H     0.74919   0.62916   0.75279   0.00000  Uiso   1.00
H1993  H     0.74666   0.50748   0.69825   0.00000  Uiso   1.00
H1994  H     0.69209   0.42268   0.75655   0.00000  Uiso   1.00
H1995  H     0.68473   0.36464   0.73525   0.00000  Uiso   1.00
H1996  H     0.99461   0.38193   0.78937   0.00000  Uiso   1.00
H1997  H     0.72354   0.33573   0.81163   0.00000  Uiso   1.00
H1998  H     0.72966   0.39154   0.83569   0.00000  Uiso   1.00
N1999  N     0.83333   0.61736   0.83333   0.00000  Uiso   1.00
N2000  N     0.83333   0.38264   0.83333   0.00000  Uiso   1.00
O2001  O     0.77321   0.53958   0.83333   0.00000  Uiso   1.00
O2002  O     0.72626   0.42246   0.92906   0.00000  Uiso   1.00
O2003  O     0.93510   0.57496   0.75150   0.00000  Uiso   1.00
O2004  O     0.94046   0.51018   0.70820   0.00000  Uiso   1.00
O2005  O     0.93347   0.48789   0.93556   0.00000  Uiso   1.00
O2006  O     0.97792   0.42983   0.94903   0.00000  Uiso   1.00
O2007  O     0.69435   0.55881   0.71827   0.00000  Uiso   1.00
O2008  O     0.73444   0.49645   0.72927   0.00000  Uiso   1.00
O2009  O     0.89345   0.46042   0.83334   0.00000  Uiso   1.00
O2010  O     0.89345   0.53958   0.83334   0.00000  Uiso   1.00
O2011  O     0.77321   0.46042   0.83333   0.00000  Uiso   1.00
O2012  O     0.83333   0.53959   0.76280   0.00000  Uiso   1.00
O2013  O     0.83333   0.46041   0.90387   0.00000  Uiso   1.00
O2014  O     0.83333   0.53959   0.90387   0.00000  Uiso   1.00
O2015  O     0.83333   0.46041   0.76280   0.00000  Uiso   1.00
O2016  O     0.73639   0.49847   0.94360   0.00000  Uiso   1.00
C2017  C     0.08767   0.83269   0.83217   0.00000  Uiso   1.00
C2018  C     0.01836   0.84806   0.79029   0.00000  Uiso   1.00
C2019  C     0.29063   0.83525   0.83513   0.00000  Uiso   1.00
C2020  C     0.04273   0.83112   0.83172   0.00000  Uiso   1.00
C2021  C     0.13798   0.69088   0.80293   0.00000  Uiso   1.00
C2022  C     0.19728   0.97671   0.86012   0.00000  Uiso   1.00
C2023  C     0.19303   0.69145   0.86579   0.00000  Uiso   1.00
C2024  C     0.13946   0.97492   0.80108   0.00000  Uiso   1.00
C2025  C     0.05226   0.80189   0.91818   0.00000  Uiso   1.00
C2026  C     0.28238   0.87003   0.75005   0.00000  Uiso   1.00
C2027  C     0.29585   0.80087   0.92166   0.00000  Uiso   1.00
C2028  C     0.24569   0.83394   0.83440   0.00000  Uiso   1.00
C2029  C     0.03778   0.85872   0.74375   0.00000  Uiso   1.00
C2030  C     0.10109   0.71385   0.77451   0.00000  Uiso   1.00
C2031  C     0.06105   0.70566   0.80095   0.00000  Uiso   1.00
C2032  C     0.02247   0.71968   0.76841   0.00000  Uiso   1.00
C2033  C     0.24195   0.96111   0.86856   0.00000  Uiso   1.00
C2034  C     0.25237   0.93639   0.91831   0.00000  Uiso   1.00
C2035  C     0.29925   0.93169   0.92920   0.00000  Uiso   1.00
C2036  C     0.21552   0.71349   0.91130   0.00000  Uiso   1.00
C2037  C     0.19070   0.70544   0.95645   0.00000  Uiso   1.00
C2038  C     0.21404   0.72508   0.66961   0.00000  Uiso   1.00
C2039  C     0.16677   0.83364   0.74044   0.00000  Uiso   1.00
C2040  C     0.11501   0.95133   0.75754   0.00000  Uiso   1.00
C2041  C     0.13619   0.96024   0.70943   0.00000  Uiso   1.00
C2042  C     0.10833   0.94510   0.99743   0.00000  Uiso   1.00
C2043  C     0.16683   0.83306   0.92626   0.00000  Uiso   1.00
C2044  C     0.16679   0.83380   0.68856   0.00000  Uiso   1.00
C2045  C     0.16679   0.83303   0.97812   0.00000  Uiso   1.00
C2046  C     0.02480   0.81511   0.87417   0.00000  Uiso   1.00
C2047  C     0.30880   0.85180   0.79282   0.00000  Uiso   1.00
C2048  C     0.31494   0.81644   0.87602   0.00000  Uiso   1.00
Cu2049 Cu    0.16667   0.88022   0.83333   0.00000  Uiso   1.00
Cu2050 Cu    0.16667   0.78645   0.83333   0.00000  Uiso   1.00
H2051  H     0.07953   0.75145   0.95959   0.00000  Uiso   1.00
H2052  H     0.10657   0.75019   0.76726   0.00000  Uiso   1.00
H2053  H     0.09577   0.70162   0.73632   0.00000  Uiso   1.00
H2054  H     0.31235   0.91396   0.89874   0.00000  Uiso   1.00
H2055  H     0.31480   0.96599   0.93376   0.00000  Uiso   1.00
H2056  H     0.30578   0.91151   0.96385   0.00000  Uiso   1.00
H2057  H     0.24075   0.95547   0.94873   0.00000  Uiso   1.00
H2058  H     0.23750   0.90196   0.91840   0.00000  Uiso   1.00
H2059  H     0.25116   0.94329   0.83646   0.00000  Uiso   1.00
H2060  H     0.26394   0.99089   0.86592   0.00000  Uiso   1.00
H2061  H     0.24241   0.70541   0.68004   0.00000  Uiso   1.00
H2062  H     0.25516   0.85976   0.68200   0.00000  Uiso   1.00
H2063  H     0.22311   0.76153   0.99690   0.00000  Uiso   1.00
H2064  H     0.19398   0.72292   0.70062   0.00000  Uiso   1.00
H2065  H     0.15972   0.72089   0.95025   0.00000  Uiso   1.00
H2066  H     0.18539   0.66817   0.96255   0.00000  Uiso   1.00
H2067  H     0.24686   0.70028   0.92089   0.00000  Uiso   1.00
H2068  H     0.22239   0.74974   0.90516   0.00000  Uiso   1.00
H2069  H     0.10188   0.90778   0.99917   0.00000  Uiso   1.00
H2070  H     0.07856   0.96329   0.99491   0.00000  Uiso   1.00
H2071  H     0.12409   0.95299   0.96354   0.00000  Uiso   1.00
H2072  H     0.14405   0.99705   0.70461   0.00000  Uiso   1.00
H2073  H     0.29724   0.75758   0.98052   0.00000  Uiso   1.00
H2074  H     0.16600   0.94233   0.71077   0.00000  Uiso   1.00
H2075  H     0.11018   0.91478   0.76305   0.00000  Uiso   1.00
H2076  H     0.08253   0.96249   0.75279   0.00000  Uiso   1.00
H2077  H     0.07999   0.84081   0.69825   0.00000  Uiso   1.00
H2078  H     0.02543   0.75601   0.75655   0.00000  Uiso   1.00
H2079  H     0.01806   0.69798   0.73525   0.00000  Uiso   1.00
H2080  H     0.32794   0.71526   0.78937   0.00000  Uiso   1.00
H2081  H     0.05687   0.66906   0.81163   0.00000  Uiso   1.00
H2082  H     0.06300   0.72488   0.83569   0.00000  Uiso   1.00
N2083  N     0.16667   0.95069   0.83333   0.00000  Uiso   1.00
N2084  N     0.16667   0.71598   0.83333   0.00000  Uiso   1.00
O2085  O     0.10655   0.87291   0.83333   0.00000  Uiso   1.00
O2086  O     0.05959   0.75579   0.92906   0.00000  Uiso   1.00
O2087  O     0.26844   0.90829   0.75150   0.00000  Uiso   1.00
O2088  O     0.27380   0.84351   0.70820   0.00000  Uiso   1.00
O2089  O     0.26680   0.82123   0.93556   0.00000  Uiso   1.00
O2090  O     0.31125   0.76317   0.94903   0.00000  Uiso   1.00
O2091  O     0.02768   0.89215   0.71827   0.00000  Uiso   1.00
O2092  O     0.06777   0.82978   0.72927   0.00000  Uiso   1.00
O2093  O     0.22679   0.79375   0.83334   0.00000  Uiso   1.00
O2094  O     0.22679   0.87291   0.83334   0.00000  Uiso   1.00
O2095  O     0.10655   0.79375   0.83333   0.00000  Uiso   1.00
O2096  O     0.16667   0.87292   0.76280   0.00000  Uiso   1.00
O2097  O     0.16667   0.79375   0.90387   0.00000  Uiso   1.00
O2098  O     0.16667   0.87292   0.90387   0.00000  Uiso   1.00
O2099  O     0.16667   0.79375   0.76280   0.00000  Uiso   1.00
O2100  O     0.06973   0.83180   0.94360   0.00000  Uiso   1.00
C2101  C     0.42100   0.83269   0.83217   0.00000  Uiso   1.00
C2102  C     0.35170   0.84806   0.79029   0.00000  Uiso   1.00
C2103  C     0.62396   0.83525   0.83513   0.00000  Uiso   1.00
C2104  C     0.37607   0.83112   0.83172   0.00000  Uiso   1.00
C2105  C     0.47131   0.69088   0.80293   0.00000  Uiso   1.00
C2106  C     0.53062   0.97671   0.86012   0.00000  Uiso   1.00
C2107  C     0.52636   0.69145   0.86579   0.00000  Uiso   1.00
C2108  C     0.47279   0.97492   0.80108   0.00000  Uiso   1.00
C2109  C     0.38559   0.80189   0.91818   0.00000  Uiso   1.00
C2110  C     0.61571   0.87003   0.75005   0.00000  Uiso   1.00
C2111  C     0.62919   0.80087   0.92166   0.00000  Uiso   1.00
C2112  C     0.57902   0.83394   0.83440   0.00000  Uiso   1.00
C2113  C     0.37111   0.85872   0.74375   0.00000  Uiso   1.00
C2114  C     0.43443   0.71385   0.77451   0.00000  Uiso   1.00
C2115  C     0.39438   0.70566   0.80095   0.00000  Uiso   1.00
C2116  C     0.35580   0.71968   0.76841   0.00000  Uiso   1.00
C2117  C     0.57528   0.96111   0.86856   0.00000  Uiso   1.00
C2118  C     0.58571   0.93639   0.91831   0.00000  Uiso   1.00
C2119  C     0.63259   0.93169   0.92920   0.00000  Uiso   1.00
C2120  C     0.54885   0.71349   0.91130   0.00000  Uiso   1.00
C2121  C     0.52403   0.70544   0.95645   0.00000  Uiso   1.00
C2122  C     0.54737   0.72508   0.66961   0.00000  Uiso   1.00
C2123  C     0.50010   0.83364   0.74044   0.00000  Uiso   1.00
C2124  C     0.44834   0.95133   0.75754   0.00000  Uiso   1.00
C2125  C     0.46953   0.96024   0.70943   0.00000  Uiso   1.00
C2126  C     0.44166   0.94510   0.99743   0.00000  Uiso   1.00
C2127  C     0.50016   0.83306   0.92626   0.00000  Uiso   1.00
C2128  C     0.50012   0.83380   0.68856   0.00000  Uiso   1.00
C2129  C     0.50012   0.83303   0.97812   0.00000  Uiso   1.00
C2130  C     0.35813   0.81511   0.87417   0.00000  Uiso   1.00
C2131  C     0.64213   0.85180   0.79282   0.00000  Uiso   1.00
C2132  C     0.64827   0.81644   0.87602   0.00000  Uiso   1.00
Cu2133 Cu    0.50000   0.88022   0.83333   0.00000  Uiso   1.00
Cu2134 Cu    0.50000   0.78645   0.83333   0.00000  Uiso   1.00
H2135  H     0.41286   0.75145   0.95959   0.00000  Uiso   1.00
H2136  H     0.43990   0.75019   0.76726   0.00000  Uiso   1.00
H2137  H     0.42911   0.70162   0.73632   0.00000  Uiso   1.00
H2138  H     0.64568   0.91396   0.89874   0.00000  Uiso   1.00
H2139  H     0.64813   0.96599   0.93376   0.00000  Uiso   1.00
H2140  H     0.63911   0.91151   0.96385   0.00000  Uiso   1.00
H2141  H     0.57408   0.95547   0.94873   0.00000  Uiso   1.00
H2142  H     0.57084   0.90196   0.91840   0.00000  Uiso   1.00
H2143  H     0.58449   0.94329   0.83646   0.00000  Uiso   1.00
H2144  H     0.59728   0.99089   0.86592   0.00000  Uiso   1.00
H2145  H     0.57574   0.70541   0.68004   0.00000  Uiso   1.00
H2146  H     0.58849   0.85976   0.68200   0.00000  Uiso   1.00
H2147  H     0.55644   0.76153   0.99690   0.00000  Uiso   1.00
H2148  H     0.52732   0.72292   0.70062   0.00000  Uiso   1.00
H2149  H     0.49306   0.72089   0.95025   0.00000  Uiso   1.00
H2150  H     0.51872   0.66817   0.96255   0.00000  Uiso   1.00
H2151  H     0.58019   0.70028   0.92089   0.00000  Uiso   1.00
H2152  H     0.55572   0.74974   0.90516   0.00000  Uiso   1.00
H2153  H     0.43521   0.90778   0.99917   0.00000  Uiso   1.00
H2154  H     0.41189   0.96329   0.99491   0.00000  Uiso   1.00
H2155  H     0.45742   0.95299   0.96354   0.00000  Uiso   1.00
H2156  H     0.47738   0.99705   0.70461   0.00000  Uiso   1.00
H2157  H     0.63057   0.75758   0.98052   0.00000  Uiso   1.00
H2158  H     0.49933   0.94233   0.71077   0.00000  Uiso   1.00
H2159  H     0.44352   0.91478   0.76305   0.00000  Uiso   1.00
H2160  H     0.41586   0.96249   0.75279   0.00000  Uiso   1.00
H2161  H     0.41333   0.84081   0.69825   0.00000  Uiso   1.00
H2162  H     0.35876   0.75601   0.75655   0.00000  Uiso   1.00
H2163  H     0.35139   0.69798   0.73525   0.00000  Uiso   1.00
H2164  H     0.66128   0.71526   0.78937   0.00000  Uiso   1.00
H2165  H     0.39021   0.66906   0.81163   0.00000  Uiso   1.00
H2166  H     0.39633   0.72488   0.83569   0.00000  Uiso   1.00
N2167  N     0.50000   0.95069   0.83333   0.00000  Uiso   1.00
N2168  N     0.50000   0.71598   0.83333   0.00000  Uiso   1.00
O2169  O     0.43988   0.87291   0.83333   0.00000  Uiso   1.00
O2170  O     0.39292   0.75579   0.92906   0.00000  Uiso   1.00
O2171  O     0.60177   0.90829   0.75150   0.00000  Uiso   1.00
O2172  O     0.60713   0.84351   0.70820   0.00000  Uiso   1.00
O2173  O     0.60013   0.82123   0.93556   0.00000  Uiso   1.00
O2174  O     0.64459   0.76317   0.94903   0.00000  Uiso   1.00
O2175  O     0.36102   0.89215   0.71827   0.00000  Uiso   1.00
O2176  O     0.40110   0.82978   0.72927   0.00000  Uiso   1.00
O2177  O     0.56012   0.79375   0.83334   0.00000  Uiso   1.00
O2178  O     0.56012   0.87291   0.83334   0.00000  Uiso   1.00
O2179  O     0.43988   0.79375   0.83333   0.00000  Uiso   1.00
O2180  O     0.50000   0.87292   0.76280   0.00000  Uiso   1.00
O2181  O     0.50000   0.79375   0.90387   0.00000  Uiso   1.00
O2182  O     0.50000   0.87292   0.90387   0.00000  Uiso   1.00
O2183  O     0.50000   0.79375   0.76280   0.00000  Uiso   1.00
O2184  O     0.40306   0.83180   0.94360   0.00000  Uiso   1.00
C2185  C     0.75434   0.83269   0.83217   0.00000  Uiso   1.00
C2186  C     0.68503   0.84806   0.79029   0.00000  Uiso   1.00
C2187  C     0.95729   0.83525   0.83513   0.00000  Uiso   1.00
C2188  C     0.70940   0.83112   0.83172   0.00000  Uiso   1.00
C2189  C     0.80465   0.69088   0.80293   0.00000  Uiso   1.00
C2190  C     0.86395   0.97671   0.86012   0.00000  Uiso   1.00
C2191  C     0.85969   0.69145   0.86579   0.00000  Uiso   1.00
C2192  C     0.80612   0.97492   0.80108   0.00000  Uiso   1.00
C2193  C     0.71893   0.80189   0.91818   0.00000  Uiso   1.00
C2194  C     0.94905   0.87003   0.75005   0.00000  Uiso   1.00
C2195  C     0.96252   0.80087   0.92166   0.00000  Uiso   1.00
C2196  C     0.91235   0.83394   0.83440   0.00000  Uiso   1.00
C2197  C     0.70444   0.85872   0.74375   0.00000  Uiso   1.00
C2198  C     0.76776   0.71385   0.77451   0.00000  Uiso   1.00
C2199  C     0.72772   0.70566   0.80095   0.00000  Uiso   1.00
C2200  C     0.68913   0.71968   0.76841   0.00000  Uiso   1.00
C2201  C     0.90862   0.96111   0.86856   0.00000  Uiso   1.00
C2202  C     0.91904   0.93639   0.91831   0.00000  Uiso   1.00
C2203  C     0.96592   0.93169   0.92920   0.00000  Uiso   1.00
C2204  C     0.88218   0.71349   0.91130   0.00000  Uiso   1.00
C2205  C     0.85737   0.70544   0.95645   0.00000  Uiso   1.00
C2206  C     0.88071   0.72508   0.66961   0.00000  Uiso   1.00
C2207  C     0.83344   0.83364   0.74044   0.00000  Uiso   1.00
C2208  C     0.78168   0.95133   0.75754   0.00000  Uiso   1.00
C2209  C     0.80286   0.96024   0.70943   0.00000  Uiso   1.00
C2210  C     0.77500   0.94510   0.99743   0.00000  Uiso   1.00
C2211  C     0.83350   0.83306   0.92626   0.00000  Uiso   1.00
C2212  C     0.83346   0.83380   0.68856   0.00000  Uiso   1.00
C2213  C     0.83346   0.83303   0.97812   0.00000  Uiso   1.00
C2214  C     0.69146   0.81511   0.87417   0.00000  Uiso   1.00
C2215  C     0.97547   0.85180   0.79282   0.00000  Uiso   1.00
C2216  C     0.98160   0.81644   0.87602   0.00000  Uiso   1.00
Cu2217 Cu    0.83333   0.88022   0.83333   0.00000  Uiso   1.00
Cu2218 Cu    0.83333   0.78645   0.83333   0.00000  Uiso   1.00
H2219  H     0.74620   0.75145   0.95959   0.00000  Uiso   1.00
H2220  H     0.77324   0.75019   0.76726   0.00000  Uiso   1.00
H2221  H     0.76244   0.70162   0.73632   0.00000  Uiso   1.00
H2222  H     0.97901   0.91396   0.89874   0.00000  Uiso   1.00
H2223  H     0.98147   0.96599   0.93376   0.00000  Uiso   1.00
H2224  H     0.97245   0.91151   0.96385   0.00000  Uiso   1.00
H2225  H     0.90742   0.95547   0.94873   0.00000  Uiso   1.00
H2226  H     0.90417   0.90196   0.91840   0.00000  Uiso   1.00
H2227  H     0.91782   0.94329   0.83646   0.00000  Uiso   1.00
H2228  H     0.93061   0.99089   0.86592   0.00000  Uiso   1.00
H2229  H     0.90907   0.70541   0.68004   0.00000  Uiso   1.00
H2230  H     0.92182   0.85976   0.68200   0.00000  Uiso   1.00
H2231  H     0.88978   0.76153   0.99690   0.00000  Uiso   1.00
H2232  H     0.86065   0.72292   0.70062   0.00000  Uiso   1.00
H2233  H     0.82639   0.72089   0.95025   0.00000  Uiso   1.00
H2234  H     0.85206   0.66817   0.96255   0.00000  Uiso   1.00
H2235  H     0.91352   0.70028   0.92089   0.00000  Uiso   1.00
H2236  H     0.88905   0.74974   0.90516   0.00000  Uiso   1.00
H2237  H     0.76854   0.90778   0.99917   0.00000  Uiso   1.00
H2238  H     0.74522   0.96329   0.99491   0.00000  Uiso   1.00
H2239  H     0.79075   0.95299   0.96354   0.00000  Uiso   1.00
H2240  H     0.81072   0.99705   0.70461   0.00000  Uiso   1.00
H2241  H     0.96390   0.75758   0.98052   0.00000  Uiso   1.00
H2242  H     0.83267   0.94233   0.71077   0.00000  Uiso   1.00
H2243  H     0.77685   0.91478   0.76305   0.00000  Uiso   1.00
H2244  H     0.74919   0.96249   0.75279   0.00000  Uiso   1.00
H2245  H     0.74666   0.84081   0.69825   0.00000  Uiso   1.00
H2246  H     0.69209   0.75601   0.75655   0.00000  Uiso   1.00
H2247  H     0.68473   0.69798   0.73525   0.00000  Uiso   1.00
H2248  H     0.99461   0.71526   0.78937   0.00000  Uiso   1.00
H2249  H     0.72354   0.66906   0.81163   0.00000  Uiso   1.00
H2250  H     0.72966   0.72488   0.83569   0.00000  Uiso   1.00
N2251  N     0.83333   0.95069   0.83333   0.00000  Uiso   1.00
N2252  N     0.83333   0.71598   0.83333   0.00000  Uiso   1.00
O2253  O     0.77321   0.87291   0.83333   0.00000  Uiso   1.00
O2254  O     0.72626   0.75579   0.92906   0.00000  Uiso   1.00
O2255  O     0.93510   0.90829   0.75150   0.00000  Uiso   1.00
O2256  O     0.94046   0.84351   0.70820   0.00000  Uiso   1.00
O2257  O     0.93347   0.82123   0.93556   0.00000  Uiso   1.00
O2258  O     0.97792   0.76317   0.94903   0.00000  Uiso   1.00
O2259  O     0.69435   0.89215   0.71827   0.00000  Uiso   1.00
O2260  O     0.73444   0.82978   0.72927   0.00000  Uiso   1.00
O2261  O     0.89345   0.79375   0.83334   0.00000  Uiso   1.00
O2262  O     0.89345   0.87291   0.83334   0.00000  Uiso   1.00
O2263  O     0.77321   0.79375   0.83333   0.00000  Uiso   1.00
O2264  O     0.83333   0.87292   0.76280   0.00000  Uiso   1.00
O2265  O     0.83333   0.79375   0.90387   0.00000  Uiso   1.00
O2266  O     0.83333   0.87292   0.90387   0.00000  Uiso   1.00
O2267  O     0.83333   0.79375   0.76280   0.00000  Uiso   1.00
O2268  O     0.73639   0.83180   0.94360   0.00000  Uiso   1.00
loop_
_geom_bond_atom_site_label_1
_geom_bond_atom_site_label_2
_geom_bond_distance
_geom_bond_site_symmetry_2
_ccdc_geom_bond_type
C1     O69     1.306   .     A
C1     O79     1.308   .     A
C1     C4      1.450   .     S
C2     C13     1.486   .     S
C2     C4      1.408   .     A
C2     C199    1.402   1_455 S
C3     C12     1.450   .     S
C3     C31     1.409   .     A
C3     C32     1.417   .     A
C4     C30     1.404   .     A
C5     N68     1.388   .     A
C5     C14     1.529   .     S
C5     C512    1.446   1_545 S
C6     N67     1.391   .     A
C6     C17     1.525   .     S
C6     C259    1.430   .     S
C7     N68     1.379   .     A
C7     C20     1.524   .     S
C7     C510    1.430   1_545 S
C8     C24     1.529   .     S
C8     N67     1.387   .     A
C8     C257    1.446   .     S
C9     O70     1.397   .     S
C9     C30     1.479   .     S
C9     O84     1.219   .     D
C10    C31     1.482   .     S
C10    O71     1.223   .     D
C10    O72     1.395   .     S
C11    O73     1.220   .     D
C11    C32     1.492   .     S
C11    O74     1.398   .     S
C12    O78     1.309   .     A
C12    O77     1.306   .     A
C13    O75     1.223   .     D
C13    O76     1.396   .     S
C14    H36     1.088   .     S
C14    H37     1.104   .     S
C14    C15     1.545   .     S
C15    C16     1.526   .     S
C15    H65     1.110   .     S
C15    H66     1.107   .     S
C16    H62     1.107   .     S
C16    H63     1.111   .     S
C16    H232    1.111   1_455 S
C17    C18     1.538   .     S
C17    H43     1.096   .     S
C17    H44     1.111   .     S
C18    H42     1.101   .     S
C18    C19     1.528   .     S
C18    H41     1.108   .     S
C19    H38     1.110   .     S
C19    H39     1.111   .     S
C19    H40     1.110   .     S
C20    H51     1.104   .     S
C20    H52     1.088   .     S
C20    C21     1.537   .     S
C21    H49     1.110   .     S
C21    H50     1.109   .     S
C21    C778    1.528   .     S
C22    H48     1.109   .     S
C22    H45     1.111   .     S
C22    C1533   1.528   1_554 S
C22    H1559   1.109   1_554 S
C23    O83     1.304   .     A
C23    O80     1.312   .     A
C23    C28     1.413   .     S
C24    H60     1.105   .     S
C24    C25     1.545   .     S
C24    H59     1.084   .     S
C25    H56     1.106   .     S
C25    H58     1.109   .     S
C25    C1538   1.526   1_554 S
C26    H55     1.110   .     S
C26    H54     1.111   .     S
C26    H53     1.105   .     S
C26    C781    1.526   .     S
C27    C29     1.413   .     S
C27    O81     1.313   .     A
C27    O82     1.304   .     A
C28    C1541   1.193   1_554 S
C29    C784    1.193   .     S
C30    C200    1.403   1_455 S
C31    C86     1.402   .     S
C32    C114    1.403   .     S
Cu33   O78     1.961   .     S
Cu33   O82     1.929   .     S
Cu33   O69     1.947   .     S
Cu33   Cu34    2.742   .     S
Cu33   N67     2.061   .     S
Cu33   O80     1.938   .     S
Cu34   O77     1.947   .     S
Cu34   O81     1.938   .     S
Cu34   N68     2.061   .     S
Cu34   O79     1.961   .     S
Cu34   O83     1.929   .     S
H35    O70     1.014   .     S
H46    O72     1.013   .     S
H47    C778    1.109   .     S
H57    O74     1.013   .     S
H61    O76     1.006   .     S
H64    C100    1.111   .     S
C85    O153    1.306   .     A
C85    O163    1.308   .     A
C85    C88     1.450   .     S
C86    C97     1.486   .     S
C86    C88     1.408   .     A
C87    C96     1.450   .     S
C87    C115    1.409   .     A
C87    C116    1.417   .     A
C88    C114    1.404   .     A
C89    N152    1.388   .     A
C89    C98     1.529   .     S
C89    C596    1.446   1_545 S
C90    N151    1.391   .     A
C90    C101    1.525   .     S
C90    C343    1.430   .     S
C91    N152    1.379   .     A
C91    C104    1.524   .     S
C91    C594    1.430   1_545 S
C92    C108    1.529   .     S
C92    N151    1.387   .     A
C92    C341    1.446   .     S
C93    O154    1.397   .     S
C93    C114    1.479   .     S
C93    O168    1.219   .     D
C94    C115    1.482   .     S
C94    O155    1.223   .     D
C94    O156    1.395   .     S
C95    O157    1.220   .     D
C95    C116    1.492   .     S
C95    O158    1.398   .     S
C96    O162    1.309   .     A
C96    O161    1.306   .     A
C97    O159    1.223   .     D
C97    O160    1.396   .     S
C98    H120    1.088   .     S
C98    H121    1.104   .     S
C98    C99     1.545   .     S
C99    C100    1.526   .     S
C99    H149    1.110   .     S
C99    H150    1.107   .     S
C100   H146    1.107   .     S
C100   H147    1.111   .     S
C101   C102    1.538   .     S
C101   H127    1.096   .     S
C101   H128    1.111   .     S
C102   H126    1.101   .     S
C102   C103    1.528   .     S
C102   H125    1.108   .     S
C103   H122    1.110   .     S
C103   H123    1.111   .     S
C103   H124    1.110   .     S
C104   H135    1.104   .     S
C104   H136    1.088   .     S
C104   C105    1.537   .     S
C105   H133    1.110   .     S
C105   H134    1.109   .     S
C105   C862    1.528   .     S
C106   H132    1.109   .     S
C106   H129    1.111   .     S
C106   C1617   1.528   1_554 S
C106   H1643   1.109   1_554 S
C107   O167    1.304   .     A
C107   O164    1.312   .     A
C107   C112    1.413   .     S
C108   H144    1.105   .     S
C108   C109    1.545   .     S
C108   H143    1.084   .     S
C109   H140    1.106   .     S
C109   H142    1.109   .     S
C109   C1622   1.526   1_554 S
C110   H139    1.110   .     S
C110   H138    1.111   .     S
C110   H137    1.105   .     S
C110   C865    1.526   .     S
C111   C113    1.413   .     S
C111   O165    1.313   .     A
C111   O166    1.304   .     A
C112   C1625   1.193   1_554 S
C113   C868    1.193   .     S
C115   C170    1.402   .     S
C116   C198    1.403   .     S
Cu117  O162    1.961   .     S
Cu117  O166    1.929   .     S
Cu117  O153    1.947   .     S
Cu117  Cu118   2.742   .     S
Cu117  N151    2.061   .     S
Cu117  O164    1.938   .     S
Cu118  O161    1.947   .     S
Cu118  O165    1.938   .     S
Cu118  N152    2.061   .     S
Cu118  O163    1.961   .     S
Cu118  O167    1.929   .     S
H119   O154    1.014   .     S
H130   O156    1.013   .     S
H131   C862    1.109   .     S
H141   O158    1.013   .     S
H145   O160    1.006   .     S
H148   C184    1.111   .     S
C169   O237    1.306   .     A
C169   O247    1.308   .     A
C169   C172    1.450   .     S
C170   C181    1.486   .     S
C170   C172    1.408   .     A
C171   C180    1.450   .     S
C171   C199    1.409   .     A
C171   C200    1.417   .     A
C172   C198    1.404   .     A
C173   N236    1.388   .     A
C173   C182    1.529   .     S
C173   C680    1.446   1_545 S
C174   N235    1.391   .     A
C174   C185    1.525   .     S
C174   C427    1.430   .     S
C175   N236    1.379   .     A
C175   C188    1.524   .     S
C175   C678    1.430   1_545 S
C176   C192    1.529   .     S
C176   N235    1.387   .     A
C176   C425    1.446   .     S
C177   O238    1.397   .     S
C177   C198    1.479   .     S
C177   O252    1.219   .     D
C178   C199    1.482   .     S
C178   O239    1.223   .     D
C178   O240    1.395   .     S
C179   O241    1.220   .     D
C179   C200    1.492   .     S
C179   O242    1.398   .     S
C180   O246    1.309   .     A
C180   O245    1.306   .     A
C181   O243    1.223   .     D
C181   O244    1.396   .     S
C182   H204    1.088   .     S
C182   H205    1.104   .     S
C182   C183    1.545   .     S
C183   C184    1.526   .     S
C183   H233    1.110   .     S
C183   H234    1.107   .     S
C184   H230    1.107   .     S
C184   H231    1.111   .     S
C185   C186    1.538   .     S
C185   H211    1.096   .     S
C185   H212    1.111   .     S
C186   H210    1.101   .     S
C186   C187    1.528   .     S
C186   H209    1.108   .     S
C187   H206    1.110   .     S
C187   H207    1.111   .     S
C187   H208    1.110   .     S
C188   H219    1.104   .     S
C188   H220    1.088   .     S
C188   C189    1.537   .     S
C189   H217    1.110   .     S
C189   H218    1.109   .     S
C189   C946    1.528   .     S
C190   H216    1.109   .     S
C190   H213    1.111   .     S
C190   C1701   1.528   1_554 S
C190   H1727   1.109   1_554 S
C191   O251    1.304   .     A
C191   O248    1.312   .     A
C191   C196    1.413   .     S
C192   H228    1.105   .     S
C192   C193    1.545   .     S
C192   H227    1.084   .     S
C193   H224    1.106   .     S
C193   H226    1.109   .     S
C193   C1706   1.526   1_554 S
C194   H223    1.110   .     S
C194   H222    1.111   .     S
C194   H221    1.105   .     S
C194   C949    1.526   .     S
C195   C197    1.413   .     S
C195   O249    1.313   .     A
C195   O250    1.304   .     A
C196   C1709   1.193   1_554 S
C197   C952    1.193   .     S
C199   C2      1.402   1_655 S
C200   C30     1.403   1_655 S
Cu201  O246    1.961   .     S
Cu201  O250    1.929   .     S
Cu201  O237    1.947   .     S
Cu201  Cu202   2.742   .     S
Cu201  N235    2.061   .     S
Cu201  O248    1.938   .     S
Cu202  O245    1.947   .     S
Cu202  O249    1.938   .     S
Cu202  N236    2.061   .     S
Cu202  O247    1.961   .     S
Cu202  O251    1.929   .     S
H203   O238    1.014   .     S
H214   O240    1.013   .     S
H215   C946    1.109   .     S
H225   O242    1.013   .     S
H229   O244    1.006   .     S
H232   C16     1.111   1_655 S
C253   O321    1.306   .     A
C253   O331    1.308   .     A
C253   C256    1.450   .     S
C254   C265    1.486   .     S
C254   C256    1.408   .     A
C254   C451    1.402   1_455 S
C255   C264    1.450   .     S
C255   C283    1.409   .     A
C255   C284    1.417   .     A
C256   C282    1.404   .     A
C257   N320    1.388   .     A
C257   C266    1.529   .     S
C258   N319    1.391   .     A
C258   C269    1.525   .     S
C258   C511    1.430   .     S
C259   N320    1.379   .     A
C259   C272    1.524   .     S
C260   C276    1.529   .     S
C260   N319    1.387   .     A
C260   C509    1.446   .     S
C261   O322    1.397   .     S
C261   C282    1.479   .     S
C261   O336    1.219   .     D
C262   C283    1.482   .     S
C262   O323    1.223   .     D
C262   O324    1.395   .     S
C263   O325    1.220   .     D
C263   C284    1.492   .     S
C263   O326    1.398   .     S
C264   O330    1.309   .     A
C264   O329    1.306   .     A
C265   O327    1.223   .     D
C265   O328    1.396   .     S
C266   H288    1.088   .     S
C266   H289    1.104   .     S
C266   C267    1.545   .     S
C267   C268    1.526   .     S
C267   H317    1.110   .     S
C267   H318    1.107   .     S
C268   H314    1.107   .     S
C268   H315    1.111   .     S
C268   H484    1.111   1_455 S
C269   C270    1.538   .     S
C269   H295    1.096   .     S
C269   H296    1.111   .     S
C270   H294    1.101   .     S
C270   C271    1.528   .     S
C270   H293    1.108   .     S
C271   H290    1.110   .     S
C271   H291    1.111   .     S
C271   H292    1.110   .     S
C272   H303    1.104   .     S
C272   H304    1.088   .     S
C272   C273    1.537   .     S
C273   H301    1.110   .     S
C273   H302    1.109   .     S
C273   C1030   1.528   .     S
C274   H300    1.109   .     S
C274   H297    1.111   .     S
C274   C1785   1.528   1_554 S
C274   H1811   1.109   1_554 S
C275   O335    1.304   .     A
C275   O332    1.312   .     A
C275   C280    1.413   .     S
C276   H312    1.105   .     S
C276   C277    1.545   .     S
C276   H311    1.084   .     S
C277   H308    1.106   .     S
C277   H310    1.109   .     S
C277   C1790   1.526   1_554 S
C278   H307    1.110   .     S
C278   H306    1.111   .     S
C278   H305    1.105   .     S
C278   C1033   1.526   .     S
C279   C281    1.413   .     S
C279   O333    1.313   .     A
C279   O334    1.304   .     A
C280   C1793   1.193   1_554 S
C281   C1036   1.193   .     S
C282   C452    1.403   1_455 S
C283   C338    1.402   .     S
C284   C366    1.403   .     S
Cu285  O330    1.961   .     S
Cu285  O334    1.929   .     S
Cu285  O321    1.947   .     S
Cu285  Cu286   2.742   .     S
Cu285  N319    2.061   .     S
Cu285  O332    1.938   .     S
Cu286  O329    1.947   .     S
Cu286  O333    1.938   .     S
Cu286  N320    2.061   .     S
Cu286  O331    1.961   .     S
Cu286  O335    1.929   .     S
H287   O322    1.014   .     S
H298   O324    1.013   .     S
H299   C1030   1.109   .     S
H309   O326    1.013   .     S
H313   O328    1.006   .     S
H316   C352    1.111   .     S
C337   O405    1.306   .     A
C337   O415    1.308   .     A
C337   C340    1.450   .     S
C338   C349    1.486   .     S
C338   C340    1.408   .     A
C339   C348    1.450   .     S
C339   C367    1.409   .     A
C339   C368    1.417   .     A
C340   C366    1.404   .     A
C341   N404    1.388   .     A
C341   C350    1.529   .     S
C342   N403    1.391   .     A
C342   C353    1.525   .     S
C342   C595    1.430   .     S
C343   N404    1.379   .     A
C343   C356    1.524   .     S
C344   C360    1.529   .     S
C344   N403    1.387   .     A
C344   C593    1.446   .     S
C345   O406    1.397   .     S
C345   C366    1.479   .     S
C345   O420    1.219   .     D
C346   C367    1.482   .     S
C346   O407    1.223   .     D
C346   O408    1.395   .     S
C347   O409    1.220   .     D
C347   C368    1.492   .     S
C347   O410    1.398   .     S
C348   O414    1.309   .     A
C348   O413    1.306   .     A
C349   O411    1.223   .     D
C349   O412    1.396   .     S
C350   H372    1.088   .     S
C350   H373    1.104   .     S
C350   C351    1.545   .     S
C351   C352    1.526   .     S
C351   H401    1.110   .     S
C351   H402    1.107   .     S
C352   H398    1.107   .     S
C352   H399    1.111   .     S
C353   C354    1.538   .     S
C353   H379    1.096   .     S
C353   H380    1.111   .     S
C354   H378    1.101   .     S
C354   C355    1.528   .     S
C354   H377    1.108   .     S
C355   H374    1.110   .     S
C355   H375    1.111   .     S
C355   H376    1.110   .     S
C356   H387    1.104   .     S
C356   H388    1.088   .     S
C356   C357    1.537   .     S
C357   H385    1.110   .     S
C357   H386    1.109   .     S
C357   C1114   1.528   .     S
C358   H384    1.109   .     S
C358   H381    1.111   .     S
C358   C1869   1.528   1_554 S
C358   H1895   1.109   1_554 S
C359   O419    1.304   .     A
C359   O416    1.312   .     A
C359   C364    1.413   .     S
C360   H396    1.105   .     S
C360   C361    1.545   .     S
C360   H395    1.084   .     S
C361   H392    1.106   .     S
C361   H394    1.109   .     S
C361   C1874   1.526   1_554 S
C362   H391    1.110   .     S
C362   H390    1.111   .     S
C362   H389    1.105   .     S
C362   C1117   1.526   .     S
C363   C365    1.413   .     S
C363   O417    1.313   .     A
C363   O418    1.304   .     A
C364   C1877   1.193   1_554 S
C365   C1120   1.193   .     S
C367   C422    1.402   .     S
C368   C450    1.403   .     S
Cu369  O414    1.961   .     S
Cu369  O418    1.929   .     S
Cu369  O405    1.947   .     S
Cu369  Cu370   2.742   .     S
Cu369  N403    2.061   .     S
Cu369  O416    1.938   .     S
Cu370  O413    1.947   .     S
Cu370  O417    1.938   .     S
Cu370  N404    2.061   .     S
Cu370  O415    1.961   .     S
Cu370  O419    1.929   .     S
H371   O406    1.014   .     S
H382   O408    1.013   .     S
H383   C1114   1.109   .     S
H393   O410    1.013   .     S
H397   O412    1.006   .     S
H400   C436    1.111   .     S
C421   O489    1.306   .     A
C421   O499    1.308   .     A
C421   C424    1.450   .     S
C422   C433    1.486   .     S
C422   C424    1.408   .     A
C423   C432    1.450   .     S
C423   C451    1.409   .     A
C423   C452    1.417   .     A
C424   C450    1.404   .     A
C425   N488    1.388   .     A
C425   C434    1.529   .     S
C426   N487    1.391   .     A
C426   C437    1.525   .     S
C426   C679    1.430   .     S
C427   N488    1.379   .     A
C427   C440    1.524   .     S
C428   C444    1.529   .     S
C428   N487    1.387   .     A
C428   C677    1.446   .     S
C429   O490    1.397   .     S
C429   C450    1.479   .     S
C429   O504    1.219   .     D
C430   C451    1.482   .     S
C430   O491    1.223   .     D
C430   O492    1.395   .     S
C431   O493    1.220   .     D
C431   C452    1.492   .     S
C431   O494    1.398   .     S
C432   O498    1.309   .     A
C432   O497    1.306   .     A
C433   O495    1.223   .     D
C433   O496    1.396   .     S
C434   H456    1.088   .     S
C434   H457    1.104   .     S
C434   C435    1.545   .     S
C435   C436    1.526   .     S
C435   H485    1.110   .     S
C435   H486    1.107   .     S
C436   H482    1.107   .     S
C436   H483    1.111   .     S
C437   C438    1.538   .     S
C437   H463    1.096   .     S
C437   H464    1.111   .     S
C438   H462    1.101   .     S
C438   C439    1.528   .     S
C438   H461    1.108   .     S
C439   H458    1.110   .     S
C439   H459    1.111   .     S
C439   H460    1.110   .     S
C440   H471    1.104   .     S
C440   H472    1.088   .     S
C440   C441    1.537   .     S
C441   H469    1.110   .     S
C441   H470    1.109   .     S
C441   C1198   1.528   .     S
C442   H468    1.109   .     S
C442   H465    1.111   .     S
C442   C1953   1.528   1_554 S
C442   H1979   1.109   1_554 S
C443   O503    1.304   .     A
C443   O500    1.312   .     A
C443   C448    1.413   .     S
C444   H480    1.105   .     S
C444   C445    1.545   .     S
C444   H479    1.084   .     S
C445   H476    1.106   .     S
C445   H478    1.109   .     S
C445   C1958   1.526   1_554 S
C446   H475    1.110   .     S
C446   H474    1.111   .     S
C446   H473    1.105   .     S
C446   C1201   1.526   .     S
C447   C449    1.413   .     S
C447   O501    1.313   .     A
C447   O502    1.304   .     A
C448   C1961   1.193   1_554 S
C449   C1204   1.193   .     S
C451   C254    1.402   1_655 S
C452   C282    1.403   1_655 S
Cu453  O498    1.961   .     S
Cu453  O502    1.929   .     S
Cu453  O489    1.947   .     S
Cu453  Cu454   2.742   .     S
Cu453  N487    2.061   .     S
Cu453  O500    1.938   .     S
Cu454  O497    1.947   .     S
Cu454  O501    1.938   .     S
Cu454  N488    2.061   .     S
Cu454  O499    1.961   .     S
Cu454  O503    1.929   .     S
H455   O490    1.014   .     S
H466   O492    1.013   .     S
H467   C1198   1.109   .     S
H477   O494    1.013   .     S
H481   O496    1.006   .     S
H484   C268    1.111   1_655 S
C505   O573    1.306   .     A
C505   O583    1.308   .     A
C505   C508    1.450   .     S
C506   C517    1.486   .     S
C506   C508    1.408   .     A
C506   C703    1.402   1_455 S
C507   C516    1.450   .     S
C507   C535    1.409   .     A
C507   C536    1.417   .     A
C508   C534    1.404   .     A
C509   N572    1.388   .     A
C509   C518    1.529   .     S
C510   N571    1.391   .     A
C510   C521    1.525   .     S
C510   C7      1.430   1_565 S
C511   N572    1.379   .     A
C511   C524    1.524   .     S
C512   C528    1.529   .     S
C512   N571    1.387   .     A
C512   C5      1.446   1_565 S
C513   O574    1.397   .     S
C513   C534    1.479   .     S
C513   O588    1.219   .     D
C514   C535    1.482   .     S
C514   O575    1.223   .     D
C514   O576    1.395   .     S
C515   O577    1.220   .     D
C515   C536    1.492   .     S
C515   O578    1.398   .     S
C516   O582    1.309   .     A
C516   O581    1.306   .     A
C517   O579    1.223   .     D
C517   O580    1.396   .     S
C518   H540    1.088   .     S
C518   H541    1.104   .     S
C518   C519    1.545   .     S
C519   C520    1.526   .     S
C519   H569    1.110   .     S
C519   H570    1.107   .     S
C520   H566    1.107   .     S
C520   H567    1.111   .     S
C520   H736    1.111   1_455 S
C521   C522    1.538   .     S
C521   H547    1.096   .     S
C521   H548    1.111   .     S
C522   H546    1.101   .     S
C522   C523    1.528   .     S
C522   H545    1.108   .     S
C523   H542    1.110   .     S
C523   H543    1.111   .     S
C523   H544    1.110   .     S
C524   H555    1.104   .     S
C524   H556    1.088   .     S
C524   C525    1.537   .     S
C525   H553    1.110   .     S
C525   H554    1.109   .     S
C525   C1282   1.528   .     S
C526   H552    1.109   .     S
C526   H549    1.111   .     S
C526   C2037   1.528   1_554 S
C526   H2063   1.109   1_554 S
C527   O587    1.304   .     A
C527   O584    1.312   .     A
C527   C532    1.413   .     S
C528   H564    1.105   .     S
C528   C529    1.545   .     S
C528   H563    1.084   .     S
C529   H560    1.106   .     S
C529   H562    1.109   .     S
C529   C2042   1.526   1_554 S
C530   H559    1.110   .     S
C530   H558    1.111   .     S
C530   H557    1.105   .     S
C530   C1285   1.526   .     S
C531   C533    1.413   .     S
C531   O585    1.313   .     A
C531   O586    1.304   .     A
C532   C2045   1.193   1_554 S
C533   C1288   1.193   .     S
C534   C704    1.403   1_455 S
C535   C590    1.402   .     S
C536   C618    1.403   .     S
Cu537  O582    1.961   .     S
Cu537  O586    1.929   .     S
Cu537  O573    1.947   .     S
Cu537  Cu538   2.742   .     S
Cu537  N571    2.061   .     S
Cu537  O584    1.938   .     S
Cu538  O581    1.947   .     S
Cu538  O585    1.938   .     S
Cu538  N572    2.061   .     S
Cu538  O583    1.961   .     S
Cu538  O587    1.929   .     S
H539   O574    1.014   .     S
H550   O576    1.013   .     S
H551   C1282   1.109   .     S
H561   O578    1.013   .     S
H565   O580    1.006   .     S
H568   C604    1.111   .     S
C589   O657    1.306   .     A
C589   O667    1.308   .     A
C589   C592    1.450   .     S
C590   C601    1.486   .     S
C590   C592    1.408   .     A
C591   C600    1.450   .     S
C591   C619    1.409   .     A
C591   C620    1.417   .     A
C592   C618    1.404   .     A
C593   N656    1.388   .     A
C593   C602    1.529   .     S
C594   N655    1.391   .     A
C594   C605    1.525   .     S
C594   C91     1.430   1_565 S
C595   N656    1.379   .     A
C595   C608    1.524   .     S
C596   C612    1.529   .     S
C596   N655    1.387   .     A
C596   C89     1.446   1_565 S
C597   O658    1.397   .     S
C597   C618    1.479   .     S
C597   O672    1.219   .     D
C598   C619    1.482   .     S
C598   O659    1.223   .     D
C598   O660    1.395   .     S
C599   O661    1.220   .     D
C599   C620    1.492   .     S
C599   O662    1.398   .     S
C600   O666    1.309   .     A
C600   O665    1.306   .     A
C601   O663    1.223   .     D
C601   O664    1.396   .     S
C602   H624    1.088   .     S
C602   H625    1.104   .     S
C602   C603    1.545   .     S
C603   C604    1.526   .     S
C603   H653    1.110   .     S
C603   H654    1.107   .     S
C604   H650    1.107   .     S
C604   H651    1.111   .     S
C605   C606    1.538   .     S
C605   H631    1.096   .     S
C605   H632    1.111   .     S
C606   H630    1.101   .     S
C606   C607    1.528   .     S
C606   H629    1.108   .     S
C607   H626    1.110   .     S
C607   H627    1.111   .     S
C607   H628    1.110   .     S
C608   H639    1.104   .     S
C608   H640    1.088   .     S
C608   C609    1.537   .     S
C609   H637    1.110   .     S
C609   H638    1.109   .     S
C609   C1366   1.528   .     S
C610   H636    1.109   .     S
C610   H633    1.111   .     S
C610   C2121   1.528   1_554 S
C610   H2147   1.109   1_554 S
C611   O671    1.304   .     A
C611   O668    1.312   .     A
C611   C616    1.413   .     S
C612   H648    1.105   .     S
C612   C613    1.545   .     S
C612   H647    1.084   .     S
C613   H644    1.106   .     S
C613   H646    1.109   .     S
C613   C2126   1.526   1_554 S
C614   H643    1.110   .     S
C614   H642    1.111   .     S
C614   H641    1.105   .     S
C614   C1369   1.526   .     S
C615   C617    1.413   .     S
C615   O669    1.313   .     A
C615   O670    1.304   .     A
C616   C2129   1.193   1_554 S
C617   C1372   1.193   .     S
C619   C674    1.402   .     S
C620   C702    1.403   .     S
Cu621  O666    1.961   .     S
Cu621  O670    1.929   .     S
Cu621  O657    1.947   .     S
Cu621  Cu622   2.742   .     S
Cu621  N655    2.061   .     S
Cu621  O668    1.938   .     S
Cu622  O665    1.947   .     S
Cu622  O669    1.938   .     S
Cu622  N656    2.061   .     S
Cu622  O667    1.961   .     S
Cu622  O671    1.929   .     S
H623   O658    1.014   .     S
H634   O660    1.013   .     S
H635   C1366   1.109   .     S
H645   O662    1.013   .     S
H649   O664    1.006   .     S
H652   C688    1.111   .     S
C673   O741    1.306   .     A
C673   O751    1.308   .     A
C673   C676    1.450   .     S
C674   C685    1.486   .     S
C674   C676    1.408   .     A
C675   C684    1.450   .     S
C675   C703    1.409   .     A
C675   C704    1.417   .     A
C676   C702    1.404   .     A
C677   N740    1.388   .     A
C677   C686    1.529   .     S
C678   N739    1.391   .     A
C678   C689    1.525   .     S
C678   C175    1.430   1_565 S
C679   N740    1.379   .     A
C679   C692    1.524   .     S
C680   C696    1.529   .     S
C680   N739    1.387   .     A
C680   C173    1.446   1_565 S
C681   O742    1.397   .     S
C681   C702    1.479   .     S
C681   O756    1.219   .     D
C682   C703    1.482   .     S
C682   O743    1.223   .     D
C682   O744    1.395   .     S
C683   O745    1.220   .     D
C683   C704    1.492   .     S
C683   O746    1.398   .     S
C684   O750    1.309   .     A
C684   O749    1.306   .     A
C685   O747    1.223   .     D
C685   O748    1.396   .     S
C686   H708    1.088   .     S
C686   H709    1.104   .     S
C686   C687    1.545   .     S
C687   C688    1.526   .     S
C687   H737    1.110   .     S
C687   H738    1.107   .     S
C688   H734    1.107   .     S
C688   H735    1.111   .     S
C689   C690    1.538   .     S
C689   H715    1.096   .     S
C689   H716    1.111   .     S
C690   H714    1.101   .     S
C690   C691    1.528   .     S
C690   H713    1.108   .     S
C691   H710    1.110   .     S
C691   H711    1.111   .     S
C691   H712    1.110   .     S
C692   H723    1.104   .     S
C692   H724    1.088   .     S
C692   C693    1.537   .     S
C693   H721    1.110   .     S
C693   H722    1.109   .     S
C693   C1450   1.528   .     S
C694   H720    1.109   .     S
C694   H717    1.111   .     S
C694   C2205   1.528   1_554 S
C694   H2231   1.109   1_554 S
C695   O755    1.304   .     A
C695   O752    1.312   .     A
C695   C700    1.413   .     S
C696   H732    1.105   .     S
C696   C697    1.545   .     S
C696   H731    1.084   .     S
C697   H728    1.106   .     S
C697   H730    1.109   .     S
C697   C2210   1.526   1_554 S
C698   H727    1.110   .     S
C698   H726    1.111   .     S
C698   H725    1.105   .     S
C698   C1453   1.526   .     S
C699   C701    1.413   .     S
C699   O753    1.313   .     A
C699   O754    1.304   .     A
C700   C2213   1.193   1_554 S
C701   C1456   1.193   .     S
C703   C506    1.402   1_655 S
C704   C534    1.403   1_655 S
Cu705  O750    1.961   .     S
Cu705  O754    1.929   .     S
Cu705  O741    1.947   .     S
Cu705  Cu706   2.742   .     S
Cu705  N739    2.061   .     S
Cu705  O752    1.938   .     S
Cu706  O749    1.947   .     S
Cu706  O753    1.938   .     S
Cu706  N740    2.061   .     S
Cu706  O751    1.961   .     S
Cu706  O755    1.929   .     S
H707   O742    1.014   .     S
H718   O744    1.013   .     S
H719   C1450   1.109   .     S
H729   O746    1.013   .     S
H733   O748    1.006   .     S
H736   C520    1.111   1_655 S
C757   O825    1.306   .     A
C757   O835    1.308   .     A
C757   C760    1.450   .     S
C758   C769    1.486   .     S
C758   C760    1.408   .     A
C758   C955    1.402   1_455 S
C759   C768    1.450   .     S
C759   C787    1.409   .     A
C759   C788    1.417   .     A
C760   C786    1.404   .     A
C761   N824    1.388   .     A
C761   C770    1.529   .     S
C761   C1268   1.446   1_545 S
C762   N823    1.391   .     A
C762   C773    1.525   .     S
C762   C1015   1.430   .     S
C763   N824    1.379   .     A
C763   C776    1.524   .     S
C763   C1266   1.430   1_545 S
C764   C780    1.529   .     S
C764   N823    1.387   .     A
C764   C1013   1.446   .     S
C765   O826    1.397   .     S
C765   C786    1.479   .     S
C765   O840    1.219   .     D
C766   C787    1.482   .     S
C766   O827    1.223   .     D
C766   O828    1.395   .     S
C767   O829    1.220   .     D
C767   C788    1.492   .     S
C767   O830    1.398   .     S
C768   O834    1.309   .     A
C768   O833    1.306   .     A
C769   O831    1.223   .     D
C769   O832    1.396   .     S
C770   H792    1.088   .     S
C770   H793    1.104   .     S
C770   C771    1.545   .     S
C771   C772    1.526   .     S
C771   H821    1.110   .     S
C771   H822    1.107   .     S
C772   H818    1.107   .     S
C772   H819    1.111   .     S
C772   H988    1.111   1_455 S
C773   C774    1.538   .     S
C773   H799    1.096   .     S
C773   H800    1.111   .     S
C774   H798    1.101   .     S
C774   C775    1.528   .     S
C774   H797    1.108   .     S
C775   H794    1.110   .     S
C775   H795    1.111   .     S
C775   H796    1.110   .     S
C776   H807    1.104   .     S
C776   H808    1.088   .     S
C776   C777    1.537   .     S
C777   H805    1.110   .     S
C777   H806    1.109   .     S
C777   C1534   1.528   .     S
C778   H804    1.109   .     S
C778   H801    1.111   .     S
C779   O839    1.304   .     A
C779   O836    1.312   .     A
C779   C784    1.413   .     S
C780   H816    1.105   .     S
C780   C781    1.545   .     S
C780   H815    1.084   .     S
C781   H812    1.106   .     S
C781   H814    1.109   .     S
C782   H811    1.110   .     S
C782   H810    1.111   .     S
C782   H809    1.105   .     S
C782   C1537   1.526   .     S
C783   C785    1.413   .     S
C783   O837    1.313   .     A
C783   O838    1.304   .     A
C785   C1540   1.193   .     S
C786   C956    1.403   1_455 S
C787   C842    1.402   .     S
C788   C870    1.403   .     S
Cu789  O834    1.961   .     S
Cu789  O838    1.929   .     S
Cu789  O825    1.947   .     S
Cu789  Cu790   2.742   .     S
Cu789  N823    2.061   .     S
Cu789  O836    1.938   .     S
Cu790  O833    1.947   .     S
Cu790  O837    1.938   .     S
Cu790  N824    2.061   .     S
Cu790  O835    1.961   .     S
Cu790  O839    1.929   .     S
H791   O826    1.014   .     S
H802   O828    1.013   .     S
H803   C1534   1.109   .     S
H813   O830    1.013   .     S
H817   O832    1.006   .     S
H820   C856    1.111   .     S
C841   O909    1.306   .     A
C841   O919    1.308   .     A
C841   C844    1.450   .     S
C842   C853    1.486   .     S
C842   C844    1.408   .     A
C843   C852    1.450   .     S
C843   C871    1.409   .     A
C843   C872    1.417   .     A
C844   C870    1.404   .     A
C845   N908    1.388   .     A
C845   C854    1.529   .     S
C845   C1352   1.446   1_545 S
C846   N907    1.391   .     A
C846   C857    1.525   .     S
C846   C1099   1.430   .     S
C847   N908    1.379   .     A
C847   C860    1.524   .     S
C847   C1350   1.430   1_545 S
C848   C864    1.529   .     S
C848   N907    1.387   .     A
C848   C1097   1.446   .     S
C849   O910    1.397   .     S
C849   C870    1.479   .     S
C849   O924    1.219   .     D
C850   C871    1.482   .     S
C850   O911    1.223   .     D
C850   O912    1.395   .     S
C851   O913    1.220   .     D
C851   C872    1.492   .     S
C851   O914    1.398   .     S
C852   O918    1.309   .     A
C852   O917    1.306   .     A
C853   O915    1.223   .     D
C853   O916    1.396   .     S
C854   H876    1.088   .     S
C854   H877    1.104   .     S
C854   C855    1.545   .     S
C855   C856    1.526   .     S
C855   H905    1.110   .     S
C855   H906    1.107   .     S
C856   H902    1.107   .     S
C856   H903    1.111   .     S
C857   C858    1.538   .     S
C857   H883    1.096   .     S
C857   H884    1.111   .     S
C858   H882    1.101   .     S
C858   C859    1.528   .     S
C858   H881    1.108   .     S
C859   H878    1.110   .     S
C859   H879    1.111   .     S
C859   H880    1.110   .     S
C860   H891    1.104   .     S
C860   H892    1.088   .     S
C860   C861    1.537   .     S
C861   H889    1.110   .     S
C861   H890    1.109   .     S
C861   C1618   1.528   .     S
C862   H888    1.109   .     S
C862   H885    1.111   .     S
C863   O923    1.304   .     A
C863   O920    1.312   .     A
C863   C868    1.413   .     S
C864   H900    1.105   .     S
C864   C865    1.545   .     S
C864   H899    1.084   .     S
C865   H896    1.106   .     S
C865   H898    1.109   .     S
C866   H895    1.110   .     S
C866   H894    1.111   .     S
C866   H893    1.105   .     S
C866   C1621   1.526   .     S
C867   C869    1.413   .     S
C867   O921    1.313   .     A
C867   O922    1.304   .     A
C869   C1624   1.193   .     S
C871   C926    1.402   .     S
C872   C954    1.403   .     S
Cu873  O918    1.961   .     S
Cu873  O922    1.929   .     S
Cu873  O909    1.947   .     S
Cu873  Cu874   2.742   .     S
Cu873  N907    2.061   .     S
Cu873  O920    1.938   .     S
Cu874  O917    1.947   .     S
Cu874  O921    1.938   .     S
Cu874  N908    2.061   .     S
Cu874  O919    1.961   .     S
Cu874  O923    1.929   .     S
H875   O910    1.014   .     S
H886   O912    1.013   .     S
H887   C1618   1.109   .     S
H897   O914    1.013   .     S
H901   O916    1.006   .     S
H904   C940    1.111   .     S
C925   O993    1.306   .     A
C925   O1003   1.308   .     A
C925   C928    1.450   .     S
C926   C937    1.486   .     S
C926   C928    1.408   .     A
C927   C936    1.450   .     S
C927   C955    1.409   .     A
C927   C956    1.417   .     A
C928   C954    1.404   .     A
C929   N992    1.388   .     A
C929   C938    1.529   .     S
C929   C1436   1.446   1_545 S
C930   N991    1.391   .     A
C930   C941    1.525   .     S
C930   C1183   1.430   .     S
C931   N992    1.379   .     A
C931   C944    1.524   .     S
C931   C1434   1.430   1_545 S
C932   C948    1.529   .     S
C932   N991    1.387   .     A
C932   C1181   1.446   .     S
C933   O994    1.397   .     S
C933   C954    1.479   .     S
C933   O1008   1.219   .     D
C934   C955    1.482   .     S
C934   O995    1.223   .     D
C934   O996    1.395   .     S
C935   O997    1.220   .     D
C935   C956    1.492   .     S
C935   O998    1.398   .     S
C936   O1002   1.309   .     A
C936   O1001   1.306   .     A
C937   O999    1.223   .     D
C937   O1000   1.396   .     S
C938   H960    1.088   .     S
C938   H961    1.104   .     S
C938   C939    1.545   .     S
C939   C940    1.526   .     S
C939   H989    1.110   .     S
C939   H990    1.107   .     S
C940   H986    1.107   .     S
C940   H987    1.111   .     S
C941   C942    1.538   .     S
C941   H967    1.096   .     S
C941   H968    1.111   .     S
C942   H966    1.101   .     S
C942   C943    1.528   .     S
C942   H965    1.108   .     S
C943   H962    1.110   .     S
C943   H963    1.111   .     S
C943   H964    1.110   .     S
C944   H975    1.104   .     S
C944   H976    1.088   .     S
C944   C945    1.537   .     S
C945   H973    1.110   .     S
C945   H974    1.109   .     S
C945   C1702   1.528   .     S
C946   H972    1.109   .     S
C946   H969    1.111   .     S
C947   O1007   1.304   .     A
C947   O1004   1.312   .     A
C947   C952    1.413   .     S
C948   H984    1.105   .     S
C948   C949    1.545   .     S
C948   H983    1.084   .     S
C949   H980    1.106   .     S
C949   H982    1.109   .     S
C950   H979    1.110   .     S
C950   H978    1.111   .     S
C950   H977    1.105   .     S
C950   C1705   1.526   .     S
C951   C953    1.413   .     S
C951   O1005   1.313   .     A
C951   O1006   1.304   .     A
C953   C1708   1.193   .     S
C955   C758    1.402   1_655 S
C956   C786    1.403   1_655 S
Cu957  O1002   1.961   .     S
Cu957  O1006   1.929   .     S
Cu957  O993    1.947   .     S
Cu957  Cu958   2.742   .     S
Cu957  N991    2.061   .     S
Cu957  O1004   1.938   .     S
Cu958  O1001   1.947   .     S
Cu958  O1005   1.938   .     S
Cu958  N992    2.061   .     S
Cu958  O1003   1.961   .     S
Cu958  O1007   1.929   .     S
H959   O994    1.014   .     S
H970   O996    1.013   .     S
H971   C1702   1.109   .     S
H981   O998    1.013   .     S
H985   O1000   1.006   .     S
H988   C772    1.111   1_655 S
C1009  O1077   1.306   .     A
C1009  O1087   1.308   .     A
C1009  C1012   1.450   .     S
C1010  C1021   1.486   .     S
C1010  C1012   1.408   .     A
C1010  C1207   1.402   1_455 S
C1011  C1020   1.450   .     S
C1011  C1039   1.409   .     A
C1011  C1040   1.417   .     A
C1012  C1038   1.404   .     A
C1013  N1076   1.388   .     A
C1013  C1022   1.529   .     S
C1014  N1075   1.391   .     A
C1014  C1025   1.525   .     S
C1014  C1267   1.430   .     S
C1015  N1076   1.379   .     A
C1015  C1028   1.524   .     S
C1016  C1032   1.529   .     S
C1016  N1075   1.387   .     A
C1016  C1265   1.446   .     S
C1017  O1078   1.397   .     S
C1017  C1038   1.479   .     S
C1017  O1092   1.219   .     D
C1018  C1039   1.482   .     S
C1018  O1079   1.223   .     D
C1018  O1080   1.395   .     S
C1019  O1081   1.220   .     D
C1019  C1040   1.492   .     S
C1019  O1082   1.398   .     S
C1020  O1086   1.309   .     A
C1020  O1085   1.306   .     A
C1021  O1083   1.223   .     D
C1021  O1084   1.396   .     S
C1022  H1044   1.088   .     S
C1022  H1045   1.104   .     S
C1022  C1023   1.545   .     S
C1023  C1024   1.526   .     S
C1023  H1073   1.110   .     S
C1023  H1074   1.107   .     S
C1024  H1070   1.107   .     S
C1024  H1071   1.111   .     S
C1024  H1240   1.111   1_455 S
C1025  C1026   1.538   .     S
C1025  H1051   1.096   .     S
C1025  H1052   1.111   .     S
C1026  H1050   1.101   .     S
C1026  C1027   1.528   .     S
C1026  H1049   1.108   .     S
C1027  H1046   1.110   .     S
C1027  H1047   1.111   .     S
C1027  H1048   1.110   .     S
C1028  H1059   1.104   .     S
C1028  H1060   1.088   .     S
C1028  C1029   1.537   .     S
C1029  H1057   1.110   .     S
C1029  H1058   1.109   .     S
C1029  C1786   1.528   .     S
C1030  H1056   1.109   .     S
C1030  H1053   1.111   .     S
C1031  O1091   1.304   .     A
C1031  O1088   1.312   .     A
C1031  C1036   1.413   .     S
C1032  H1068   1.105   .     S
C1032  C1033   1.545   .     S
C1032  H1067   1.084   .     S
C1033  H1064   1.106   .     S
C1033  H1066   1.109   .     S
C1034  H1063   1.110   .     S
C1034  H1062   1.111   .     S
C1034  H1061   1.105   .     S
C1034  C1789   1.526   .     S
C1035  C1037   1.413   .     S
C1035  O1089   1.313   .     A
C1035  O1090   1.304   .     A
C1037  C1792   1.193   .     S
C1038  C1208   1.403   1_455 S
C1039  C1094   1.402   .     S
C1040  C1122   1.403   .     S
Cu1041 O1086   1.961   .     S
Cu1041 O1090   1.929   .     S
Cu1041 O1077   1.947   .     S
Cu1041 Cu1042  2.742   .     S
Cu1041 N1075   2.061   .     S
Cu1041 O1088   1.938   .     S
Cu1042 O1085   1.947   .     S
Cu1042 O1089   1.938   .     S
Cu1042 N1076   2.061   .     S
Cu1042 O1087   1.961   .     S
Cu1042 O1091   1.929   .     S
H1043  O1078   1.014   .     S
H1054  O1080   1.013   .     S
H1055  C1786   1.109   .     S
H1065  O1082   1.013   .     S
H1069  O1084   1.006   .     S
H1072  C1108   1.111   .     S
C1093  O1161   1.306   .     A
C1093  O1171   1.308   .     A
C1093  C1096   1.450   .     S
C1094  C1105   1.486   .     S
C1094  C1096   1.408   .     A
C1095  C1104   1.450   .     S
C1095  C1123   1.409   .     A
C1095  C1124   1.417   .     A
C1096  C1122   1.404   .     A
C1097  N1160   1.388   .     A
C1097  C1106   1.529   .     S
C1098  N1159   1.391   .     A
C1098  C1109   1.525   .     S
C1098  C1351   1.430   .     S
C1099  N1160   1.379   .     A
C1099  C1112   1.524   .     S
C1100  C1116   1.529   .     S
C1100  N1159   1.387   .     A
C1100  C1349   1.446   .     S
C1101  O1162   1.397   .     S
C1101  C1122   1.479   .     S
C1101  O1176   1.219   .     D
C1102  C1123   1.482   .     S
C1102  O1163   1.223   .     D
C1102  O1164   1.395   .     S
C1103  O1165   1.220   .     D
C1103  C1124   1.492   .     S
C1103  O1166   1.398   .     S
C1104  O1170   1.309   .     A
C1104  O1169   1.306   .     A
C1105  O1167   1.223   .     D
C1105  O1168   1.396   .     S
C1106  H1128   1.088   .     S
C1106  H1129   1.104   .     S
C1106  C1107   1.545   .     S
C1107  C1108   1.526   .     S
C1107  H1157   1.110   .     S
C1107  H1158   1.107   .     S
C1108  H1154   1.107   .     S
C1108  H1155   1.111   .     S
C1109  C1110   1.538   .     S
C1109  H1135   1.096   .     S
C1109  H1136   1.111   .     S
C1110  H1134   1.101   .     S
C1110  C1111   1.528   .     S
C1110  H1133   1.108   .     S
C1111  H1130   1.110   .     S
C1111  H1131   1.111   .     S
C1111  H1132   1.110   .     S
C1112  H1143   1.104   .     S
C1112  H1144   1.088   .     S
C1112  C1113   1.537   .     S
C1113  H1141   1.110   .     S
C1113  H1142   1.109   .     S
C1113  C1870   1.528   .     S
C1114  H1140   1.109   .     S
C1114  H1137   1.111   .     S
C1115  O1175   1.304   .     A
C1115  O1172   1.312   .     A
C1115  C1120   1.413   .     S
C1116  H1152   1.105   .     S
C1116  C1117   1.545   .     S
C1116  H1151   1.084   .     S
C1117  H1148   1.106   .     S
C1117  H1150   1.109   .     S
C1118  H1147   1.110   .     S
C1118  H1146   1.111   .     S
C1118  H1145   1.105   .     S
C1118  C1873   1.526   .     S
C1119  C1121   1.413   .     S
C1119  O1173   1.313   .     A
C1119  O1174   1.304   .     A
C1121  C1876   1.193   .     S
C1123  C1178   1.402   .     S
C1124  C1206   1.403   .     S
Cu1125 O1170   1.961   .     S
Cu1125 O1174   1.929   .     S
Cu1125 O1161   1.947   .     S
Cu1125 Cu1126  2.742   .     S
Cu1125 N1159   2.061   .     S
Cu1125 O1172   1.938   .     S
Cu1126 O1169   1.947   .     S
Cu1126 O1173   1.938   .     S
Cu1126 N1160   2.061   .     S
Cu1126 O1171   1.961   .     S
Cu1126 O1175   1.929   .     S
H1127  O1162   1.014   .     S
H1138  O1164   1.013   .     S
H1139  C1870   1.109   .     S
H1149  O1166   1.013   .     S
H1153  O1168   1.006   .     S
H1156  C1192   1.111   .     S
C1177  O1245   1.306   .     A
C1177  O1255   1.308   .     A
C1177  C1180   1.450   .     S
C1178  C1189   1.486   .     S
C1178  C1180   1.408   .     A
C1179  C1188   1.450   .     S
C1179  C1207   1.409   .     A
C1179  C1208   1.417   .     A
C1180  C1206   1.404   .     A
C1181  N1244   1.388   .     A
C1181  C1190   1.529   .     S
C1182  N1243   1.391   .     A
C1182  C1193   1.525   .     S
C1182  C1435   1.430   .     S
C1183  N1244   1.379   .     A
C1183  C1196   1.524   .     S
C1184  C1200   1.529   .     S
C1184  N1243   1.387   .     A
C1184  C1433   1.446   .     S
C1185  O1246   1.397   .     S
C1185  C1206   1.479   .     S
C1185  O1260   1.219   .     D
C1186  C1207   1.482   .     S
C1186  O1247   1.223   .     D
C1186  O1248   1.395   .     S
C1187  O1249   1.220   .     D
C1187  C1208   1.492   .     S
C1187  O1250   1.398   .     S
C1188  O1254   1.309   .     A
C1188  O1253   1.306   .     A
C1189  O1251   1.223   .     D
C1189  O1252   1.396   .     S
C1190  H1212   1.088   .     S
C1190  H1213   1.104   .     S
C1190  C1191   1.545   .     S
C1191  C1192   1.526   .     S
C1191  H1241   1.110   .     S
C1191  H1242   1.107   .     S
C1192  H1238   1.107   .     S
C1192  H1239   1.111   .     S
C1193  C1194   1.538   .     S
C1193  H1219   1.096   .     S
C1193  H1220   1.111   .     S
C1194  H1218   1.101   .     S
C1194  C1195   1.528   .     S
C1194  H1217   1.108   .     S
C1195  H1214   1.110   .     S
C1195  H1215   1.111   .     S
C1195  H1216   1.110   .     S
C1196  H1227   1.104   .     S
C1196  H1228   1.088   .     S
C1196  C1197   1.537   .     S
C1197  H1225   1.110   .     S
C1197  H1226   1.109   .     S
C1197  C1954   1.528   .     S
C1198  H1224   1.109   .     S
C1198  H1221   1.111   .     S
C1199  O1259   1.304   .     A
C1199  O1256   1.312   .     A
C1199  C1204   1.413   .     S
C1200  H1236   1.105   .     S
C1200  C1201   1.545   .     S
C1200  H1235   1.084   .     S
C1201  H1232   1.106   .     S
C1201  H1234   1.109   .     S
C1202  H1231   1.110   .     S
C1202  H1230   1.111   .     S
C1202  H1229   1.105   .     S
C1202  C1957   1.526   .     S
C1203  C1205   1.413   .     S
C1203  O1257   1.313   .     A
C1203  O1258   1.304   .     A
C1205  C1960   1.193   .     S
C1207  C1010   1.402   1_655 S
C1208  C1038   1.403   1_655 S
Cu1209 O1254   1.961   .     S
Cu1209 O1258   1.929   .     S
Cu1209 O1245   1.947   .     S
Cu1209 Cu1210  2.742   .     S
Cu1209 N1243   2.061   .     S
Cu1209 O1256   1.938   .     S
Cu1210 O1253   1.947   .     S
Cu1210 O1257   1.938   .     S
Cu1210 N1244   2.061   .     S
Cu1210 O1255   1.961   .     S
Cu1210 O1259   1.929   .     S
H1211  O1246   1.014   .     S
H1222  O1248   1.013   .     S
H1223  C1954   1.109   .     S
H1233  O1250   1.013   .     S
H1237  O1252   1.006   .     S
H1240  C1024   1.111   1_655 S
C1261  O1329   1.306   .     A
C1261  O1339   1.308   .     A
C1261  C1264   1.450   .     S
C1262  C1273   1.486   .     S
C1262  C1264   1.408   .     A
C1262  C1459   1.402   1_455 S
C1263  C1272   1.450   .     S
C1263  C1291   1.409   .     A
C1263  C1292   1.417   .     A
C1264  C1290   1.404   .     A
C1265  N1328   1.388   .     A
C1265  C1274   1.529   .     S
C1266  N1327   1.391   .     A
C1266  C1277   1.525   .     S
C1266  C763    1.430   1_565 S
C1267  N1328   1.379   .     A
C1267  C1280   1.524   .     S
C1268  C1284   1.529   .     S
C1268  N1327   1.387   .     A
C1268  C761    1.446   1_565 S
C1269  O1330   1.397   .     S
C1269  C1290   1.479   .     S
C1269  O1344   1.219   .     D
C1270  C1291   1.482   .     S
C1270  O1331   1.223   .     D
C1270  O1332   1.395   .     S
C1271  O1333   1.220   .     D
C1271  C1292   1.492   .     S
C1271  O1334   1.398   .     S
C1272  O1338   1.309   .     A
C1272  O1337   1.306   .     A
C1273  O1335   1.223   .     D
C1273  O1336   1.396   .     S
C1274  H1296   1.088   .     S
C1274  H1297   1.104   .     S
C1274  C1275   1.545   .     S
C1275  C1276   1.526   .     S
C1275  H1325   1.110   .     S
C1275  H1326   1.107   .     S
C1276  H1322   1.107   .     S
C1276  H1323   1.111   .     S
C1276  H1492   1.111   1_455 S
C1277  C1278   1.538   .     S
C1277  H1303   1.096   .     S
C1277  H1304   1.111   .     S
C1278  H1302   1.101   .     S
C1278  C1279   1.528   .     S
C1278  H1301   1.108   .     S
C1279  H1298   1.110   .     S
C1279  H1299   1.111   .     S
C1279  H1300   1.110   .     S
C1280  H1311   1.104   .     S
C1280  H1312   1.088   .     S
C1280  C1281   1.537   .     S
C1281  H1309   1.110   .     S
C1281  H1310   1.109   .     S
C1281  C2038   1.528   .     S
C1282  H1308   1.109   .     S
C1282  H1305   1.111   .     S
C1283  O1343   1.304   .     A
C1283  O1340   1.312   .     A
C1283  C1288   1.413   .     S
C1284  H1320   1.105   .     S
C1284  C1285   1.545   .     S
C1284  H1319   1.084   .     S
C1285  H1316   1.106   .     S
C1285  H1318   1.109   .     S
C1286  H1315   1.110   .     S
C1286  H1314   1.111   .     S
C1286  H1313   1.105   .     S
C1286  C2041   1.526   .     S
C1287  C1289   1.413   .     S
C1287  O1341   1.313   .     A
C1287  O1342   1.304   .     A
C1289  C2044   1.193   .     S
C1290  C1460   1.403   1_455 S
C1291  C1346   1.402   .     S
C1292  C1374   1.403   .     S
Cu1293 O1338   1.961   .     S
Cu1293 O1342   1.929   .     S
Cu1293 O1329   1.947   .     S
Cu1293 Cu1294  2.742   .     S
Cu1293 N1327   2.061   .     S
Cu1293 O1340   1.938   .     S
Cu1294 O1337   1.947   .     S
Cu1294 O1341   1.938   .     S
Cu1294 N1328   2.061   .     S
Cu1294 O1339   1.961   .     S
Cu1294 O1343   1.929   .     S
H1295  O1330   1.014   .     S
H1306  O1332   1.013   .     S
H1307  C2038   1.109   .     S
H1317  O1334   1.013   .     S
H1321  O1336   1.006   .     S
H1324  C1360   1.111   .     S
C1345  O1413   1.306   .     A
C1345  O1423   1.308   .     A
C1345  C1348   1.450   .     S
C1346  C1357   1.486   .     S
C1346  C1348   1.408   .     A
C1347  C1356   1.450   .     S
C1347  C1375   1.409   .     A
C1347  C1376   1.417   .     A
C1348  C1374   1.404   .     A
C1349  N1412   1.388   .     A
C1349  C1358   1.529   .     S
C1350  N1411   1.391   .     A
C1350  C1361   1.525   .     S
C1350  C847    1.430   1_565 S
C1351  N1412   1.379   .     A
C1351  C1364   1.524   .     S
C1352  C1368   1.529   .     S
C1352  N1411   1.387   .     A
C1352  C845    1.446   1_565 S
C1353  O1414   1.397   .     S
C1353  C1374   1.479   .     S
C1353  O1428   1.219   .     D
C1354  C1375   1.482   .     S
C1354  O1415   1.223   .     D
C1354  O1416   1.395   .     S
C1355  O1417   1.220   .     D
C1355  C1376   1.492   .     S
C1355  O1418   1.398   .     S
C1356  O1422   1.309   .     A
C1356  O1421   1.306   .     A
C1357  O1419   1.223   .     D
C1357  O1420   1.396   .     S
C1358  H1380   1.088   .     S
C1358  H1381   1.104   .     S
C1358  C1359   1.545   .     S
C1359  C1360   1.526   .     S
C1359  H1409   1.110   .     S
C1359  H1410   1.107   .     S
C1360  H1406   1.107   .     S
C1360  H1407   1.111   .     S
C1361  C1362   1.538   .     S
C1361  H1387   1.096   .     S
C1361  H1388   1.111   .     S
C1362  H1386   1.101   .     S
C1362  C1363   1.528   .     S
C1362  H1385   1.108   .     S
C1363  H1382   1.110   .     S
C1363  H1383   1.111   .     S
C1363  H1384   1.110   .     S
C1364  H1395   1.104   .     S
C1364  H1396   1.088   .     S
C1364  C1365   1.537   .     S
C1365  H1393   1.110   .     S
C1365  H1394   1.109   .     S
C1365  C2122   1.528   .     S
C1366  H1392   1.109   .     S
C1366  H1389   1.111   .     S
C1367  O1427   1.304   .     A
C1367  O1424   1.312   .     A
C1367  C1372   1.413   .     S
C1368  H1404   1.105   .     S
C1368  C1369   1.545   .     S
C1368  H1403   1.084   .     S
C1369  H1400   1.106   .     S
C1369  H1402   1.109   .     S
C1370  H1399   1.110   .     S
C1370  H1398   1.111   .     S
C1370  H1397   1.105   .     S
C1370  C2125   1.526   .     S
C1371  C1373   1.413   .     S
C1371  O1425   1.313   .     A
C1371  O1426   1.304   .     A
C1373  C2128   1.193   .     S
C1375  C1430   1.402   .     S
C1376  C1458   1.403   .     S
Cu1377 O1422   1.961   .     S
Cu1377 O1426   1.929   .     S
Cu1377 O1413   1.947   .     S
Cu1377 Cu1378  2.742   .     S
Cu1377 N1411   2.061   .     S
Cu1377 O1424   1.938   .     S
Cu1378 O1421   1.947   .     S
Cu1378 O1425   1.938   .     S
Cu1378 N1412   2.061   .     S
Cu1378 O1423   1.961   .     S
Cu1378 O1427   1.929   .     S
H1379  O1414   1.014   .     S
H1390  O1416   1.013   .     S
H1391  C2122   1.109   .     S
H1401  O1418   1.013   .     S
H1405  O1420   1.006   .     S
H1408  C1444   1.111   .     S
C1429  O1497   1.306   .     A
C1429  O1507   1.308   .     A
C1429  C1432   1.450   .     S
C1430  C1441   1.486   .     S
C1430  C1432   1.408   .     A
C1431  C1440   1.450   .     S
C1431  C1459   1.409   .     A
C1431  C1460   1.417   .     A
C1432  C1458   1.404   .     A
C1433  N1496   1.388   .     A
C1433  C1442   1.529   .     S
C1434  N1495   1.391   .     A
C1434  C1445   1.525   .     S
C1434  C931    1.430   1_565 S
C1435  N1496   1.379   .     A
C1435  C1448   1.524   .     S
C1436  C1452   1.529   .     S
C1436  N1495   1.387   .     A
C1436  C929    1.446   1_565 S
C1437  O1498   1.397   .     S
C1437  C1458   1.479   .     S
C1437  O1512   1.219   .     D
C1438  C1459   1.482   .     S
C1438  O1499   1.223   .     D
C1438  O1500   1.395   .     S
C1439  O1501   1.220   .     D
C1439  C1460   1.492   .     S
C1439  O1502   1.398   .     S
C1440  O1506   1.309   .     A
C1440  O1505   1.306   .     A
C1441  O1503   1.223   .     D
C1441  O1504   1.396   .     S
C1442  H1464   1.088   .     S
C1442  H1465   1.104   .     S
C1442  C1443   1.545   .     S
C1443  C1444   1.526   .     S
C1443  H1493   1.110   .     S
C1443  H1494   1.107   .     S
C1444  H1490   1.107   .     S
C1444  H1491   1.111   .     S
C1445  C1446   1.538   .     S
C1445  H1471   1.096   .     S
C1445  H1472   1.111   .     S
C1446  H1470   1.101   .     S
C1446  C1447   1.528   .     S
C1446  H1469   1.108   .     S
C1447  H1466   1.110   .     S
C1447  H1467   1.111   .     S
C1447  H1468   1.110   .     S
C1448  H1479   1.104   .     S
C1448  H1480   1.088   .     S
C1448  C1449   1.537   .     S
C1449  H1477   1.110   .     S
C1449  H1478   1.109   .     S
C1449  C2206   1.528   .     S
C1450  H1476   1.109   .     S
C1450  H1473   1.111   .     S
C1451  O1511   1.304   .     A
C1451  O1508   1.312   .     A
C1451  C1456   1.413   .     S
C1452  H1488   1.105   .     S
C1452  C1453   1.545   .     S
C1452  H1487   1.084   .     S
C1453  H1484   1.106   .     S
C1453  H1486   1.109   .     S
C1454  H1483   1.110   .     S
C1454  H1482   1.111   .     S
C1454  H1481   1.105   .     S
C1454  C2209   1.526   .     S
C1455  C1457   1.413   .     S
C1455  O1509   1.313   .     A
C1455  O1510   1.304   .     A
C1457  C2212   1.193   .     S
C1459  C1262   1.402   1_655 S
C1460  C1290   1.403   1_655 S
Cu1461 O1506   1.961   .     S
Cu1461 O1510   1.929   .     S
Cu1461 O1497   1.947   .     S
Cu1461 Cu1462  2.742   .     S
Cu1461 N1495   2.061   .     S
Cu1461 O1508   1.938   .     S
Cu1462 O1505   1.947   .     S
Cu1462 O1509   1.938   .     S
Cu1462 N1496   2.061   .     S
Cu1462 O1507   1.961   .     S
Cu1462 O1511   1.929   .     S
H1463  O1498   1.014   .     S
H1474  O1500   1.013   .     S
H1475  C2206   1.109   .     S
H1485  O1502   1.013   .     S
H1489  O1504   1.006   .     S
H1492  C1276   1.111   1_655 S
C1513  O1581   1.306   .     A
C1513  O1591   1.308   .     A
C1513  C1516   1.450   .     S
C1514  C1525   1.486   .     S
C1514  C1516   1.408   .     A
C1514  C1711   1.402   1_455 S
C1515  C1524   1.450   .     S
C1515  C1543   1.409   .     A
C1515  C1544   1.417   .     A
C1516  C1542   1.404   .     A
C1517  N1580   1.388   .     A
C1517  C1526   1.529   .     S
C1517  C2024   1.446   1_545 S
C1518  N1579   1.391   .     A
C1518  C1529   1.525   .     S
C1518  C1771   1.430   .     S
C1519  N1580   1.379   .     A
C1519  C1532   1.524   .     S
C1519  C2022   1.430   1_545 S
C1520  C1536   1.529   .     S
C1520  N1579   1.387   .     A
C1520  C1769   1.446   .     S
C1521  O1582   1.397   .     S
C1521  C1542   1.479   .     S
C1521  O1596   1.219   .     D
C1522  C1543   1.482   .     S
C1522  O1583   1.223   .     D
C1522  O1584   1.395   .     S
C1523  O1585   1.220   .     D
C1523  C1544   1.492   .     S
C1523  O1586   1.398   .     S
C1524  O1590   1.309   .     A
C1524  O1589   1.306   .     A
C1525  O1587   1.223   .     D
C1525  O1588   1.396   .     S
C1526  H1548   1.088   .     S
C1526  H1549   1.104   .     S
C1526  C1527   1.545   .     S
C1527  C1528   1.526   .     S
C1527  H1577   1.110   .     S
C1527  H1578   1.107   .     S
C1528  H1574   1.107   .     S
C1528  H1575   1.111   .     S
C1528  H1744   1.111   1_455 S
C1529  C1530   1.538   .     S
C1529  H1555   1.096   .     S
C1529  H1556   1.111   .     S
C1530  H1554   1.101   .     S
C1530  C1531   1.528   .     S
C1530  H1553   1.108   .     S
C1531  H1550   1.110   .     S
C1531  H1551   1.111   .     S
C1531  H1552   1.110   .     S
C1532  H1563   1.104   .     S
C1532  H1564   1.088   .     S
C1532  C1533   1.537   .     S
C1533  H1561   1.110   .     S
C1533  H1562   1.109   .     S
C1533  C22     1.528   1_556 S
C1534  H1560   1.109   .     S
C1534  H1557   1.111   .     S
C1535  O1595   1.304   .     A
C1535  O1592   1.312   .     A
C1535  C1540   1.413   .     S
C1536  H1572   1.105   .     S
C1536  C1537   1.545   .     S
C1536  H1571   1.084   .     S
C1537  H1568   1.106   .     S
C1537  H1570   1.109   .     S
C1538  H1567   1.110   .     S
C1538  H1566   1.111   .     S
C1538  H1565   1.105   .     S
C1538  C25     1.526   1_556 S
C1539  C1541   1.413   .     S
C1539  O1593   1.313   .     A
C1539  O1594   1.304   .     A
C1541  C28     1.193   1_556 S
C1542  C1712   1.403   1_455 S
C1543  C1598   1.402   .     S
C1544  C1626   1.403   .     S
Cu1545 O1590   1.961   .     S
Cu1545 O1594   1.929   .     S
Cu1545 O1581   1.947   .     S
Cu1545 Cu1546  2.742   .     S
Cu1545 N1579   2.061   .     S
Cu1545 O1592   1.938   .     S
Cu1546 O1589   1.947   .     S
Cu1546 O1593   1.938   .     S
Cu1546 N1580   2.061   .     S
Cu1546 O1591   1.961   .     S
Cu1546 O1595   1.929   .     S
H1547  O1582   1.014   .     S
H1558  O1584   1.013   .     S
H1559  C22     1.109   1_556 S
H1569  O1586   1.013   .     S
H1573  O1588   1.006   .     S
H1576  C1612   1.111   .     S
C1597  O1665   1.306   .     A
C1597  O1675   1.308   .     A
C1597  C1600   1.450   .     S
C1598  C1609   1.486   .     S
C1598  C1600   1.408   .     A
C1599  C1608   1.450   .     S
C1599  C1627   1.409   .     A
C1599  C1628   1.417   .     A
C1600  C1626   1.404   .     A
C1601  N1664   1.388   .     A
C1601  C1610   1.529   .     S
C1601  C2108   1.446   1_545 S
C1602  N1663   1.391   .     A
C1602  C1613   1.525   .     S
C1602  C1855   1.430   .     S
C1603  N1664   1.379   .     A
C1603  C1616   1.524   .     S
C1603  C2106   1.430   1_545 S
C1604  C1620   1.529   .     S
C1604  N1663   1.387   .     A
C1604  C1853   1.446   .     S
C1605  O1666   1.397   .     S
C1605  C1626   1.479   .     S
C1605  O1680   1.219   .     D
C1606  C1627   1.482   .     S
C1606  O1667   1.223   .     D
C1606  O1668   1.395   .     S
C1607  O1669   1.220   .     D
C1607  C1628   1.492   .     S
C1607  O1670   1.398   .     S
C1608  O1674   1.309   .     A
C1608  O1673   1.306   .     A
C1609  O1671   1.223   .     D
C1609  O1672   1.396   .     S
C1610  H1632   1.088   .     S
C1610  H1633   1.104   .     S
C1610  C1611   1.545   .     S
C1611  C1612   1.526   .     S
C1611  H1661   1.110   .     S
C1611  H1662   1.107   .     S
C1612  H1658   1.107   .     S
C1612  H1659   1.111   .     S
C1613  C1614   1.538   .     S
C1613  H1639   1.096   .     S
C1613  H1640   1.111   .     S
C1614  H1638   1.101   .     S
C1614  C1615   1.528   .     S
C1614  H1637   1.108   .     S
C1615  H1634   1.110   .     S
C1615  H1635   1.111   .     S
C1615  H1636   1.110   .     S
C1616  H1647   1.104   .     S
C1616  H1648   1.088   .     S
C1616  C1617   1.537   .     S
C1617  H1645   1.110   .     S
C1617  H1646   1.109   .     S
C1617  C106    1.528   1_556 S
C1618  H1644   1.109   .     S
C1618  H1641   1.111   .     S
C1619  O1679   1.304   .     A
C1619  O1676   1.312   .     A
C1619  C1624   1.413   .     S
C1620  H1656   1.105   .     S
C1620  C1621   1.545   .     S
C1620  H1655   1.084   .     S
C1621  H1652   1.106   .     S
C1621  H1654   1.109   .     S
C1622  H1651   1.110   .     S
C1622  H1650   1.111   .     S
C1622  H1649   1.105   .     S
C1622  C109    1.526   1_556 S
C1623  C1625   1.413   .     S
C1623  O1677   1.313   .     A
C1623  O1678   1.304   .     A
C1625  C112    1.193   1_556 S
C1627  C1682   1.402   .     S
C1628  C1710   1.403   .     S
Cu1629 O1674   1.961   .     S
Cu1629 O1678   1.929   .     S
Cu1629 O1665   1.947   .     S
Cu1629 Cu1630  2.742   .     S
Cu1629 N1663   2.061   .     S
Cu1629 O1676   1.938   .     S
Cu1630 O1673   1.947   .     S
Cu1630 O1677   1.938   .     S
Cu1630 N1664   2.061   .     S
Cu1630 O1675   1.961   .     S
Cu1630 O1679   1.929   .     S
H1631  O1666   1.014   .     S
H1642  O1668   1.013   .     S
H1643  C106    1.109   1_556 S
H1653  O1670   1.013   .     S
H1657  O1672   1.006   .     S
H1660  C1696   1.111   .     S
C1681  O1749   1.306   .     A
C1681  O1759   1.308   .     A
C1681  C1684   1.450   .     S
C1682  C1693   1.486   .     S
C1682  C1684   1.408   .     A
C1683  C1692   1.450   .     S
C1683  C1711   1.409   .     A
C1683  C1712   1.417   .     A
C1684  C1710   1.404   .     A
C1685  N1748   1.388   .     A
C1685  C1694   1.529   .     S
C1685  C2192   1.446   1_545 S
C1686  N1747   1.391   .     A
C1686  C1697   1.525   .     S
C1686  C1939   1.430   .     S
C1687  N1748   1.379   .     A
C1687  C1700   1.524   .     S
C1687  C2190   1.430   1_545 S
C1688  C1704   1.529   .     S
C1688  N1747   1.387   .     A
C1688  C1937   1.446   .     S
C1689  O1750   1.397   .     S
C1689  C1710   1.479   .     S
C1689  O1764   1.219   .     D
C1690  C1711   1.482   .     S
C1690  O1751   1.223   .     D
C1690  O1752   1.395   .     S
C1691  O1753   1.220   .     D
C1691  C1712   1.492   .     S
C1691  O1754   1.398   .     S
C1692  O1758   1.309   .     A
C1692  O1757   1.306   .     A
C1693  O1755   1.223   .     D
C1693  O1756   1.396   .     S
C1694  H1716   1.088   .     S
C1694  H1717   1.104   .     S
C1694  C1695   1.545   .     S
C1695  C1696   1.526   .     S
C1695  H1745   1.110   .     S
C1695  H1746   1.107   .     S
C1696  H1742   1.107   .     S
C1696  H1743   1.111   .     S
C1697  C1698   1.538   .     S
C1697  H1723   1.096   .     S
C1697  H1724   1.111   .     S
C1698  H1722   1.101   .     S
C1698  C1699   1.528   .     S
C1698  H1721   1.108   .     S
C1699  H1718   1.110   .     S
C1699  H1719   1.111   .     S
C1699  H1720   1.110   .     S
C1700  H1731   1.104   .     S
C1700  H1732   1.088   .     S
C1700  C1701   1.537   .     S
C1701  H1729   1.110   .     S
C1701  H1730   1.109   .     S
C1701  C190    1.528   1_556 S
C1702  H1728   1.109   .     S
C1702  H1725   1.111   .     S
C1703  O1763   1.304   .     A
C1703  O1760   1.312   .     A
C1703  C1708   1.413   .     S
C1704  H1740   1.105   .     S
C1704  C1705   1.545   .     S
C1704  H1739   1.084   .     S
C1705  H1736   1.106   .     S
C1705  H1738   1.109   .     S
C1706  H1735   1.110   .     S
C1706  H1734   1.111   .     S
C1706  H1733   1.105   .     S
C1706  C193    1.526   1_556 S
C1707  C1709   1.413   .     S
C1707  O1761   1.313   .     A
C1707  O1762   1.304   .     A
C1709  C196    1.193   1_556 S
C1711  C1514   1.402   1_655 S
C1712  C1542   1.403   1_655 S
Cu1713 O1758   1.961   .     S
Cu1713 O1762   1.929   .     S
Cu1713 O1749   1.947   .     S
Cu1713 Cu1714  2.742   .     S
Cu1713 N1747   2.061   .     S
Cu1713 O1760   1.938   .     S
Cu1714 O1757   1.947   .     S
Cu1714 O1761   1.938   .     S
Cu1714 N1748   2.061   .     S
Cu1714 O1759   1.961   .     S
Cu1714 O1763   1.929   .     S
H1715  O1750   1.014   .     S
H1726  O1752   1.013   .     S
H1727  C190    1.109   1_556 S
H1737  O1754   1.013   .     S
H1741  O1756   1.006   .     S
H1744  C1528   1.111   1_655 S
C1765  O1833   1.306   .     A
C1765  O1843   1.308   .     A
C1765  C1768   1.450   .     S
C1766  C1777   1.486   .     S
C1766  C1768   1.408   .     A
C1766  C1963   1.402   1_455 S
C1767  C1776   1.450   .     S
C1767  C1795   1.409   .     A
C1767  C1796   1.417   .     A
C1768  C1794   1.404   .     A
C1769  N1832   1.388   .     A
C1769  C1778   1.529   .     S
C1770  N1831   1.391   .     A
C1770  C1781   1.525   .     S
C1770  C2023   1.430   .     S
C1771  N1832   1.379   .     A
C1771  C1784   1.524   .     S
C1772  C1788   1.529   .     S
C1772  N1831   1.387   .     A
C1772  C2021   1.446   .     S
C1773  O1834   1.397   .     S
C1773  C1794   1.479   .     S
C1773  O1848   1.219   .     D
C1774  C1795   1.482   .     S
C1774  O1835   1.223   .     D
C1774  O1836   1.395   .     S
C1775  O1837   1.220   .     D
C1775  C1796   1.492   .     S
C1775  O1838   1.398   .     S
C1776  O1842   1.309   .     A
C1776  O1841   1.306   .     A
C1777  O1839   1.223   .     D
C1777  O1840   1.396   .     S
C1778  H1800   1.088   .     S
C1778  H1801   1.104   .     S
C1778  C1779   1.545   .     S
C1779  C1780   1.526   .     S
C1779  H1829   1.110   .     S
C1779  H1830   1.107   .     S
C1780  H1826   1.107   .     S
C1780  H1827   1.111   .     S
C1780  H1996   1.111   1_455 S
C1781  C1782   1.538   .     S
C1781  H1807   1.096   .     S
C1781  H1808   1.111   .     S
C1782  H1806   1.101   .     S
C1782  C1783   1.528   .     S
C1782  H1805   1.108   .     S
C1783  H1802   1.110   .     S
C1783  H1803   1.111   .     S
C1783  H1804   1.110   .     S
C1784  H1815   1.104   .     S
C1784  H1816   1.088   .     S
C1784  C1785   1.537   .     S
C1785  H1813   1.110   .     S
C1785  H1814   1.109   .     S
C1785  C274    1.528   1_556 S
C1786  H1812   1.109   .     S
C1786  H1809   1.111   .     S
C1787  O1847   1.304   .     A
C1787  O1844   1.312   .     A
C1787  C1792   1.413   .     S
C1788  H1824   1.105   .     S
C1788  C1789   1.545   .     S
C1788  H1823   1.084   .     S
C1789  H1820   1.106   .     S
C1789  H1822   1.109   .     S
C1790  H1819   1.110   .     S
C1790  H1818   1.111   .     S
C1790  H1817   1.105   .     S
C1790  C277    1.526   1_556 S
C1791  C1793   1.413   .     S
C1791  O1845   1.313   .     A
C1791  O1846   1.304   .     A
C1793  C280    1.193   1_556 S
C1794  C1964   1.403   1_455 S
C1795  C1850   1.402   .     S
C1796  C1878   1.403   .     S
Cu1797 O1842   1.961   .     S
Cu1797 O1846   1.929   .     S
Cu1797 O1833   1.947   .     S
Cu1797 Cu1798  2.742   .     S
Cu1797 N1831   2.061   .     S
Cu1797 O1844   1.938   .     S
Cu1798 O1841   1.947   .     S
Cu1798 O1845   1.938   .     S
Cu1798 N1832   2.061   .     S
Cu1798 O1843   1.961   .     S
Cu1798 O1847   1.929   .     S
H1799  O1834   1.014   .     S
H1810  O1836   1.013   .     S
H1811  C274    1.109   1_556 S
H1821  O1838   1.013   .     S
H1825  O1840   1.006   .     S
H1828  C1864   1.111   .     S
C1849  O1917   1.306   .     A
C1849  O1927   1.308   .     A
C1849  C1852   1.450   .     S
C1850  C1861   1.486   .     S
C1850  C1852   1.408   .     A
C1851  C1860   1.450   .     S
C1851  C1879   1.409   .     A
C1851  C1880   1.417   .     A
C1852  C1878   1.404   .     A
C1853  N1916   1.388   .     A
C1853  C1862   1.529   .     S
C1854  N1915   1.391   .     A
C1854  C1865   1.525   .     S
C1854  C2107   1.430   .     S
C1855  N1916   1.379   .     A
C1855  C1868   1.524   .     S
C1856  C1872   1.529   .     S
C1856  N1915   1.387   .     A
C1856  C2105   1.446   .     S
C1857  O1918   1.397   .     S
C1857  C1878   1.479   .     S
C1857  O1932   1.219   .     D
C1858  C1879   1.482   .     S
C1858  O1919   1.223   .     D
C1858  O1920   1.395   .     S
C1859  O1921   1.220   .     D
C1859  C1880   1.492   .     S
C1859  O1922   1.398   .     S
C1860  O1926   1.309   .     A
C1860  O1925   1.306   .     A
C1861  O1923   1.223   .     D
C1861  O1924   1.396   .     S
C1862  H1884   1.088   .     S
C1862  H1885   1.104   .     S
C1862  C1863   1.545   .     S
C1863  C1864   1.526   .     S
C1863  H1913   1.110   .     S
C1863  H1914   1.107   .     S
C1864  H1910   1.107   .     S
C1864  H1911   1.111   .     S
C1865  C1866   1.538   .     S
C1865  H1891   1.096   .     S
C1865  H1892   1.111   .     S
C1866  H1890   1.101   .     S
C1866  C1867   1.528   .     S
C1866  H1889   1.108   .     S
C1867  H1886   1.110   .     S
C1867  H1887   1.111   .     S
C1867  H1888   1.110   .     S
C1868  H1899   1.104   .     S
C1868  H1900   1.088   .     S
C1868  C1869   1.537   .     S
C1869  H1897   1.110   .     S
C1869  H1898   1.109   .     S
C1869  C358    1.528   1_556 S
C1870  H1896   1.109   .     S
C1870  H1893   1.111   .     S
C1871  O1931   1.304   .     A
C1871  O1928   1.312   .     A
C1871  C1876   1.413   .     S
C1872  H1908   1.105   .     S
C1872  C1873   1.545   .     S
C1872  H1907   1.084   .     S
C1873  H1904   1.106   .     S
C1873  H1906   1.109   .     S
C1874  H1903   1.110   .     S
C1874  H1902   1.111   .     S
C1874  H1901   1.105   .     S
C1874  C361    1.526   1_556 S
C1875  C1877   1.413   .     S
C1875  O1929   1.313   .     A
C1875  O1930   1.304   .     A
C1877  C364    1.193   1_556 S
C1879  C1934   1.402   .     S
C1880  C1962   1.403   .     S
Cu1881 O1926   1.961   .     S
Cu1881 O1930   1.929   .     S
Cu1881 O1917   1.947   .     S
Cu1881 Cu1882  2.742   .     S
Cu1881 N1915   2.061   .     S
Cu1881 O1928   1.938   .     S
Cu1882 O1925   1.947   .     S
Cu1882 O1929   1.938   .     S
Cu1882 N1916   2.061   .     S
Cu1882 O1927   1.961   .     S
Cu1882 O1931   1.929   .     S
H1883  O1918   1.014   .     S
H1894  O1920   1.013   .     S
H1895  C358    1.109   1_556 S
H1905  O1922   1.013   .     S
H1909  O1924   1.006   .     S
H1912  C1948   1.111   .     S
C1933  O2001   1.306   .     A
C1933  O2011   1.308   .     A
C1933  C1936   1.450   .     S
C1934  C1945   1.486   .     S
C1934  C1936   1.408   .     A
C1935  C1944   1.450   .     S
C1935  C1963   1.409   .     A
C1935  C1964   1.417   .     A
C1936  C1962   1.404   .     A
C1937  N2000   1.388   .     A
C1937  C1946   1.529   .     S
C1938  N1999   1.391   .     A
C1938  C1949   1.525   .     S
C1938  C2191   1.430   .     S
C1939  N2000   1.379   .     A
C1939  C1952   1.524   .     S
C1940  C1956   1.529   .     S
C1940  N1999   1.387   .     A
C1940  C2189   1.446   .     S
C1941  O2002   1.397   .     S
C1941  C1962   1.479   .     S
C1941  O2016   1.219   .     D
C1942  C1963   1.482   .     S
C1942  O2003   1.223   .     D
C1942  O2004   1.395   .     S
C1943  O2005   1.220   .     D
C1943  C1964   1.492   .     S
C1943  O2006   1.398   .     S
C1944  O2010   1.309   .     A
C1944  O2009   1.306   .     A
C1945  O2007   1.223   .     D
C1945  O2008   1.396   .     S
C1946  H1968   1.088   .     S
C1946  H1969   1.104   .     S
C1946  C1947   1.545   .     S
C1947  C1948   1.526   .     S
C1947  H1997   1.110   .     S
C1947  H1998   1.107   .     S
C1948  H1994   1.107   .     S
C1948  H1995   1.111   .     S
C1949  C1950   1.538   .     S
C1949  H1975   1.096   .     S
C1949  H1976   1.111   .     S
C1950  H1974   1.101   .     S
C1950  C1951   1.528   .     S
C1950  H1973   1.108   .     S
C1951  H1970   1.110   .     S
C1951  H1971   1.111   .     S
C1951  H1972   1.110   .     S
C1952  H1983   1.104   .     S
C1952  H1984   1.088   .     S
C1952  C1953   1.537   .     S
C1953  H1981   1.110   .     S
C1953  H1982   1.109   .     S
C1953  C442    1.528   1_556 S
C1954  H1980   1.109   .     S
C1954  H1977   1.111   .     S
C1955  O2015   1.304   .     A
C1955  O2012   1.312   .     A
C1955  C1960   1.413   .     S
C1956  H1992   1.105   .     S
C1956  C1957   1.545   .     S
C1956  H1991   1.084   .     S
C1957  H1988   1.106   .     S
C1957  H1990   1.109   .     S
C1958  H1987   1.110   .     S
C1958  H1986   1.111   .     S
C1958  H1985   1.105   .     S
C1958  C445    1.526   1_556 S
C1959  C1961   1.413   .     S
C1959  O2013   1.313   .     A
C1959  O2014   1.304   .     A
C1961  C448    1.193   1_556 S
C1963  C1766   1.402   1_655 S
C1964  C1794   1.403   1_655 S
Cu1965 O2010   1.961   .     S
Cu1965 O2014   1.929   .     S
Cu1965 O2001   1.947   .     S
Cu1965 Cu1966  2.742   .     S
Cu1965 N1999   2.061   .     S
Cu1965 O2012   1.938   .     S
Cu1966 O2009   1.947   .     S
Cu1966 O2013   1.938   .     S
Cu1966 N2000   2.061   .     S
Cu1966 O2011   1.961   .     S
Cu1966 O2015   1.929   .     S
H1967  O2002   1.014   .     S
H1978  O2004   1.013   .     S
H1979  C442    1.109   1_556 S
H1989  O2006   1.013   .     S
H1993  O2008   1.006   .     S
H1996  C1780   1.111   1_655 S
C2017  O2085   1.306   .     A
C2017  O2095   1.308   .     A
C2017  C2020   1.450   .     S
C2018  C2029   1.486   .     S
C2018  C2020   1.408   .     A
C2018  C2215   1.402   1_455 S
C2019  C2028   1.450   .     S
C2019  C2047   1.409   .     A
C2019  C2048   1.417   .     A
C2020  C2046   1.404   .     A
C2021  N2084   1.388   .     A
C2021  C2030   1.529   .     S
C2022  N2083   1.391   .     A
C2022  C2033   1.525   .     S
C2022  C1519   1.430   1_565 S
C2023  N2084   1.379   .     A
C2023  C2036   1.524   .     S
C2024  C2040   1.529   .     S
C2024  N2083   1.387   .     A
C2024  C1517   1.446   1_565 S
C2025  O2086   1.397   .     S
C2025  C2046   1.479   .     S
C2025  O2100   1.219   .     D
C2026  C2047   1.482   .     S
C2026  O2087   1.223   .     D
C2026  O2088   1.395   .     S
C2027  O2089   1.220   .     D
C2027  C2048   1.492   .     S
C2027  O2090   1.398   .     S
C2028  O2094   1.309   .     A
C2028  O2093   1.306   .     A
C2029  O2091   1.223   .     D
C2029  O2092   1.396   .     S
C2030  H2052   1.088   .     S
C2030  H2053   1.104   .     S
C2030  C2031   1.545   .     S
C2031  C2032   1.526   .     S
C2031  H2081   1.110   .     S
C2031  H2082   1.107   .     S
C2032  H2078   1.107   .     S
C2032  H2079   1.111   .     S
C2032  H2248   1.111   1_455 S
C2033  C2034   1.538   .     S
C2033  H2059   1.096   .     S
C2033  H2060   1.111   .     S
C2034  H2058   1.101   .     S
C2034  C2035   1.528   .     S
C2034  H2057   1.108   .     S
C2035  H2054   1.110   .     S
C2035  H2055   1.111   .     S
C2035  H2056   1.110   .     S
C2036  H2067   1.104   .     S
C2036  H2068   1.088   .     S
C2036  C2037   1.537   .     S
C2037  H2065   1.110   .     S
C2037  H2066   1.109   .     S
C2037  C526    1.528   1_556 S
C2038  H2064   1.109   .     S
C2038  H2061   1.111   .     S
C2039  O2099   1.304   .     A
C2039  O2096   1.312   .     A
C2039  C2044   1.413   .     S
C2040  H2076   1.105   .     S
C2040  C2041   1.545   .     S
C2040  H2075   1.084   .     S
C2041  H2072   1.106   .     S
C2041  H2074   1.109   .     S
C2042  H2071   1.110   .     S
C2042  H2070   1.111   .     S
C2042  H2069   1.105   .     S
C2042  C529    1.526   1_556 S
C2043  C2045   1.413   .     S
C2043  O2097   1.313   .     A
C2043  O2098   1.304   .     A
C2045  C532    1.193   1_556 S
C2046  C2216   1.403   1_455 S
C2047  C2102   1.402   .     S
C2048  C2130   1.403   .     S
Cu2049 O2094   1.961   .     S
Cu2049 O2098   1.929   .     S
Cu2049 O2085   1.947   .     S
Cu2049 Cu2050  2.742   .     S
Cu2049 N2083   2.061   .     S
Cu2049 O2096   1.938   .     S
Cu2050 O2093   1.947   .     S
Cu2050 O2097   1.938   .     S
Cu2050 N2084   2.061   .     S
Cu2050 O2095   1.961   .     S
Cu2050 O2099   1.929   .     S
H2051  O2086   1.014   .     S
H2062  O2088   1.013   .     S
H2063  C526    1.109   1_556 S
H2073  O2090   1.013   .     S
H2077  O2092   1.006   .     S
H2080  C2116   1.111   .     S
C2101  O2169   1.306   .     A
C2101  O2179   1.308   .     A
C2101  C2104   1.450   .     S
C2102  C2113   1.486   .     S
C2102  C2104   1.408   .     A
C2103  C2112   1.450   .     S
C2103  C2131   1.409   .     A
C2103  C2132   1.417   .     A
C2104  C2130   1.404   .     A
C2105  N2168   1.388   .     A
C2105  C2114   1.529   .     S
C2106  N2167   1.391   .     A
C2106  C2117   1.525   .     S
C2106  C1603   1.430   1_565 S
C2107  N2168   1.379   .     A
C2107  C2120   1.524   .     S
C2108  C2124   1.529   .     S
C2108  N2167   1.387   .     A
C2108  C1601   1.446   1_565 S
C2109  O2170   1.397   .     S
C2109  C2130   1.479   .     S
C2109  O2184   1.219   .     D
C2110  C2131   1.482   .     S
C2110  O2171   1.223   .     D
C2110  O2172   1.395   .     S
C2111  O2173   1.220   .     D
C2111  C2132   1.492   .     S
C2111  O2174   1.398   .     S
C2112  O2178   1.309   .     A
C2112  O2177   1.306   .     A
C2113  O2175   1.223   .     D
C2113  O2176   1.396   .     S
C2114  H2136   1.088   .     S
C2114  H2137   1.104   .     S
C2114  C2115   1.545   .     S
C2115  C2116   1.526   .     S
C2115  H2165   1.110   .     S
C2115  H2166   1.107   .     S
C2116  H2162   1.107   .     S
C2116  H2163   1.111   .     S
C2117  C2118   1.538   .     S
C2117  H2143   1.096   .     S
C2117  H2144   1.111   .     S
C2118  H2142   1.101   .     S
C2118  C2119   1.528   .     S
C2118  H2141   1.108   .     S
C2119  H2138   1.110   .     S
C2119  H2139   1.111   .     S
C2119  H2140   1.110   .     S
C2120  H2151   1.104   .     S
C2120  H2152   1.088   .     S
C2120  C2121   1.537   .     S
C2121  H2149   1.110   .     S
C2121  H2150   1.109   .     S
C2121  C610    1.528   1_556 S
C2122  H2148   1.109   .     S
C2122  H2145   1.111   .     S
C2123  O2183   1.304   .     A
C2123  O2180   1.312   .     A
C2123  C2128   1.413   .     S
C2124  H2160   1.105   .     S
C2124  C2125   1.545   .     S
C2124  H2159   1.084   .     S
C2125  H2156   1.106   .     S
C2125  H2158   1.109   .     S
C2126  H2155   1.110   .     S
C2126  H2154   1.111   .     S
C2126  H2153   1.105   .     S
C2126  C613    1.526   1_556 S
C2127  C2129   1.413   .     S
C2127  O2181   1.313   .     A
C2127  O2182   1.304   .     A
C2129  C616    1.193   1_556 S
C2131  C2186   1.402   .     S
C2132  C2214   1.403   .     S
Cu2133 O2178   1.961   .     S
Cu2133 O2182   1.929   .     S
Cu2133 O2169   1.947   .     S
Cu2133 Cu2134  2.742   .     S
Cu2133 N2167   2.061   .     S
Cu2133 O2180   1.938   .     S
Cu2134 O2177   1.947   .     S
Cu2134 O2181   1.938   .     S
Cu2134 N2168   2.061   .     S
Cu2134 O2179   1.961   .     S
Cu2134 O2183   1.929   .     S
H2135  O2170   1.014   .     S
H2146  O2172   1.013   .     S
H2147  C610    1.109   1_556 S
H2157  O2174   1.013   .     S
H2161  O2176   1.006   .     S
H2164  C2200   1.111   .     S
C2185  O2253   1.306   .     A
C2185  O2263   1.308   .     A
C2185  C2188   1.450   .     S
C2186  C2197   1.486   .     S
C2186  C2188   1.408   .     A
C2187  C2196   1.450   .     S
C2187  C2215   1.409   .     A
C2187  C2216   1.417   .     A
C2188  C2214   1.404   .     A
C2189  N2252   1.388   .     A
C2189  C2198   1.529   .     S
C2190  N2251   1.391   .     A
C2190  C2201   1.525   .     S
C2190  C1687   1.430   1_565 S
C2191  N2252   1.379   .     A
C2191  C2204   1.524   .     S
C2192  C2208   1.529   .     S
C2192  N2251   1.387   .     A
C2192  C1685   1.446   1_565 S
C2193  O2254   1.397   .     S
C2193  C2214   1.479   .     S
C2193  O2268   1.219   .     D
C2194  C2215   1.482   .     S
C2194  O2255   1.223   .     D
C2194  O2256   1.395   .     S
C2195  O2257   1.220   .     D
C2195  C2216   1.492   .     S
C2195  O2258   1.398   .     S
C2196  O2262   1.309   .     A
C2196  O2261   1.306   .     A
C2197  O2259   1.223   .     D
C2197  O2260   1.396   .     S
C2198  H2220   1.088   .     S
C2198  H2221   1.104   .     S
C2198  C2199   1.545   .     S
C2199  C2200   1.526   .     S
C2199  H2249   1.110   .     S
C2199  H2250   1.107   .     S
C2200  H2246   1.107   .     S
C2200  H2247   1.111   .     S
C2201  C2202   1.538   .     S
C2201  H2227   1.096   .     S
C2201  H2228   1.111   .     S
C2202  H2226   1.101   .     S
C2202  C2203   1.528   .     S
C2202  H2225   1.108   .     S
C2203  H2222   1.110   .     S
C2203  H2223   1.111   .     S
C2203  H2224   1.110   .     S
C2204  H2235   1.104   .     S
C2204  H2236   1.088   .     S
C2204  C2205   1.537   .     S
C2205  H2233   1.110   .     S
C2205  H2234   1.109   .     S
C2205  C694    1.528   1_556 S
C2206  H2232   1.109   .     S
C2206  H2229   1.111   .     S
C2207  O2267   1.304   .     A
C2207  O2264   1.312   .     A
C2207  C2212   1.413   .     S
C2208  H2244   1.105   .     S
C2208  C2209   1.545   .     S
C2208  H2243   1.084   .     S
C2209  H2240   1.106   .     S
C2209  H2242   1.109   .     S
C2210  H2239   1.110   .     S
C2210  H2238   1.111   .     S
C2210  H2237   1.105   .     S
C2210  C697    1.526   1_556 S
C2211  C2213   1.413   .     S
C2211  O2265   1.313   .     A
C2211  O2266   1.304   .     A
C2213  C700    1.193   1_556 S
C2215  C2018   1.402   1_655 S
C2216  C2046   1.403   1_655 S
Cu2217 O2262   1.961   .     S
Cu2217 O2266   1.929   .     S
Cu2217 O2253   1.947   .     S
Cu2217 Cu2218  2.742   .     S
Cu2217 N2251   2.061   .     S
Cu2217 O2264   1.938   .     S
Cu2218 O2261   1.947   .     S
Cu2218 O2265   1.938   .     S
Cu2218 N2252   2.061   .     S
Cu2218 O2263   1.961   .     S
Cu2218 O2267   1.929   .     S
H2219  O2254   1.014   .     S
H2230  O2256   1.013   .     S
H2231  C694    1.109   1_556 S
H2241  O2258   1.013   .     S
H2245  O2260   1.006   .     S
H2248  C2032   1.111   1_655 S
