data_str_m2_o10_o17_pcu_sym.7
_audit_creation_date              2020-01-03
_audit_creation_method            'Materials Studio'
_symmetry_space_group_name_H-M    'P1'
_symmetry_Int_Tables_number       1
_symmetry_cell_setting            triclinic
loop_
_symmetry_equiv_pos_as_xyz
  x,y,z
_cell_length_a                    30.0799
_cell_length_b                    26.1983
_cell_length_c                    22.2854
_cell_angle_alpha                 102.1265
_cell_angle_beta                  94.5420
_cell_angle_gamma                 92.6134
loop_
_atom_site_label
_atom_site_type_symbol
_atom_site_fract_x
_atom_site_fract_y
_atom_site_fract_z
_atom_site_U_iso_or_equiv
_atom_site_adp_type
_atom_site_occupancy
C1     C     0.24987   0.06699   0.15170   0.00000  Uiso   1.00
C2     C     0.08897   0.14542   0.11332   0.00000  Uiso   1.00
C3     C     0.38397   0.16747   0.16544   0.00000  Uiso   1.00
C4     C     0.11603   0.16587   0.16790   0.00000  Uiso   1.00
C5     C     0.40307   0.14682   0.11103   0.00000  Uiso   1.00
C6     C     0.09693   0.18652   0.22230   0.00000  Uiso   1.00
C7     C     0.44949   0.14526   0.11089   0.00000  Uiso   1.00
C8     C     0.05051   0.18807   0.22244   0.00000  Uiso   1.00
C9     C     0.47669   0.16668   0.16620   0.00000  Uiso   1.00
C10    C     0.02331   0.16666   0.16714   0.00000  Uiso   1.00
C11    C     0.45724   0.18808   0.22069   0.00000  Uiso   1.00
C12    C     0.25013   0.26634   0.18164   0.00000  Uiso   1.00
C13    C     0.04276   0.14525   0.11264   0.00000  Uiso   1.00
C14    C     0.46935   0.12306   0.05687   0.00000  Uiso   1.00
C15    C     0.03065   0.21027   0.27646   0.00000  Uiso   1.00
C16    C     0.42788   0.04579   0.33052   0.00000  Uiso   1.00
C17    C     0.07212   0.28754   0.00281   0.00000  Uiso   1.00
C18    C     0.28439   0.32374   0.09697   0.00000  Uiso   1.00
C19    C     0.21561   0.00959   0.23636   0.00000  Uiso   1.00
C20    C     0.01591   0.12387   0.05815   0.00000  Uiso   1.00
C21    C     0.48409   0.20947   0.27518   0.00000  Uiso   1.00
C22    C     0.25680   0.01276   0.14539   0.00000  Uiso   1.00
C23    C     0.24320   0.32058   0.18794   0.00000  Uiso   1.00
C24    C     0.16437   0.16630   0.16722   0.00000  Uiso   1.00
C25    C     0.33563   0.16703   0.16611   0.00000  Uiso   1.00
C26    C     0.41103   0.18792   0.22001   0.00000  Uiso   1.00
Cu27   Cu    0.25500   0.17246   0.22813   0.00000  Uiso   1.00
Cu28   Cu    0.24499   0.16087   0.10521   0.00000  Uiso   1.00
H29    H     0.39610   0.20425   0.26202   0.00000  Uiso   1.00
H30    H     0.45695   0.02098   0.32946   0.00000  Uiso   1.00
H31    H     0.40547   0.03154   0.28761   0.00000  Uiso   1.00
H32    H     0.40895   0.04199   0.03702   0.00000  Uiso   1.00
H33    H     0.04277   0.22878   0.03798   0.00000  Uiso   1.00
H34    H     0.04305   0.31236   0.00388   0.00000  Uiso   1.00
H35    H     0.09105   0.29134   0.29631   0.00000  Uiso   1.00
H36    H     0.09453   0.30179   0.04572   0.00000  Uiso   1.00
H37    H     0.10389   0.12908   0.07131   0.00000  Uiso   1.00
H38    H     0.38156   0.13137   0.06921   0.00000  Uiso   1.00
H39    H     0.11844   0.20197   0.26413   0.00000  Uiso   1.00
H40    H     0.03112   0.10717   0.01652   0.00000  Uiso   1.00
H41    H     0.46888   0.22616   0.31682   0.00000  Uiso   1.00
H42    H     0.21315   0.12874   0.31664   0.00000  Uiso   1.00
H43    H     0.28685   0.20459   0.01670   0.00000  Uiso   1.00
H44    H     0.45723   0.10456   0.29535   0.00000  Uiso   1.00
N45    N     0.23744   0.15214   0.01284   0.00000  Uiso   1.00
N46    N     0.26255   0.18119   0.32049   0.00000  Uiso   1.00
N47    N     0.44287   0.09977   0.00117   0.00000  Uiso   1.00
N48    N     0.05713   0.23356   0.33216   0.00000  Uiso   1.00
N49    N     0.30656   0.30656   0.05848   0.00000  Uiso   1.00
N50    N     0.19343   0.02677   0.27485   0.00000  Uiso   1.00
O51    O     0.25325   0.09538   0.20659   0.00000  Uiso   1.00
O52    O     0.24674   0.23796   0.12674   0.00000  Uiso   1.00
O53    O     0.24480   0.08559   0.10279   0.00000  Uiso   1.00
O54    O     0.25520   0.24774   0.23055   0.00000  Uiso   1.00
O55    O     0.18935   0.17155   0.21857   0.00000  Uiso   1.00
O56    O     0.31064   0.16179   0.11476   0.00000  Uiso   1.00
O57    O     0.18090   0.16176   0.11477   0.00000  Uiso   1.00
O58    O     0.31910   0.17157   0.21857   0.00000  Uiso   1.00
C59    C     0.74987   0.06699   0.15170   0.00000  Uiso   1.00
C60    C     0.58897   0.14542   0.11332   0.00000  Uiso   1.00
C61    C     0.88397   0.16747   0.16544   0.00000  Uiso   1.00
C62    C     0.61603   0.16587   0.16790   0.00000  Uiso   1.00
C63    C     0.90307   0.14682   0.11103   0.00000  Uiso   1.00
C64    C     0.59693   0.18652   0.22230   0.00000  Uiso   1.00
C65    C     0.94949   0.14526   0.11089   0.00000  Uiso   1.00
C66    C     0.55051   0.18807   0.22244   0.00000  Uiso   1.00
C67    C     0.97669   0.16668   0.16620   0.00000  Uiso   1.00
C68    C     0.52331   0.16666   0.16714   0.00000  Uiso   1.00
C69    C     0.95724   0.18808   0.22069   0.00000  Uiso   1.00
C70    C     0.75013   0.26634   0.18164   0.00000  Uiso   1.00
C71    C     0.54276   0.14525   0.11264   0.00000  Uiso   1.00
C72    C     0.96935   0.12306   0.05687   0.00000  Uiso   1.00
C73    C     0.53065   0.21027   0.27646   0.00000  Uiso   1.00
C74    C     0.92788   0.04579   0.33052   0.00000  Uiso   1.00
C75    C     0.57212   0.28754   0.00281   0.00000  Uiso   1.00
C76    C     0.78439   0.32374   0.09697   0.00000  Uiso   1.00
C77    C     0.71561   0.00959   0.23636   0.00000  Uiso   1.00
C78    C     0.51591   0.12387   0.05815   0.00000  Uiso   1.00
C79    C     0.98409   0.20947   0.27518   0.00000  Uiso   1.00
C80    C     0.75680   0.01276   0.14539   0.00000  Uiso   1.00
C81    C     0.74320   0.32058   0.18794   0.00000  Uiso   1.00
C82    C     0.66437   0.16630   0.16722   0.00000  Uiso   1.00
C83    C     0.83563   0.16703   0.16611   0.00000  Uiso   1.00
C84    C     0.91103   0.18792   0.22001   0.00000  Uiso   1.00
Cu85   Cu    0.75500   0.17246   0.22813   0.00000  Uiso   1.00
Cu86   Cu    0.74499   0.16087   0.10521   0.00000  Uiso   1.00
H87    H     0.89610   0.20425   0.26202   0.00000  Uiso   1.00
H88    H     0.95695   0.02098   0.32946   0.00000  Uiso   1.00
H89    H     0.90547   0.03154   0.28761   0.00000  Uiso   1.00
H90    H     0.90895   0.04199   0.03702   0.00000  Uiso   1.00
H91    H     0.54277   0.22878   0.03798   0.00000  Uiso   1.00
H92    H     0.54305   0.31236   0.00388   0.00000  Uiso   1.00
H93    H     0.59105   0.29134   0.29631   0.00000  Uiso   1.00
H94    H     0.59453   0.30179   0.04572   0.00000  Uiso   1.00
H95    H     0.60389   0.12908   0.07131   0.00000  Uiso   1.00
H96    H     0.88156   0.13137   0.06921   0.00000  Uiso   1.00
H97    H     0.61844   0.20197   0.26413   0.00000  Uiso   1.00
H98    H     0.53112   0.10717   0.01652   0.00000  Uiso   1.00
H99    H     0.96888   0.22616   0.31682   0.00000  Uiso   1.00
H100   H     0.71315   0.12874   0.31664   0.00000  Uiso   1.00
H101   H     0.78685   0.20459   0.01670   0.00000  Uiso   1.00
H102   H     0.95723   0.10456   0.29535   0.00000  Uiso   1.00
N103   N     0.73744   0.15214   0.01284   0.00000  Uiso   1.00
N104   N     0.76255   0.18119   0.32049   0.00000  Uiso   1.00
N105   N     0.94287   0.09977   0.00117   0.00000  Uiso   1.00
N106   N     0.55713   0.23356   0.33216   0.00000  Uiso   1.00
N107   N     0.80656   0.30656   0.05848   0.00000  Uiso   1.00
N108   N     0.69343   0.02677   0.27485   0.00000  Uiso   1.00
O109   O     0.75325   0.09538   0.20659   0.00000  Uiso   1.00
O110   O     0.74674   0.23796   0.12674   0.00000  Uiso   1.00
O111   O     0.74480   0.08559   0.10279   0.00000  Uiso   1.00
O112   O     0.75520   0.24774   0.23055   0.00000  Uiso   1.00
O113   O     0.68935   0.17155   0.21857   0.00000  Uiso   1.00
O114   O     0.81064   0.16179   0.11476   0.00000  Uiso   1.00
O115   O     0.68090   0.16176   0.11477   0.00000  Uiso   1.00
O116   O     0.81910   0.17157   0.21857   0.00000  Uiso   1.00
C117   C     0.24987   0.40033   0.15170   0.00000  Uiso   1.00
C118   C     0.08897   0.47875   0.11332   0.00000  Uiso   1.00
C119   C     0.38397   0.50080   0.16544   0.00000  Uiso   1.00
C120   C     0.11603   0.49920   0.16790   0.00000  Uiso   1.00
C121   C     0.40307   0.48015   0.11103   0.00000  Uiso   1.00
C122   C     0.09693   0.51985   0.22230   0.00000  Uiso   1.00
C123   C     0.44949   0.47859   0.11089   0.00000  Uiso   1.00
C124   C     0.05051   0.52141   0.22244   0.00000  Uiso   1.00
C125   C     0.47669   0.50001   0.16620   0.00000  Uiso   1.00
C126   C     0.02331   0.49999   0.16714   0.00000  Uiso   1.00
C127   C     0.45724   0.52141   0.22069   0.00000  Uiso   1.00
C128   C     0.25013   0.59967   0.18164   0.00000  Uiso   1.00
C129   C     0.04276   0.47859   0.11264   0.00000  Uiso   1.00
C130   C     0.46935   0.45639   0.05687   0.00000  Uiso   1.00
C131   C     0.03065   0.54361   0.27646   0.00000  Uiso   1.00
C132   C     0.42788   0.37912   0.33052   0.00000  Uiso   1.00
C133   C     0.07212   0.62088   0.00281   0.00000  Uiso   1.00
C134   C     0.28439   0.65707   0.09697   0.00000  Uiso   1.00
C135   C     0.21561   0.34293   0.23636   0.00000  Uiso   1.00
C136   C     0.01591   0.45720   0.05815   0.00000  Uiso   1.00
C137   C     0.48409   0.54280   0.27518   0.00000  Uiso   1.00
C138   C     0.25680   0.34609   0.14539   0.00000  Uiso   1.00
C139   C     0.24320   0.65391   0.18794   0.00000  Uiso   1.00
C140   C     0.16437   0.49963   0.16722   0.00000  Uiso   1.00
C141   C     0.33563   0.50037   0.16611   0.00000  Uiso   1.00
C142   C     0.41103   0.52125   0.22001   0.00000  Uiso   1.00
Cu143  Cu    0.25500   0.50579   0.22813   0.00000  Uiso   1.00
Cu144  Cu    0.24499   0.49421   0.10521   0.00000  Uiso   1.00
H145   H     0.39610   0.53759   0.26202   0.00000  Uiso   1.00
H146   H     0.45695   0.35431   0.32946   0.00000  Uiso   1.00
H147   H     0.40547   0.36488   0.28761   0.00000  Uiso   1.00
H148   H     0.40895   0.37532   0.03702   0.00000  Uiso   1.00
H149   H     0.04277   0.56211   0.03798   0.00000  Uiso   1.00
H150   H     0.04305   0.64569   0.00388   0.00000  Uiso   1.00
H151   H     0.09105   0.62468   0.29631   0.00000  Uiso   1.00
H152   H     0.09453   0.63512   0.04572   0.00000  Uiso   1.00
H153   H     0.10389   0.46241   0.07131   0.00000  Uiso   1.00
H154   H     0.38156   0.46470   0.06921   0.00000  Uiso   1.00
H155   H     0.11844   0.53530   0.26413   0.00000  Uiso   1.00
H156   H     0.03112   0.44050   0.01652   0.00000  Uiso   1.00
H157   H     0.46888   0.55950   0.31682   0.00000  Uiso   1.00
H158   H     0.21315   0.46207   0.31664   0.00000  Uiso   1.00
H159   H     0.28685   0.53793   0.01670   0.00000  Uiso   1.00
H160   H     0.45723   0.43789   0.29535   0.00000  Uiso   1.00
N161   N     0.23744   0.48547   0.01284   0.00000  Uiso   1.00
N162   N     0.26255   0.51453   0.32049   0.00000  Uiso   1.00
N163   N     0.44287   0.43311   0.00117   0.00000  Uiso   1.00
N164   N     0.05713   0.56689   0.33216   0.00000  Uiso   1.00
N165   N     0.30656   0.63989   0.05848   0.00000  Uiso   1.00
N166   N     0.19343   0.36011   0.27485   0.00000  Uiso   1.00
O167   O     0.25325   0.42871   0.20659   0.00000  Uiso   1.00
O168   O     0.24674   0.57129   0.12674   0.00000  Uiso   1.00
O169   O     0.24480   0.41892   0.10279   0.00000  Uiso   1.00
O170   O     0.25520   0.58108   0.23055   0.00000  Uiso   1.00
O171   O     0.18935   0.50488   0.21857   0.00000  Uiso   1.00
O172   O     0.31064   0.49512   0.11476   0.00000  Uiso   1.00
O173   O     0.18090   0.49510   0.11477   0.00000  Uiso   1.00
O174   O     0.31910   0.50490   0.21857   0.00000  Uiso   1.00
C175   C     0.74987   0.40033   0.15170   0.00000  Uiso   1.00
C176   C     0.58897   0.47875   0.11332   0.00000  Uiso   1.00
C177   C     0.88397   0.50080   0.16544   0.00000  Uiso   1.00
C178   C     0.61603   0.49920   0.16790   0.00000  Uiso   1.00
C179   C     0.90307   0.48015   0.11103   0.00000  Uiso   1.00
C180   C     0.59693   0.51985   0.22230   0.00000  Uiso   1.00
C181   C     0.94949   0.47859   0.11089   0.00000  Uiso   1.00
C182   C     0.55051   0.52141   0.22244   0.00000  Uiso   1.00
C183   C     0.97669   0.50001   0.16620   0.00000  Uiso   1.00
C184   C     0.52331   0.49999   0.16714   0.00000  Uiso   1.00
C185   C     0.95724   0.52141   0.22069   0.00000  Uiso   1.00
C186   C     0.75013   0.59967   0.18164   0.00000  Uiso   1.00
C187   C     0.54276   0.47859   0.11264   0.00000  Uiso   1.00
C188   C     0.96935   0.45639   0.05687   0.00000  Uiso   1.00
C189   C     0.53065   0.54361   0.27646   0.00000  Uiso   1.00
C190   C     0.92788   0.37912   0.33052   0.00000  Uiso   1.00
C191   C     0.57212   0.62088   0.00281   0.00000  Uiso   1.00
C192   C     0.78439   0.65707   0.09697   0.00000  Uiso   1.00
C193   C     0.71561   0.34293   0.23636   0.00000  Uiso   1.00
C194   C     0.51591   0.45720   0.05815   0.00000  Uiso   1.00
C195   C     0.98409   0.54280   0.27518   0.00000  Uiso   1.00
C196   C     0.75680   0.34609   0.14539   0.00000  Uiso   1.00
C197   C     0.74320   0.65391   0.18794   0.00000  Uiso   1.00
C198   C     0.66437   0.49963   0.16722   0.00000  Uiso   1.00
C199   C     0.83563   0.50037   0.16611   0.00000  Uiso   1.00
C200   C     0.91103   0.52125   0.22001   0.00000  Uiso   1.00
Cu201  Cu    0.75500   0.50579   0.22813   0.00000  Uiso   1.00
Cu202  Cu    0.74499   0.49421   0.10521   0.00000  Uiso   1.00
H203   H     0.89610   0.53759   0.26202   0.00000  Uiso   1.00
H204   H     0.95695   0.35431   0.32946   0.00000  Uiso   1.00
H205   H     0.90547   0.36488   0.28761   0.00000  Uiso   1.00
H206   H     0.90895   0.37532   0.03702   0.00000  Uiso   1.00
H207   H     0.54277   0.56211   0.03798   0.00000  Uiso   1.00
H208   H     0.54305   0.64569   0.00388   0.00000  Uiso   1.00
H209   H     0.59105   0.62468   0.29631   0.00000  Uiso   1.00
H210   H     0.59453   0.63512   0.04572   0.00000  Uiso   1.00
H211   H     0.60389   0.46241   0.07131   0.00000  Uiso   1.00
H212   H     0.88156   0.46470   0.06921   0.00000  Uiso   1.00
H213   H     0.61844   0.53530   0.26413   0.00000  Uiso   1.00
H214   H     0.53112   0.44050   0.01652   0.00000  Uiso   1.00
H215   H     0.96888   0.55950   0.31682   0.00000  Uiso   1.00
H216   H     0.71315   0.46207   0.31664   0.00000  Uiso   1.00
H217   H     0.78685   0.53793   0.01670   0.00000  Uiso   1.00
H218   H     0.95723   0.43789   0.29535   0.00000  Uiso   1.00
N219   N     0.73744   0.48547   0.01284   0.00000  Uiso   1.00
N220   N     0.76255   0.51453   0.32049   0.00000  Uiso   1.00
N221   N     0.94287   0.43311   0.00117   0.00000  Uiso   1.00
N222   N     0.55713   0.56689   0.33216   0.00000  Uiso   1.00
N223   N     0.80656   0.63989   0.05848   0.00000  Uiso   1.00
N224   N     0.69343   0.36011   0.27485   0.00000  Uiso   1.00
O225   O     0.75325   0.42871   0.20659   0.00000  Uiso   1.00
O226   O     0.74674   0.57129   0.12674   0.00000  Uiso   1.00
O227   O     0.74480   0.41892   0.10279   0.00000  Uiso   1.00
O228   O     0.75520   0.58108   0.23055   0.00000  Uiso   1.00
O229   O     0.68935   0.50488   0.21857   0.00000  Uiso   1.00
O230   O     0.81064   0.49512   0.11476   0.00000  Uiso   1.00
O231   O     0.68090   0.49510   0.11477   0.00000  Uiso   1.00
O232   O     0.81910   0.50490   0.21857   0.00000  Uiso   1.00
C233   C     0.24987   0.73366   0.15170   0.00000  Uiso   1.00
C234   C     0.08897   0.81208   0.11332   0.00000  Uiso   1.00
C235   C     0.38397   0.83413   0.16544   0.00000  Uiso   1.00
C236   C     0.11603   0.83253   0.16790   0.00000  Uiso   1.00
C237   C     0.40307   0.81348   0.11103   0.00000  Uiso   1.00
C238   C     0.09693   0.85318   0.22230   0.00000  Uiso   1.00
C239   C     0.44949   0.81193   0.11089   0.00000  Uiso   1.00
C240   C     0.05051   0.85474   0.22244   0.00000  Uiso   1.00
C241   C     0.47669   0.83334   0.16620   0.00000  Uiso   1.00
C242   C     0.02331   0.83332   0.16714   0.00000  Uiso   1.00
C243   C     0.45724   0.85475   0.22069   0.00000  Uiso   1.00
C244   C     0.25013   0.93301   0.18164   0.00000  Uiso   1.00
C245   C     0.04276   0.81192   0.11264   0.00000  Uiso   1.00
C246   C     0.46935   0.78973   0.05687   0.00000  Uiso   1.00
C247   C     0.03065   0.87694   0.27646   0.00000  Uiso   1.00
C248   C     0.42788   0.71246   0.33052   0.00000  Uiso   1.00
C249   C     0.07212   0.95421   0.00281   0.00000  Uiso   1.00
C250   C     0.28439   0.99041   0.09697   0.00000  Uiso   1.00
C251   C     0.21561   0.67626   0.23636   0.00000  Uiso   1.00
C252   C     0.01591   0.79053   0.05815   0.00000  Uiso   1.00
C253   C     0.48409   0.87613   0.27518   0.00000  Uiso   1.00
C254   C     0.25680   0.67942   0.14539   0.00000  Uiso   1.00
C255   C     0.24320   0.98724   0.18794   0.00000  Uiso   1.00
C256   C     0.16437   0.83297   0.16722   0.00000  Uiso   1.00
C257   C     0.33563   0.83370   0.16611   0.00000  Uiso   1.00
C258   C     0.41103   0.85458   0.22001   0.00000  Uiso   1.00
Cu259  Cu    0.25500   0.83913   0.22813   0.00000  Uiso   1.00
Cu260  Cu    0.24499   0.82754   0.10521   0.00000  Uiso   1.00
H261   H     0.39610   0.87092   0.26202   0.00000  Uiso   1.00
H262   H     0.45695   0.68764   0.32946   0.00000  Uiso   1.00
H263   H     0.40547   0.69821   0.28761   0.00000  Uiso   1.00
H264   H     0.40895   0.70866   0.03702   0.00000  Uiso   1.00
H265   H     0.04277   0.89544   0.03798   0.00000  Uiso   1.00
H266   H     0.04305   0.97902   0.00388   0.00000  Uiso   1.00
H267   H     0.09105   0.95801   0.29631   0.00000  Uiso   1.00
H268   H     0.09453   0.96846   0.04572   0.00000  Uiso   1.00
H269   H     0.10389   0.79575   0.07131   0.00000  Uiso   1.00
H270   H     0.38156   0.79803   0.06921   0.00000  Uiso   1.00
H271   H     0.11844   0.86863   0.26413   0.00000  Uiso   1.00
H272   H     0.03112   0.77384   0.01652   0.00000  Uiso   1.00
H273   H     0.46888   0.89283   0.31682   0.00000  Uiso   1.00
H274   H     0.21315   0.79541   0.31664   0.00000  Uiso   1.00
H275   H     0.28685   0.87126   0.01670   0.00000  Uiso   1.00
H276   H     0.45723   0.77122   0.29535   0.00000  Uiso   1.00
N277   N     0.23744   0.81881   0.01284   0.00000  Uiso   1.00
N278   N     0.26255   0.84786   0.32049   0.00000  Uiso   1.00
N279   N     0.44287   0.76644   0.00117   0.00000  Uiso   1.00
N280   N     0.05713   0.90023   0.33216   0.00000  Uiso   1.00
N281   N     0.30656   0.97323   0.05848   0.00000  Uiso   1.00
N282   N     0.19343   0.69344   0.27485   0.00000  Uiso   1.00
O283   O     0.25325   0.76204   0.20659   0.00000  Uiso   1.00
O284   O     0.24674   0.90462   0.12674   0.00000  Uiso   1.00
O285   O     0.24480   0.75226   0.10279   0.00000  Uiso   1.00
O286   O     0.25520   0.91441   0.23055   0.00000  Uiso   1.00
O287   O     0.18935   0.83821   0.21857   0.00000  Uiso   1.00
O288   O     0.31064   0.82845   0.11476   0.00000  Uiso   1.00
O289   O     0.18090   0.82843   0.11477   0.00000  Uiso   1.00
O290   O     0.31910   0.83824   0.21857   0.00000  Uiso   1.00
C291   C     0.74987   0.73366   0.15170   0.00000  Uiso   1.00
C292   C     0.58897   0.81208   0.11332   0.00000  Uiso   1.00
C293   C     0.88397   0.83413   0.16544   0.00000  Uiso   1.00
C294   C     0.61603   0.83253   0.16790   0.00000  Uiso   1.00
C295   C     0.90307   0.81348   0.11103   0.00000  Uiso   1.00
C296   C     0.59693   0.85318   0.22230   0.00000  Uiso   1.00
C297   C     0.94949   0.81193   0.11089   0.00000  Uiso   1.00
C298   C     0.55051   0.85474   0.22244   0.00000  Uiso   1.00
C299   C     0.97669   0.83334   0.16620   0.00000  Uiso   1.00
C300   C     0.52331   0.83332   0.16714   0.00000  Uiso   1.00
C301   C     0.95724   0.85475   0.22069   0.00000  Uiso   1.00
C302   C     0.75013   0.93301   0.18164   0.00000  Uiso   1.00
C303   C     0.54276   0.81192   0.11264   0.00000  Uiso   1.00
C304   C     0.96935   0.78973   0.05687   0.00000  Uiso   1.00
C305   C     0.53065   0.87694   0.27646   0.00000  Uiso   1.00
C306   C     0.92788   0.71246   0.33052   0.00000  Uiso   1.00
C307   C     0.57212   0.95421   0.00281   0.00000  Uiso   1.00
C308   C     0.78439   0.99041   0.09697   0.00000  Uiso   1.00
C309   C     0.71561   0.67626   0.23636   0.00000  Uiso   1.00
C310   C     0.51591   0.79053   0.05815   0.00000  Uiso   1.00
C311   C     0.98409   0.87613   0.27518   0.00000  Uiso   1.00
C312   C     0.75680   0.67942   0.14539   0.00000  Uiso   1.00
C313   C     0.74320   0.98724   0.18794   0.00000  Uiso   1.00
C314   C     0.66437   0.83297   0.16722   0.00000  Uiso   1.00
C315   C     0.83563   0.83370   0.16611   0.00000  Uiso   1.00
C316   C     0.91103   0.85458   0.22001   0.00000  Uiso   1.00
Cu317  Cu    0.75500   0.83913   0.22813   0.00000  Uiso   1.00
Cu318  Cu    0.74499   0.82754   0.10521   0.00000  Uiso   1.00
H319   H     0.89610   0.87092   0.26202   0.00000  Uiso   1.00
H320   H     0.95695   0.68764   0.32946   0.00000  Uiso   1.00
H321   H     0.90547   0.69821   0.28761   0.00000  Uiso   1.00
H322   H     0.90895   0.70866   0.03702   0.00000  Uiso   1.00
H323   H     0.54277   0.89544   0.03798   0.00000  Uiso   1.00
H324   H     0.54305   0.97902   0.00388   0.00000  Uiso   1.00
H325   H     0.59105   0.95801   0.29631   0.00000  Uiso   1.00
H326   H     0.59453   0.96846   0.04572   0.00000  Uiso   1.00
H327   H     0.60389   0.79575   0.07131   0.00000  Uiso   1.00
H328   H     0.88156   0.79803   0.06921   0.00000  Uiso   1.00
H329   H     0.61844   0.86863   0.26413   0.00000  Uiso   1.00
H330   H     0.53112   0.77384   0.01652   0.00000  Uiso   1.00
H331   H     0.96888   0.89283   0.31682   0.00000  Uiso   1.00
H332   H     0.71315   0.79541   0.31664   0.00000  Uiso   1.00
H333   H     0.78685   0.87126   0.01670   0.00000  Uiso   1.00
H334   H     0.95723   0.77122   0.29535   0.00000  Uiso   1.00
N335   N     0.73744   0.81881   0.01284   0.00000  Uiso   1.00
N336   N     0.76255   0.84786   0.32049   0.00000  Uiso   1.00
N337   N     0.94287   0.76644   0.00117   0.00000  Uiso   1.00
N338   N     0.55713   0.90023   0.33216   0.00000  Uiso   1.00
N339   N     0.80656   0.97323   0.05848   0.00000  Uiso   1.00
N340   N     0.69343   0.69344   0.27485   0.00000  Uiso   1.00
O341   O     0.75325   0.76204   0.20659   0.00000  Uiso   1.00
O342   O     0.74674   0.90462   0.12674   0.00000  Uiso   1.00
O343   O     0.74480   0.75226   0.10279   0.00000  Uiso   1.00
O344   O     0.75520   0.91441   0.23055   0.00000  Uiso   1.00
O345   O     0.68935   0.83821   0.21857   0.00000  Uiso   1.00
O346   O     0.81064   0.82845   0.11476   0.00000  Uiso   1.00
O347   O     0.68090   0.82843   0.11477   0.00000  Uiso   1.00
O348   O     0.81910   0.83824   0.21857   0.00000  Uiso   1.00
C349   C     0.24987   0.06699   0.48503   0.00000  Uiso   1.00
C350   C     0.08897   0.14542   0.44666   0.00000  Uiso   1.00
C351   C     0.38397   0.16747   0.49877   0.00000  Uiso   1.00
C352   C     0.11603   0.16587   0.50123   0.00000  Uiso   1.00
C353   C     0.40307   0.14682   0.44436   0.00000  Uiso   1.00
C354   C     0.09693   0.18652   0.55564   0.00000  Uiso   1.00
C355   C     0.44949   0.14526   0.44422   0.00000  Uiso   1.00
C356   C     0.05051   0.18807   0.55578   0.00000  Uiso   1.00
C357   C     0.47669   0.16668   0.49953   0.00000  Uiso   1.00
C358   C     0.02331   0.16666   0.50047   0.00000  Uiso   1.00
C359   C     0.45724   0.18808   0.55402   0.00000  Uiso   1.00
C360   C     0.25013   0.26634   0.51497   0.00000  Uiso   1.00
C361   C     0.04276   0.14525   0.44598   0.00000  Uiso   1.00
C362   C     0.46935   0.12306   0.39020   0.00000  Uiso   1.00
C363   C     0.03065   0.21027   0.60980   0.00000  Uiso   1.00
C364   C     0.42788   0.04579   0.66385   0.00000  Uiso   1.00
C365   C     0.07212   0.28754   0.33615   0.00000  Uiso   1.00
C366   C     0.28439   0.32374   0.43030   0.00000  Uiso   1.00
C367   C     0.21561   0.00959   0.56969   0.00000  Uiso   1.00
C368   C     0.01591   0.12387   0.39149   0.00000  Uiso   1.00
C369   C     0.48409   0.20947   0.60851   0.00000  Uiso   1.00
C370   C     0.25680   0.01276   0.47873   0.00000  Uiso   1.00
C371   C     0.24320   0.32058   0.52127   0.00000  Uiso   1.00
C372   C     0.16437   0.16630   0.50055   0.00000  Uiso   1.00
C373   C     0.33563   0.16703   0.49945   0.00000  Uiso   1.00
C374   C     0.41103   0.18792   0.55334   0.00000  Uiso   1.00
Cu375  Cu    0.25500   0.17246   0.56146   0.00000  Uiso   1.00
Cu376  Cu    0.24499   0.16087   0.43854   0.00000  Uiso   1.00
H377   H     0.39610   0.20425   0.59536   0.00000  Uiso   1.00
H378   H     0.45695   0.02098   0.66279   0.00000  Uiso   1.00
H379   H     0.40547   0.03154   0.62095   0.00000  Uiso   1.00
H380   H     0.40895   0.04199   0.37035   0.00000  Uiso   1.00
H381   H     0.04277   0.22878   0.37131   0.00000  Uiso   1.00
H382   H     0.04305   0.31236   0.33721   0.00000  Uiso   1.00
H383   H     0.09105   0.29134   0.62965   0.00000  Uiso   1.00
H384   H     0.09453   0.30179   0.37905   0.00000  Uiso   1.00
H385   H     0.10389   0.12908   0.40464   0.00000  Uiso   1.00
H386   H     0.38156   0.13137   0.40254   0.00000  Uiso   1.00
H387   H     0.11844   0.20197   0.59746   0.00000  Uiso   1.00
H388   H     0.03112   0.10717   0.34985   0.00000  Uiso   1.00
H389   H     0.46888   0.22616   0.65015   0.00000  Uiso   1.00
H390   H     0.21315   0.12874   0.64997   0.00000  Uiso   1.00
H391   H     0.28685   0.20459   0.35003   0.00000  Uiso   1.00
H392   H     0.45723   0.10456   0.62869   0.00000  Uiso   1.00
N393   N     0.23744   0.15214   0.34617   0.00000  Uiso   1.00
N394   N     0.26255   0.18119   0.65383   0.00000  Uiso   1.00
N395   N     0.44287   0.09977   0.33450   0.00000  Uiso   1.00
N396   N     0.05713   0.23356   0.66550   0.00000  Uiso   1.00
N397   N     0.30656   0.30656   0.39182   0.00000  Uiso   1.00
N398   N     0.19343   0.02677   0.60818   0.00000  Uiso   1.00
O399   O     0.25325   0.09538   0.53992   0.00000  Uiso   1.00
O400   O     0.24674   0.23796   0.46008   0.00000  Uiso   1.00
O401   O     0.24480   0.08559   0.43612   0.00000  Uiso   1.00
O402   O     0.25520   0.24774   0.56388   0.00000  Uiso   1.00
O403   O     0.18935   0.17155   0.55191   0.00000  Uiso   1.00
O404   O     0.31064   0.16179   0.44809   0.00000  Uiso   1.00
O405   O     0.18090   0.16176   0.44810   0.00000  Uiso   1.00
O406   O     0.31910   0.17157   0.55190   0.00000  Uiso   1.00
C407   C     0.74987   0.06699   0.48503   0.00000  Uiso   1.00
C408   C     0.58897   0.14542   0.44666   0.00000  Uiso   1.00
C409   C     0.88397   0.16747   0.49877   0.00000  Uiso   1.00
C410   C     0.61603   0.16587   0.50123   0.00000  Uiso   1.00
C411   C     0.90307   0.14682   0.44436   0.00000  Uiso   1.00
C412   C     0.59693   0.18652   0.55564   0.00000  Uiso   1.00
C413   C     0.94949   0.14526   0.44422   0.00000  Uiso   1.00
C414   C     0.55051   0.18807   0.55578   0.00000  Uiso   1.00
C415   C     0.97669   0.16668   0.49953   0.00000  Uiso   1.00
C416   C     0.52331   0.16666   0.50047   0.00000  Uiso   1.00
C417   C     0.95724   0.18808   0.55402   0.00000  Uiso   1.00
C418   C     0.75013   0.26634   0.51497   0.00000  Uiso   1.00
C419   C     0.54276   0.14525   0.44598   0.00000  Uiso   1.00
C420   C     0.96935   0.12306   0.39020   0.00000  Uiso   1.00
C421   C     0.53065   0.21027   0.60980   0.00000  Uiso   1.00
C422   C     0.92788   0.04579   0.66385   0.00000  Uiso   1.00
C423   C     0.57212   0.28754   0.33615   0.00000  Uiso   1.00
C424   C     0.78439   0.32374   0.43030   0.00000  Uiso   1.00
C425   C     0.71561   0.00959   0.56969   0.00000  Uiso   1.00
C426   C     0.51591   0.12387   0.39149   0.00000  Uiso   1.00
C427   C     0.98409   0.20947   0.60851   0.00000  Uiso   1.00
C428   C     0.75680   0.01276   0.47873   0.00000  Uiso   1.00
C429   C     0.74320   0.32058   0.52127   0.00000  Uiso   1.00
C430   C     0.66437   0.16630   0.50055   0.00000  Uiso   1.00
C431   C     0.83563   0.16703   0.49945   0.00000  Uiso   1.00
C432   C     0.91103   0.18792   0.55334   0.00000  Uiso   1.00
Cu433  Cu    0.75500   0.17246   0.56146   0.00000  Uiso   1.00
Cu434  Cu    0.74499   0.16087   0.43854   0.00000  Uiso   1.00
H435   H     0.89610   0.20425   0.59536   0.00000  Uiso   1.00
H436   H     0.95695   0.02098   0.66279   0.00000  Uiso   1.00
H437   H     0.90547   0.03154   0.62095   0.00000  Uiso   1.00
H438   H     0.90895   0.04199   0.37035   0.00000  Uiso   1.00
H439   H     0.54277   0.22878   0.37131   0.00000  Uiso   1.00
H440   H     0.54305   0.31236   0.33721   0.00000  Uiso   1.00
H441   H     0.59105   0.29134   0.62965   0.00000  Uiso   1.00
H442   H     0.59453   0.30179   0.37905   0.00000  Uiso   1.00
H443   H     0.60389   0.12908   0.40464   0.00000  Uiso   1.00
H444   H     0.88156   0.13137   0.40254   0.00000  Uiso   1.00
H445   H     0.61844   0.20197   0.59746   0.00000  Uiso   1.00
H446   H     0.53112   0.10717   0.34985   0.00000  Uiso   1.00
H447   H     0.96888   0.22616   0.65015   0.00000  Uiso   1.00
H448   H     0.71315   0.12874   0.64997   0.00000  Uiso   1.00
H449   H     0.78685   0.20459   0.35003   0.00000  Uiso   1.00
H450   H     0.95723   0.10456   0.62869   0.00000  Uiso   1.00
N451   N     0.73744   0.15214   0.34617   0.00000  Uiso   1.00
N452   N     0.76255   0.18119   0.65383   0.00000  Uiso   1.00
N453   N     0.94287   0.09977   0.33450   0.00000  Uiso   1.00
N454   N     0.55713   0.23356   0.66550   0.00000  Uiso   1.00
N455   N     0.80656   0.30656   0.39182   0.00000  Uiso   1.00
N456   N     0.69343   0.02677   0.60818   0.00000  Uiso   1.00
O457   O     0.75325   0.09538   0.53992   0.00000  Uiso   1.00
O458   O     0.74674   0.23796   0.46008   0.00000  Uiso   1.00
O459   O     0.74480   0.08559   0.43612   0.00000  Uiso   1.00
O460   O     0.75520   0.24774   0.56388   0.00000  Uiso   1.00
O461   O     0.68935   0.17155   0.55191   0.00000  Uiso   1.00
O462   O     0.81064   0.16179   0.44809   0.00000  Uiso   1.00
O463   O     0.68090   0.16176   0.44810   0.00000  Uiso   1.00
O464   O     0.81910   0.17157   0.55190   0.00000  Uiso   1.00
C465   C     0.24987   0.40033   0.48503   0.00000  Uiso   1.00
C466   C     0.08897   0.47875   0.44666   0.00000  Uiso   1.00
C467   C     0.38397   0.50080   0.49877   0.00000  Uiso   1.00
C468   C     0.11603   0.49920   0.50123   0.00000  Uiso   1.00
C469   C     0.40307   0.48015   0.44436   0.00000  Uiso   1.00
C470   C     0.09693   0.51985   0.55564   0.00000  Uiso   1.00
C471   C     0.44949   0.47859   0.44422   0.00000  Uiso   1.00
C472   C     0.05051   0.52141   0.55578   0.00000  Uiso   1.00
C473   C     0.47669   0.50001   0.49953   0.00000  Uiso   1.00
C474   C     0.02331   0.49999   0.50047   0.00000  Uiso   1.00
C475   C     0.45724   0.52141   0.55402   0.00000  Uiso   1.00
C476   C     0.25013   0.59967   0.51497   0.00000  Uiso   1.00
C477   C     0.04276   0.47859   0.44598   0.00000  Uiso   1.00
C478   C     0.46935   0.45639   0.39020   0.00000  Uiso   1.00
C479   C     0.03065   0.54361   0.60980   0.00000  Uiso   1.00
C480   C     0.42788   0.37912   0.66385   0.00000  Uiso   1.00
C481   C     0.07212   0.62088   0.33615   0.00000  Uiso   1.00
C482   C     0.28439   0.65707   0.43030   0.00000  Uiso   1.00
C483   C     0.21561   0.34293   0.56969   0.00000  Uiso   1.00
C484   C     0.01591   0.45720   0.39149   0.00000  Uiso   1.00
C485   C     0.48409   0.54280   0.60851   0.00000  Uiso   1.00
C486   C     0.25680   0.34609   0.47873   0.00000  Uiso   1.00
C487   C     0.24320   0.65391   0.52127   0.00000  Uiso   1.00
C488   C     0.16437   0.49963   0.50055   0.00000  Uiso   1.00
C489   C     0.33563   0.50037   0.49945   0.00000  Uiso   1.00
C490   C     0.41103   0.52125   0.55334   0.00000  Uiso   1.00
Cu491  Cu    0.25500   0.50579   0.56146   0.00000  Uiso   1.00
Cu492  Cu    0.24499   0.49421   0.43854   0.00000  Uiso   1.00
H493   H     0.39610   0.53759   0.59536   0.00000  Uiso   1.00
H494   H     0.45695   0.35431   0.66279   0.00000  Uiso   1.00
H495   H     0.40547   0.36488   0.62095   0.00000  Uiso   1.00
H496   H     0.40895   0.37532   0.37035   0.00000  Uiso   1.00
H497   H     0.04277   0.56211   0.37131   0.00000  Uiso   1.00
H498   H     0.04305   0.64569   0.33721   0.00000  Uiso   1.00
H499   H     0.09105   0.62468   0.62965   0.00000  Uiso   1.00
H500   H     0.09453   0.63512   0.37905   0.00000  Uiso   1.00
H501   H     0.10389   0.46241   0.40464   0.00000  Uiso   1.00
H502   H     0.38156   0.46470   0.40254   0.00000  Uiso   1.00
H503   H     0.11844   0.53530   0.59746   0.00000  Uiso   1.00
H504   H     0.03112   0.44050   0.34985   0.00000  Uiso   1.00
H505   H     0.46888   0.55950   0.65015   0.00000  Uiso   1.00
H506   H     0.21315   0.46207   0.64997   0.00000  Uiso   1.00
H507   H     0.28685   0.53793   0.35003   0.00000  Uiso   1.00
H508   H     0.45723   0.43789   0.62869   0.00000  Uiso   1.00
N509   N     0.23744   0.48547   0.34617   0.00000  Uiso   1.00
N510   N     0.26255   0.51453   0.65383   0.00000  Uiso   1.00
N511   N     0.44287   0.43311   0.33450   0.00000  Uiso   1.00
N512   N     0.05713   0.56689   0.66550   0.00000  Uiso   1.00
N513   N     0.30656   0.63989   0.39182   0.00000  Uiso   1.00
N514   N     0.19343   0.36011   0.60818   0.00000  Uiso   1.00
O515   O     0.25325   0.42871   0.53992   0.00000  Uiso   1.00
O516   O     0.24674   0.57129   0.46008   0.00000  Uiso   1.00
O517   O     0.24480   0.41892   0.43612   0.00000  Uiso   1.00
O518   O     0.25520   0.58108   0.56388   0.00000  Uiso   1.00
O519   O     0.18935   0.50488   0.55191   0.00000  Uiso   1.00
O520   O     0.31064   0.49512   0.44809   0.00000  Uiso   1.00
O521   O     0.18090   0.49510   0.44810   0.00000  Uiso   1.00
O522   O     0.31910   0.50490   0.55190   0.00000  Uiso   1.00
C523   C     0.74987   0.40033   0.48503   0.00000  Uiso   1.00
C524   C     0.58897   0.47875   0.44666   0.00000  Uiso   1.00
C525   C     0.88397   0.50080   0.49877   0.00000  Uiso   1.00
C526   C     0.61603   0.49920   0.50123   0.00000  Uiso   1.00
C527   C     0.90307   0.48015   0.44436   0.00000  Uiso   1.00
C528   C     0.59693   0.51985   0.55564   0.00000  Uiso   1.00
C529   C     0.94949   0.47859   0.44422   0.00000  Uiso   1.00
C530   C     0.55051   0.52141   0.55578   0.00000  Uiso   1.00
C531   C     0.97669   0.50001   0.49953   0.00000  Uiso   1.00
C532   C     0.52331   0.49999   0.50047   0.00000  Uiso   1.00
C533   C     0.95724   0.52141   0.55402   0.00000  Uiso   1.00
C534   C     0.75013   0.59967   0.51497   0.00000  Uiso   1.00
C535   C     0.54276   0.47859   0.44598   0.00000  Uiso   1.00
C536   C     0.96935   0.45639   0.39020   0.00000  Uiso   1.00
C537   C     0.53065   0.54361   0.60980   0.00000  Uiso   1.00
C538   C     0.92788   0.37912   0.66385   0.00000  Uiso   1.00
C539   C     0.57212   0.62088   0.33615   0.00000  Uiso   1.00
C540   C     0.78439   0.65707   0.43030   0.00000  Uiso   1.00
C541   C     0.71561   0.34293   0.56969   0.00000  Uiso   1.00
C542   C     0.51591   0.45720   0.39149   0.00000  Uiso   1.00
C543   C     0.98409   0.54280   0.60851   0.00000  Uiso   1.00
C544   C     0.75680   0.34609   0.47873   0.00000  Uiso   1.00
C545   C     0.74320   0.65391   0.52127   0.00000  Uiso   1.00
C546   C     0.66437   0.49963   0.50055   0.00000  Uiso   1.00
C547   C     0.83563   0.50037   0.49945   0.00000  Uiso   1.00
C548   C     0.91103   0.52125   0.55334   0.00000  Uiso   1.00
Cu549  Cu    0.75500   0.50579   0.56146   0.00000  Uiso   1.00
Cu550  Cu    0.74499   0.49421   0.43854   0.00000  Uiso   1.00
H551   H     0.89610   0.53759   0.59536   0.00000  Uiso   1.00
H552   H     0.95695   0.35431   0.66279   0.00000  Uiso   1.00
H553   H     0.90547   0.36488   0.62095   0.00000  Uiso   1.00
H554   H     0.90895   0.37532   0.37035   0.00000  Uiso   1.00
H555   H     0.54277   0.56211   0.37131   0.00000  Uiso   1.00
H556   H     0.54305   0.64569   0.33721   0.00000  Uiso   1.00
H557   H     0.59105   0.62468   0.62965   0.00000  Uiso   1.00
H558   H     0.59453   0.63512   0.37905   0.00000  Uiso   1.00
H559   H     0.60389   0.46241   0.40464   0.00000  Uiso   1.00
H560   H     0.88156   0.46470   0.40254   0.00000  Uiso   1.00
H561   H     0.61844   0.53530   0.59746   0.00000  Uiso   1.00
H562   H     0.53112   0.44050   0.34985   0.00000  Uiso   1.00
H563   H     0.96888   0.55950   0.65015   0.00000  Uiso   1.00
H564   H     0.71315   0.46207   0.64997   0.00000  Uiso   1.00
H565   H     0.78685   0.53793   0.35003   0.00000  Uiso   1.00
H566   H     0.95723   0.43789   0.62869   0.00000  Uiso   1.00
N567   N     0.73744   0.48547   0.34617   0.00000  Uiso   1.00
N568   N     0.76255   0.51453   0.65383   0.00000  Uiso   1.00
N569   N     0.94287   0.43311   0.33450   0.00000  Uiso   1.00
N570   N     0.55713   0.56689   0.66550   0.00000  Uiso   1.00
N571   N     0.80656   0.63989   0.39182   0.00000  Uiso   1.00
N572   N     0.69343   0.36011   0.60818   0.00000  Uiso   1.00
O573   O     0.75325   0.42871   0.53992   0.00000  Uiso   1.00
O574   O     0.74674   0.57129   0.46008   0.00000  Uiso   1.00
O575   O     0.74480   0.41892   0.43612   0.00000  Uiso   1.00
O576   O     0.75520   0.58108   0.56388   0.00000  Uiso   1.00
O577   O     0.68935   0.50488   0.55191   0.00000  Uiso   1.00
O578   O     0.81064   0.49512   0.44809   0.00000  Uiso   1.00
O579   O     0.68090   0.49510   0.44810   0.00000  Uiso   1.00
O580   O     0.81910   0.50490   0.55190   0.00000  Uiso   1.00
C581   C     0.24987   0.73366   0.48503   0.00000  Uiso   1.00
C582   C     0.08897   0.81208   0.44666   0.00000  Uiso   1.00
C583   C     0.38397   0.83413   0.49877   0.00000  Uiso   1.00
C584   C     0.11603   0.83253   0.50123   0.00000  Uiso   1.00
C585   C     0.40307   0.81348   0.44436   0.00000  Uiso   1.00
C586   C     0.09693   0.85318   0.55564   0.00000  Uiso   1.00
C587   C     0.44949   0.81193   0.44422   0.00000  Uiso   1.00
C588   C     0.05051   0.85474   0.55578   0.00000  Uiso   1.00
C589   C     0.47669   0.83334   0.49953   0.00000  Uiso   1.00
C590   C     0.02331   0.83332   0.50047   0.00000  Uiso   1.00
C591   C     0.45724   0.85475   0.55402   0.00000  Uiso   1.00
C592   C     0.25013   0.93301   0.51497   0.00000  Uiso   1.00
C593   C     0.04276   0.81192   0.44598   0.00000  Uiso   1.00
C594   C     0.46935   0.78973   0.39020   0.00000  Uiso   1.00
C595   C     0.03065   0.87694   0.60980   0.00000  Uiso   1.00
C596   C     0.42788   0.71246   0.66385   0.00000  Uiso   1.00
C597   C     0.07212   0.95421   0.33615   0.00000  Uiso   1.00
C598   C     0.28439   0.99041   0.43030   0.00000  Uiso   1.00
C599   C     0.21561   0.67626   0.56969   0.00000  Uiso   1.00
C600   C     0.01591   0.79053   0.39149   0.00000  Uiso   1.00
C601   C     0.48409   0.87613   0.60851   0.00000  Uiso   1.00
C602   C     0.25680   0.67942   0.47873   0.00000  Uiso   1.00
C603   C     0.24320   0.98724   0.52127   0.00000  Uiso   1.00
C604   C     0.16437   0.83297   0.50055   0.00000  Uiso   1.00
C605   C     0.33563   0.83370   0.49945   0.00000  Uiso   1.00
C606   C     0.41103   0.85458   0.55334   0.00000  Uiso   1.00
Cu607  Cu    0.25500   0.83913   0.56146   0.00000  Uiso   1.00
Cu608  Cu    0.24499   0.82754   0.43854   0.00000  Uiso   1.00
H609   H     0.39610   0.87092   0.59536   0.00000  Uiso   1.00
H610   H     0.45695   0.68764   0.66279   0.00000  Uiso   1.00
H611   H     0.40547   0.69821   0.62095   0.00000  Uiso   1.00
H612   H     0.40895   0.70866   0.37035   0.00000  Uiso   1.00
H613   H     0.04277   0.89544   0.37131   0.00000  Uiso   1.00
H614   H     0.04305   0.97902   0.33721   0.00000  Uiso   1.00
H615   H     0.09105   0.95801   0.62965   0.00000  Uiso   1.00
H616   H     0.09453   0.96846   0.37905   0.00000  Uiso   1.00
H617   H     0.10389   0.79575   0.40464   0.00000  Uiso   1.00
H618   H     0.38156   0.79803   0.40254   0.00000  Uiso   1.00
H619   H     0.11844   0.86863   0.59746   0.00000  Uiso   1.00
H620   H     0.03112   0.77384   0.34985   0.00000  Uiso   1.00
H621   H     0.46888   0.89283   0.65015   0.00000  Uiso   1.00
H622   H     0.21315   0.79541   0.64997   0.00000  Uiso   1.00
H623   H     0.28685   0.87126   0.35003   0.00000  Uiso   1.00
H624   H     0.45723   0.77122   0.62869   0.00000  Uiso   1.00
N625   N     0.23744   0.81881   0.34617   0.00000  Uiso   1.00
N626   N     0.26255   0.84786   0.65383   0.00000  Uiso   1.00
N627   N     0.44287   0.76644   0.33450   0.00000  Uiso   1.00
N628   N     0.05713   0.90023   0.66550   0.00000  Uiso   1.00
N629   N     0.30656   0.97323   0.39182   0.00000  Uiso   1.00
N630   N     0.19343   0.69344   0.60818   0.00000  Uiso   1.00
O631   O     0.25325   0.76204   0.53992   0.00000  Uiso   1.00
O632   O     0.24674   0.90462   0.46008   0.00000  Uiso   1.00
O633   O     0.24480   0.75226   0.43612   0.00000  Uiso   1.00
O634   O     0.25520   0.91441   0.56388   0.00000  Uiso   1.00
O635   O     0.18935   0.83821   0.55191   0.00000  Uiso   1.00
O636   O     0.31064   0.82845   0.44809   0.00000  Uiso   1.00
O637   O     0.18090   0.82843   0.44810   0.00000  Uiso   1.00
O638   O     0.31910   0.83824   0.55190   0.00000  Uiso   1.00
C639   C     0.74987   0.73366   0.48503   0.00000  Uiso   1.00
C640   C     0.58897   0.81208   0.44666   0.00000  Uiso   1.00
C641   C     0.88397   0.83413   0.49877   0.00000  Uiso   1.00
C642   C     0.61603   0.83253   0.50123   0.00000  Uiso   1.00
C643   C     0.90307   0.81348   0.44436   0.00000  Uiso   1.00
C644   C     0.59693   0.85318   0.55564   0.00000  Uiso   1.00
C645   C     0.94949   0.81193   0.44422   0.00000  Uiso   1.00
C646   C     0.55051   0.85474   0.55578   0.00000  Uiso   1.00
C647   C     0.97669   0.83334   0.49953   0.00000  Uiso   1.00
C648   C     0.52331   0.83332   0.50047   0.00000  Uiso   1.00
C649   C     0.95724   0.85475   0.55402   0.00000  Uiso   1.00
C650   C     0.75013   0.93301   0.51497   0.00000  Uiso   1.00
C651   C     0.54276   0.81192   0.44598   0.00000  Uiso   1.00
C652   C     0.96935   0.78973   0.39020   0.00000  Uiso   1.00
C653   C     0.53065   0.87694   0.60980   0.00000  Uiso   1.00
C654   C     0.92788   0.71246   0.66385   0.00000  Uiso   1.00
C655   C     0.57212   0.95421   0.33615   0.00000  Uiso   1.00
C656   C     0.78439   0.99041   0.43030   0.00000  Uiso   1.00
C657   C     0.71561   0.67626   0.56969   0.00000  Uiso   1.00
C658   C     0.51591   0.79053   0.39149   0.00000  Uiso   1.00
C659   C     0.98409   0.87613   0.60851   0.00000  Uiso   1.00
C660   C     0.75680   0.67942   0.47873   0.00000  Uiso   1.00
C661   C     0.74320   0.98724   0.52127   0.00000  Uiso   1.00
C662   C     0.66437   0.83297   0.50055   0.00000  Uiso   1.00
C663   C     0.83563   0.83370   0.49945   0.00000  Uiso   1.00
C664   C     0.91103   0.85458   0.55334   0.00000  Uiso   1.00
Cu665  Cu    0.75500   0.83913   0.56146   0.00000  Uiso   1.00
Cu666  Cu    0.74499   0.82754   0.43854   0.00000  Uiso   1.00
H667   H     0.89610   0.87092   0.59536   0.00000  Uiso   1.00
H668   H     0.95695   0.68764   0.66279   0.00000  Uiso   1.00
H669   H     0.90547   0.69821   0.62095   0.00000  Uiso   1.00
H670   H     0.90895   0.70866   0.37035   0.00000  Uiso   1.00
H671   H     0.54277   0.89544   0.37131   0.00000  Uiso   1.00
H672   H     0.54305   0.97902   0.33721   0.00000  Uiso   1.00
H673   H     0.59105   0.95801   0.62965   0.00000  Uiso   1.00
H674   H     0.59453   0.96846   0.37905   0.00000  Uiso   1.00
H675   H     0.60389   0.79575   0.40464   0.00000  Uiso   1.00
H676   H     0.88156   0.79803   0.40254   0.00000  Uiso   1.00
H677   H     0.61844   0.86863   0.59746   0.00000  Uiso   1.00
H678   H     0.53112   0.77384   0.34985   0.00000  Uiso   1.00
H679   H     0.96888   0.89283   0.65015   0.00000  Uiso   1.00
H680   H     0.71315   0.79541   0.64997   0.00000  Uiso   1.00
H681   H     0.78685   0.87126   0.35003   0.00000  Uiso   1.00
H682   H     0.95723   0.77122   0.62869   0.00000  Uiso   1.00
N683   N     0.73744   0.81881   0.34617   0.00000  Uiso   1.00
N684   N     0.76255   0.84786   0.65383   0.00000  Uiso   1.00
N685   N     0.94287   0.76644   0.33450   0.00000  Uiso   1.00
N686   N     0.55713   0.90023   0.66550   0.00000  Uiso   1.00
N687   N     0.80656   0.97323   0.39182   0.00000  Uiso   1.00
N688   N     0.69343   0.69344   0.60818   0.00000  Uiso   1.00
O689   O     0.75325   0.76204   0.53992   0.00000  Uiso   1.00
O690   O     0.74674   0.90462   0.46008   0.00000  Uiso   1.00
O691   O     0.74480   0.75226   0.43612   0.00000  Uiso   1.00
O692   O     0.75520   0.91441   0.56388   0.00000  Uiso   1.00
O693   O     0.68935   0.83821   0.55191   0.00000  Uiso   1.00
O694   O     0.81064   0.82845   0.44809   0.00000  Uiso   1.00
O695   O     0.68090   0.82843   0.44810   0.00000  Uiso   1.00
O696   O     0.81910   0.83824   0.55190   0.00000  Uiso   1.00
C697   C     0.24987   0.06699   0.81836   0.00000  Uiso   1.00
C698   C     0.08897   0.14542   0.77999   0.00000  Uiso   1.00
C699   C     0.38397   0.16747   0.83210   0.00000  Uiso   1.00
C700   C     0.11603   0.16587   0.83456   0.00000  Uiso   1.00
C701   C     0.40307   0.14682   0.77770   0.00000  Uiso   1.00
C702   C     0.09693   0.18652   0.88897   0.00000  Uiso   1.00
C703   C     0.44949   0.14526   0.77756   0.00000  Uiso   1.00
C704   C     0.05051   0.18807   0.88911   0.00000  Uiso   1.00
C705   C     0.47669   0.16668   0.83286   0.00000  Uiso   1.00
C706   C     0.02331   0.16666   0.83380   0.00000  Uiso   1.00
C707   C     0.45724   0.18808   0.88736   0.00000  Uiso   1.00
C708   C     0.25013   0.26634   0.84830   0.00000  Uiso   1.00
C709   C     0.04276   0.14525   0.77931   0.00000  Uiso   1.00
C710   C     0.46935   0.12306   0.72354   0.00000  Uiso   1.00
C711   C     0.03065   0.21027   0.94313   0.00000  Uiso   1.00
C712   C     0.42788   0.04579   0.99719   0.00000  Uiso   1.00
C713   C     0.07212   0.28754   0.66948   0.00000  Uiso   1.00
C714   C     0.28439   0.32374   0.76364   0.00000  Uiso   1.00
C715   C     0.21561   0.00959   0.90303   0.00000  Uiso   1.00
C716   C     0.01591   0.12387   0.72482   0.00000  Uiso   1.00
C717   C     0.48409   0.20947   0.94185   0.00000  Uiso   1.00
C718   C     0.25680   0.01276   0.81206   0.00000  Uiso   1.00
C719   C     0.24320   0.32058   0.85461   0.00000  Uiso   1.00
C720   C     0.16437   0.16630   0.83389   0.00000  Uiso   1.00
C721   C     0.33563   0.16703   0.83278   0.00000  Uiso   1.00
C722   C     0.41103   0.18792   0.88668   0.00000  Uiso   1.00
Cu723  Cu    0.25500   0.17246   0.89479   0.00000  Uiso   1.00
Cu724  Cu    0.24499   0.16087   0.77187   0.00000  Uiso   1.00
H725   H     0.39610   0.20425   0.92869   0.00000  Uiso   1.00
H726   H     0.45695   0.02098   0.99612   0.00000  Uiso   1.00
H727   H     0.40547   0.03154   0.95428   0.00000  Uiso   1.00
H728   H     0.40895   0.04199   0.70369   0.00000  Uiso   1.00
H729   H     0.04277   0.22878   0.70464   0.00000  Uiso   1.00
H730   H     0.04305   0.31236   0.67054   0.00000  Uiso   1.00
H731   H     0.09105   0.29134   0.96298   0.00000  Uiso   1.00
H732   H     0.09453   0.30179   0.71239   0.00000  Uiso   1.00
H733   H     0.10389   0.12908   0.73798   0.00000  Uiso   1.00
H734   H     0.38156   0.13137   0.73587   0.00000  Uiso   1.00
H735   H     0.11844   0.20197   0.93079   0.00000  Uiso   1.00
H736   H     0.03112   0.10717   0.68318   0.00000  Uiso   1.00
H737   H     0.46888   0.22616   0.98348   0.00000  Uiso   1.00
H738   H     0.21315   0.12874   0.98330   0.00000  Uiso   1.00
H739   H     0.28685   0.20459   0.68336   0.00000  Uiso   1.00
H740   H     0.45723   0.10456   0.96202   0.00000  Uiso   1.00
N741   N     0.23744   0.15214   0.67951   0.00000  Uiso   1.00
N742   N     0.26255   0.18119   0.98716   0.00000  Uiso   1.00
N743   N     0.44287   0.09977   0.66784   0.00000  Uiso   1.00
N744   N     0.05713   0.23356   0.99883   0.00000  Uiso   1.00
N745   N     0.30656   0.30656   0.72515   0.00000  Uiso   1.00
N746   N     0.19343   0.02677   0.94152   0.00000  Uiso   1.00
O747   O     0.25325   0.09538   0.87326   0.00000  Uiso   1.00
O748   O     0.24674   0.23796   0.79341   0.00000  Uiso   1.00
O749   O     0.24480   0.08559   0.76945   0.00000  Uiso   1.00
O750   O     0.25520   0.24774   0.89721   0.00000  Uiso   1.00
O751   O     0.18935   0.17155   0.88524   0.00000  Uiso   1.00
O752   O     0.31064   0.16179   0.78143   0.00000  Uiso   1.00
O753   O     0.18090   0.16176   0.78143   0.00000  Uiso   1.00
O754   O     0.31910   0.17157   0.88523   0.00000  Uiso   1.00
C755   C     0.74987   0.06699   0.81836   0.00000  Uiso   1.00
C756   C     0.58897   0.14542   0.77999   0.00000  Uiso   1.00
C757   C     0.88397   0.16747   0.83210   0.00000  Uiso   1.00
C758   C     0.61603   0.16587   0.83456   0.00000  Uiso   1.00
C759   C     0.90307   0.14682   0.77770   0.00000  Uiso   1.00
C760   C     0.59693   0.18652   0.88897   0.00000  Uiso   1.00
C761   C     0.94949   0.14526   0.77756   0.00000  Uiso   1.00
C762   C     0.55051   0.18807   0.88911   0.00000  Uiso   1.00
C763   C     0.97669   0.16668   0.83286   0.00000  Uiso   1.00
C764   C     0.52331   0.16666   0.83380   0.00000  Uiso   1.00
C765   C     0.95724   0.18808   0.88736   0.00000  Uiso   1.00
C766   C     0.75013   0.26634   0.84830   0.00000  Uiso   1.00
C767   C     0.54276   0.14525   0.77931   0.00000  Uiso   1.00
C768   C     0.96935   0.12306   0.72354   0.00000  Uiso   1.00
C769   C     0.53065   0.21027   0.94313   0.00000  Uiso   1.00
C770   C     0.92788   0.04579   0.99719   0.00000  Uiso   1.00
C771   C     0.57212   0.28754   0.66948   0.00000  Uiso   1.00
C772   C     0.78439   0.32374   0.76364   0.00000  Uiso   1.00
C773   C     0.71561   0.00959   0.90303   0.00000  Uiso   1.00
C774   C     0.51591   0.12387   0.72482   0.00000  Uiso   1.00
C775   C     0.98409   0.20947   0.94185   0.00000  Uiso   1.00
C776   C     0.75680   0.01276   0.81206   0.00000  Uiso   1.00
C777   C     0.74320   0.32058   0.85461   0.00000  Uiso   1.00
C778   C     0.66437   0.16630   0.83389   0.00000  Uiso   1.00
C779   C     0.83563   0.16703   0.83278   0.00000  Uiso   1.00
C780   C     0.91103   0.18792   0.88668   0.00000  Uiso   1.00
Cu781  Cu    0.75500   0.17246   0.89479   0.00000  Uiso   1.00
Cu782  Cu    0.74499   0.16087   0.77187   0.00000  Uiso   1.00
H783   H     0.89610   0.20425   0.92869   0.00000  Uiso   1.00
H784   H     0.95695   0.02098   0.99612   0.00000  Uiso   1.00
H785   H     0.90547   0.03154   0.95428   0.00000  Uiso   1.00
H786   H     0.90895   0.04199   0.70369   0.00000  Uiso   1.00
H787   H     0.54277   0.22878   0.70464   0.00000  Uiso   1.00
H788   H     0.54305   0.31236   0.67054   0.00000  Uiso   1.00
H789   H     0.59105   0.29134   0.96298   0.00000  Uiso   1.00
H790   H     0.59453   0.30179   0.71239   0.00000  Uiso   1.00
H791   H     0.60389   0.12908   0.73798   0.00000  Uiso   1.00
H792   H     0.88156   0.13137   0.73587   0.00000  Uiso   1.00
H793   H     0.61844   0.20197   0.93079   0.00000  Uiso   1.00
H794   H     0.53112   0.10717   0.68318   0.00000  Uiso   1.00
H795   H     0.96888   0.22616   0.98348   0.00000  Uiso   1.00
H796   H     0.71315   0.12874   0.98330   0.00000  Uiso   1.00
H797   H     0.78685   0.20459   0.68336   0.00000  Uiso   1.00
H798   H     0.95723   0.10456   0.96202   0.00000  Uiso   1.00
N799   N     0.73744   0.15214   0.67951   0.00000  Uiso   1.00
N800   N     0.76255   0.18119   0.98716   0.00000  Uiso   1.00
N801   N     0.94287   0.09977   0.66784   0.00000  Uiso   1.00
N802   N     0.55713   0.23356   0.99883   0.00000  Uiso   1.00
N803   N     0.80656   0.30656   0.72515   0.00000  Uiso   1.00
N804   N     0.69343   0.02677   0.94152   0.00000  Uiso   1.00
O805   O     0.75325   0.09538   0.87326   0.00000  Uiso   1.00
O806   O     0.74674   0.23796   0.79341   0.00000  Uiso   1.00
O807   O     0.74480   0.08559   0.76945   0.00000  Uiso   1.00
O808   O     0.75520   0.24774   0.89721   0.00000  Uiso   1.00
O809   O     0.68935   0.17155   0.88524   0.00000  Uiso   1.00
O810   O     0.81064   0.16179   0.78143   0.00000  Uiso   1.00
O811   O     0.68090   0.16176   0.78143   0.00000  Uiso   1.00
O812   O     0.81910   0.17157   0.88523   0.00000  Uiso   1.00
C813   C     0.24987   0.40033   0.81836   0.00000  Uiso   1.00
C814   C     0.08897   0.47875   0.77999   0.00000  Uiso   1.00
C815   C     0.38397   0.50080   0.83210   0.00000  Uiso   1.00
C816   C     0.11603   0.49920   0.83456   0.00000  Uiso   1.00
C817   C     0.40307   0.48015   0.77770   0.00000  Uiso   1.00
C818   C     0.09693   0.51985   0.88897   0.00000  Uiso   1.00
C819   C     0.44949   0.47859   0.77756   0.00000  Uiso   1.00
C820   C     0.05051   0.52141   0.88911   0.00000  Uiso   1.00
C821   C     0.47669   0.50001   0.83286   0.00000  Uiso   1.00
C822   C     0.02331   0.49999   0.83380   0.00000  Uiso   1.00
C823   C     0.45724   0.52141   0.88736   0.00000  Uiso   1.00
C824   C     0.25013   0.59967   0.84830   0.00000  Uiso   1.00
C825   C     0.04276   0.47859   0.77931   0.00000  Uiso   1.00
C826   C     0.46935   0.45639   0.72354   0.00000  Uiso   1.00
C827   C     0.03065   0.54361   0.94313   0.00000  Uiso   1.00
C828   C     0.42788   0.37912   0.99719   0.00000  Uiso   1.00
C829   C     0.07212   0.62088   0.66948   0.00000  Uiso   1.00
C830   C     0.28439   0.65707   0.76364   0.00000  Uiso   1.00
C831   C     0.21561   0.34293   0.90303   0.00000  Uiso   1.00
C832   C     0.01591   0.45720   0.72482   0.00000  Uiso   1.00
C833   C     0.48409   0.54280   0.94185   0.00000  Uiso   1.00
C834   C     0.25680   0.34609   0.81206   0.00000  Uiso   1.00
C835   C     0.24320   0.65391   0.85461   0.00000  Uiso   1.00
C836   C     0.16437   0.49963   0.83389   0.00000  Uiso   1.00
C837   C     0.33563   0.50037   0.83278   0.00000  Uiso   1.00
C838   C     0.41103   0.52125   0.88668   0.00000  Uiso   1.00
Cu839  Cu    0.25500   0.50579   0.89479   0.00000  Uiso   1.00
Cu840  Cu    0.24499   0.49421   0.77187   0.00000  Uiso   1.00
H841   H     0.39610   0.53759   0.92869   0.00000  Uiso   1.00
H842   H     0.45695   0.35431   0.99612   0.00000  Uiso   1.00
H843   H     0.40547   0.36488   0.95428   0.00000  Uiso   1.00
H844   H     0.40895   0.37532   0.70369   0.00000  Uiso   1.00
H845   H     0.04277   0.56211   0.70464   0.00000  Uiso   1.00
H846   H     0.04305   0.64569   0.67054   0.00000  Uiso   1.00
H847   H     0.09105   0.62468   0.96298   0.00000  Uiso   1.00
H848   H     0.09453   0.63512   0.71239   0.00000  Uiso   1.00
H849   H     0.10389   0.46241   0.73798   0.00000  Uiso   1.00
H850   H     0.38156   0.46470   0.73587   0.00000  Uiso   1.00
H851   H     0.11844   0.53530   0.93079   0.00000  Uiso   1.00
H852   H     0.03112   0.44050   0.68318   0.00000  Uiso   1.00
H853   H     0.46888   0.55950   0.98348   0.00000  Uiso   1.00
H854   H     0.21315   0.46207   0.98330   0.00000  Uiso   1.00
H855   H     0.28685   0.53793   0.68336   0.00000  Uiso   1.00
H856   H     0.45723   0.43789   0.96202   0.00000  Uiso   1.00
N857   N     0.23744   0.48547   0.67951   0.00000  Uiso   1.00
N858   N     0.26255   0.51453   0.98716   0.00000  Uiso   1.00
N859   N     0.44287   0.43311   0.66784   0.00000  Uiso   1.00
N860   N     0.05713   0.56689   0.99883   0.00000  Uiso   1.00
N861   N     0.30656   0.63989   0.72515   0.00000  Uiso   1.00
N862   N     0.19343   0.36011   0.94152   0.00000  Uiso   1.00
O863   O     0.25325   0.42871   0.87326   0.00000  Uiso   1.00
O864   O     0.24674   0.57129   0.79341   0.00000  Uiso   1.00
O865   O     0.24480   0.41892   0.76945   0.00000  Uiso   1.00
O866   O     0.25520   0.58108   0.89721   0.00000  Uiso   1.00
O867   O     0.18935   0.50488   0.88524   0.00000  Uiso   1.00
O868   O     0.31064   0.49512   0.78143   0.00000  Uiso   1.00
O869   O     0.18090   0.49510   0.78143   0.00000  Uiso   1.00
O870   O     0.31910   0.50490   0.88523   0.00000  Uiso   1.00
C871   C     0.74987   0.40033   0.81836   0.00000  Uiso   1.00
C872   C     0.58897   0.47875   0.77999   0.00000  Uiso   1.00
C873   C     0.88397   0.50080   0.83210   0.00000  Uiso   1.00
C874   C     0.61603   0.49920   0.83456   0.00000  Uiso   1.00
C875   C     0.90307   0.48015   0.77770   0.00000  Uiso   1.00
C876   C     0.59693   0.51985   0.88897   0.00000  Uiso   1.00
C877   C     0.94949   0.47859   0.77756   0.00000  Uiso   1.00
C878   C     0.55051   0.52141   0.88911   0.00000  Uiso   1.00
C879   C     0.97669   0.50001   0.83286   0.00000  Uiso   1.00
C880   C     0.52331   0.49999   0.83380   0.00000  Uiso   1.00
C881   C     0.95724   0.52141   0.88736   0.00000  Uiso   1.00
C882   C     0.75013   0.59967   0.84830   0.00000  Uiso   1.00
C883   C     0.54276   0.47859   0.77931   0.00000  Uiso   1.00
C884   C     0.96935   0.45639   0.72354   0.00000  Uiso   1.00
C885   C     0.53065   0.54361   0.94313   0.00000  Uiso   1.00
C886   C     0.92788   0.37912   0.99719   0.00000  Uiso   1.00
C887   C     0.57212   0.62088   0.66948   0.00000  Uiso   1.00
C888   C     0.78439   0.65707   0.76364   0.00000  Uiso   1.00
C889   C     0.71561   0.34293   0.90303   0.00000  Uiso   1.00
C890   C     0.51591   0.45720   0.72482   0.00000  Uiso   1.00
C891   C     0.98409   0.54280   0.94185   0.00000  Uiso   1.00
C892   C     0.75680   0.34609   0.81206   0.00000  Uiso   1.00
C893   C     0.74320   0.65391   0.85461   0.00000  Uiso   1.00
C894   C     0.66437   0.49963   0.83389   0.00000  Uiso   1.00
C895   C     0.83563   0.50037   0.83278   0.00000  Uiso   1.00
C896   C     0.91103   0.52125   0.88668   0.00000  Uiso   1.00
Cu897  Cu    0.75500   0.50579   0.89479   0.00000  Uiso   1.00
Cu898  Cu    0.74499   0.49421   0.77187   0.00000  Uiso   1.00
H899   H     0.89610   0.53759   0.92869   0.00000  Uiso   1.00
H900   H     0.95695   0.35431   0.99612   0.00000  Uiso   1.00
H901   H     0.90547   0.36488   0.95428   0.00000  Uiso   1.00
H902   H     0.90895   0.37532   0.70369   0.00000  Uiso   1.00
H903   H     0.54277   0.56211   0.70464   0.00000  Uiso   1.00
H904   H     0.54305   0.64569   0.67054   0.00000  Uiso   1.00
H905   H     0.59105   0.62468   0.96298   0.00000  Uiso   1.00
H906   H     0.59453   0.63512   0.71239   0.00000  Uiso   1.00
H907   H     0.60389   0.46241   0.73798   0.00000  Uiso   1.00
H908   H     0.88156   0.46470   0.73587   0.00000  Uiso   1.00
H909   H     0.61844   0.53530   0.93079   0.00000  Uiso   1.00
H910   H     0.53112   0.44050   0.68318   0.00000  Uiso   1.00
H911   H     0.96888   0.55950   0.98348   0.00000  Uiso   1.00
H912   H     0.71315   0.46207   0.98330   0.00000  Uiso   1.00
H913   H     0.78685   0.53793   0.68336   0.00000  Uiso   1.00
H914   H     0.95723   0.43789   0.96202   0.00000  Uiso   1.00
N915   N     0.73744   0.48547   0.67951   0.00000  Uiso   1.00
N916   N     0.76255   0.51453   0.98716   0.00000  Uiso   1.00
N917   N     0.94287   0.43311   0.66784   0.00000  Uiso   1.00
N918   N     0.55713   0.56689   0.99883   0.00000  Uiso   1.00
N919   N     0.80656   0.63989   0.72515   0.00000  Uiso   1.00
N920   N     0.69343   0.36011   0.94152   0.00000  Uiso   1.00
O921   O     0.75325   0.42871   0.87326   0.00000  Uiso   1.00
O922   O     0.74674   0.57129   0.79341   0.00000  Uiso   1.00
O923   O     0.74480   0.41892   0.76945   0.00000  Uiso   1.00
O924   O     0.75520   0.58108   0.89721   0.00000  Uiso   1.00
O925   O     0.68935   0.50488   0.88524   0.00000  Uiso   1.00
O926   O     0.81064   0.49512   0.78143   0.00000  Uiso   1.00
O927   O     0.68090   0.49510   0.78143   0.00000  Uiso   1.00
O928   O     0.81910   0.50490   0.88523   0.00000  Uiso   1.00
C929   C     0.24987   0.73366   0.81836   0.00000  Uiso   1.00
C930   C     0.08897   0.81208   0.77999   0.00000  Uiso   1.00
C931   C     0.38397   0.83413   0.83210   0.00000  Uiso   1.00
C932   C     0.11603   0.83253   0.83456   0.00000  Uiso   1.00
C933   C     0.40307   0.81348   0.77770   0.00000  Uiso   1.00
C934   C     0.09693   0.85318   0.88897   0.00000  Uiso   1.00
C935   C     0.44949   0.81193   0.77756   0.00000  Uiso   1.00
C936   C     0.05051   0.85474   0.88911   0.00000  Uiso   1.00
C937   C     0.47669   0.83334   0.83286   0.00000  Uiso   1.00
C938   C     0.02331   0.83332   0.83380   0.00000  Uiso   1.00
C939   C     0.45724   0.85475   0.88736   0.00000  Uiso   1.00
C940   C     0.25013   0.93301   0.84830   0.00000  Uiso   1.00
C941   C     0.04276   0.81192   0.77931   0.00000  Uiso   1.00
C942   C     0.46935   0.78973   0.72354   0.00000  Uiso   1.00
C943   C     0.03065   0.87694   0.94313   0.00000  Uiso   1.00
C944   C     0.42788   0.71246   0.99719   0.00000  Uiso   1.00
C945   C     0.07212   0.95421   0.66948   0.00000  Uiso   1.00
C946   C     0.28439   0.99041   0.76364   0.00000  Uiso   1.00
C947   C     0.21561   0.67626   0.90303   0.00000  Uiso   1.00
C948   C     0.01591   0.79053   0.72482   0.00000  Uiso   1.00
C949   C     0.48409   0.87613   0.94185   0.00000  Uiso   1.00
C950   C     0.25680   0.67942   0.81206   0.00000  Uiso   1.00
C951   C     0.24320   0.98724   0.85461   0.00000  Uiso   1.00
C952   C     0.16437   0.83297   0.83389   0.00000  Uiso   1.00
C953   C     0.33563   0.83370   0.83278   0.00000  Uiso   1.00
C954   C     0.41103   0.85458   0.88668   0.00000  Uiso   1.00
Cu955  Cu    0.25500   0.83913   0.89479   0.00000  Uiso   1.00
Cu956  Cu    0.24499   0.82754   0.77187   0.00000  Uiso   1.00
H957   H     0.39610   0.87092   0.92869   0.00000  Uiso   1.00
H958   H     0.45695   0.68764   0.99612   0.00000  Uiso   1.00
H959   H     0.40547   0.69821   0.95428   0.00000  Uiso   1.00
H960   H     0.40895   0.70866   0.70369   0.00000  Uiso   1.00
H961   H     0.04277   0.89544   0.70464   0.00000  Uiso   1.00
H962   H     0.04305   0.97902   0.67054   0.00000  Uiso   1.00
H963   H     0.09105   0.95801   0.96298   0.00000  Uiso   1.00
H964   H     0.09453   0.96846   0.71239   0.00000  Uiso   1.00
H965   H     0.10389   0.79575   0.73798   0.00000  Uiso   1.00
H966   H     0.38156   0.79803   0.73587   0.00000  Uiso   1.00
H967   H     0.11844   0.86863   0.93079   0.00000  Uiso   1.00
H968   H     0.03112   0.77384   0.68318   0.00000  Uiso   1.00
H969   H     0.46888   0.89283   0.98348   0.00000  Uiso   1.00
H970   H     0.21315   0.79541   0.98330   0.00000  Uiso   1.00
H971   H     0.28685   0.87126   0.68336   0.00000  Uiso   1.00
H972   H     0.45723   0.77122   0.96202   0.00000  Uiso   1.00
N973   N     0.23744   0.81881   0.67951   0.00000  Uiso   1.00
N974   N     0.26255   0.84786   0.98716   0.00000  Uiso   1.00
N975   N     0.44287   0.76644   0.66784   0.00000  Uiso   1.00
N976   N     0.05713   0.90023   0.99883   0.00000  Uiso   1.00
N977   N     0.30656   0.97323   0.72515   0.00000  Uiso   1.00
N978   N     0.19343   0.69344   0.94152   0.00000  Uiso   1.00
O979   O     0.25325   0.76204   0.87326   0.00000  Uiso   1.00
O980   O     0.24674   0.90462   0.79341   0.00000  Uiso   1.00
O981   O     0.24480   0.75226   0.76945   0.00000  Uiso   1.00
O982   O     0.25520   0.91441   0.89721   0.00000  Uiso   1.00
O983   O     0.18935   0.83821   0.88524   0.00000  Uiso   1.00
O984   O     0.31064   0.82845   0.78143   0.00000  Uiso   1.00
O985   O     0.18090   0.82843   0.78143   0.00000  Uiso   1.00
O986   O     0.31910   0.83824   0.88523   0.00000  Uiso   1.00
C987   C     0.74987   0.73366   0.81836   0.00000  Uiso   1.00
C988   C     0.58897   0.81208   0.77999   0.00000  Uiso   1.00
C989   C     0.88397   0.83413   0.83210   0.00000  Uiso   1.00
C990   C     0.61603   0.83253   0.83456   0.00000  Uiso   1.00
C991   C     0.90307   0.81348   0.77770   0.00000  Uiso   1.00
C992   C     0.59693   0.85318   0.88897   0.00000  Uiso   1.00
C993   C     0.94949   0.81193   0.77756   0.00000  Uiso   1.00
C994   C     0.55051   0.85474   0.88911   0.00000  Uiso   1.00
C995   C     0.97669   0.83334   0.83286   0.00000  Uiso   1.00
C996   C     0.52331   0.83332   0.83380   0.00000  Uiso   1.00
C997   C     0.95724   0.85475   0.88736   0.00000  Uiso   1.00
C998   C     0.75013   0.93301   0.84830   0.00000  Uiso   1.00
C999   C     0.54276   0.81192   0.77931   0.00000  Uiso   1.00
C1000  C     0.96935   0.78973   0.72354   0.00000  Uiso   1.00
C1001  C     0.53065   0.87694   0.94313   0.00000  Uiso   1.00
C1002  C     0.92788   0.71246   0.99719   0.00000  Uiso   1.00
C1003  C     0.57212   0.95421   0.66948   0.00000  Uiso   1.00
C1004  C     0.78439   0.99041   0.76364   0.00000  Uiso   1.00
C1005  C     0.71561   0.67626   0.90303   0.00000  Uiso   1.00
C1006  C     0.51591   0.79053   0.72482   0.00000  Uiso   1.00
C1007  C     0.98409   0.87613   0.94185   0.00000  Uiso   1.00
C1008  C     0.75680   0.67942   0.81206   0.00000  Uiso   1.00
C1009  C     0.74320   0.98724   0.85461   0.00000  Uiso   1.00
C1010  C     0.66437   0.83297   0.83389   0.00000  Uiso   1.00
C1011  C     0.83563   0.83370   0.83278   0.00000  Uiso   1.00
C1012  C     0.91103   0.85458   0.88668   0.00000  Uiso   1.00
Cu1013 Cu    0.75500   0.83913   0.89479   0.00000  Uiso   1.00
Cu1014 Cu    0.74499   0.82754   0.77187   0.00000  Uiso   1.00
H1015  H     0.89610   0.87092   0.92869   0.00000  Uiso   1.00
H1016  H     0.95695   0.68764   0.99612   0.00000  Uiso   1.00
H1017  H     0.90547   0.69821   0.95428   0.00000  Uiso   1.00
H1018  H     0.90895   0.70866   0.70369   0.00000  Uiso   1.00
H1019  H     0.54277   0.89544   0.70464   0.00000  Uiso   1.00
H1020  H     0.54305   0.97902   0.67054   0.00000  Uiso   1.00
H1021  H     0.59105   0.95801   0.96298   0.00000  Uiso   1.00
H1022  H     0.59453   0.96846   0.71239   0.00000  Uiso   1.00
H1023  H     0.60389   0.79575   0.73798   0.00000  Uiso   1.00
H1024  H     0.88156   0.79803   0.73587   0.00000  Uiso   1.00
H1025  H     0.61844   0.86863   0.93079   0.00000  Uiso   1.00
H1026  H     0.53112   0.77384   0.68318   0.00000  Uiso   1.00
H1027  H     0.96888   0.89283   0.98348   0.00000  Uiso   1.00
H1028  H     0.71315   0.79541   0.98330   0.00000  Uiso   1.00
H1029  H     0.78685   0.87126   0.68336   0.00000  Uiso   1.00
H1030  H     0.95723   0.77122   0.96202   0.00000  Uiso   1.00
N1031  N     0.73744   0.81881   0.67951   0.00000  Uiso   1.00
N1032  N     0.76255   0.84786   0.98716   0.00000  Uiso   1.00
N1033  N     0.94287   0.76644   0.66784   0.00000  Uiso   1.00
N1034  N     0.55713   0.90023   0.99883   0.00000  Uiso   1.00
N1035  N     0.80656   0.97323   0.72515   0.00000  Uiso   1.00
N1036  N     0.69343   0.69344   0.94152   0.00000  Uiso   1.00
O1037  O     0.75325   0.76204   0.87326   0.00000  Uiso   1.00
O1038  O     0.74674   0.90462   0.79341   0.00000  Uiso   1.00
O1039  O     0.74480   0.75226   0.76945   0.00000  Uiso   1.00
O1040  O     0.75520   0.91441   0.89721   0.00000  Uiso   1.00
O1041  O     0.68935   0.83821   0.88524   0.00000  Uiso   1.00
O1042  O     0.81064   0.82845   0.78143   0.00000  Uiso   1.00
O1043  O     0.68090   0.82843   0.78143   0.00000  Uiso   1.00
O1044  O     0.81910   0.83824   0.88523   0.00000  Uiso   1.00
loop_
_geom_bond_atom_site_label_1
_geom_bond_atom_site_label_2
_geom_bond_distance
_geom_bond_site_symmetry_2
_ccdc_geom_bond_type
C1     C22     1.425   .     S
C1     O53     1.285   .     A
C1     O51     1.285   .     A
C2     C4      1.399   .     A
C2     H37     1.085   .     S
C2     C13     1.389   .     A
C3     C25     1.455   .     S
C3     C26     1.399   .     A
C3     C5      1.399   .     A
C4     C6      1.399   .     A
C4     C24     1.455   .     S
C5     H38     1.083   .     S
C5     C7      1.399   .     A
C6     H39     1.083   .     S
C6     C8      1.399   .     A
C7     C9      1.418   .     A
C7     C14     1.413   .     A
C8     C15     1.413   .     A
C8     C10     1.418   .     A
C9     C11     1.410   .     A
C9     C68     1.401   .     S
C10    C13     1.410   .     A
C10    C67     1.401   1_455 S
C11    C26     1.389   .     A
C11    C21     1.399   .     A
C12    C23     1.425   .     S
C12    O52     1.285   .     A
C12    O54     1.285   .     A
C13    C20     1.399   .     A
C14    N47     1.424   .     S
C14    C78     1.398   .     S
C15    N48     1.424   .     S
C15    C79     1.398   1_455 S
C16    H30     1.112   .     S
C16    H31     1.110   .     S
C16    H380    1.111   .     S
C16    N395    1.447   .     S
C17    H36     1.110   .     S
C17    H34     1.112   .     S
C17    H731    1.111   1_554 S
C17    N744    1.447   1_554 S
C18    N49     1.157   .     T
C18    C138    1.455   .     S
C19    N50     1.157   .     T
C19    C255    1.455   1_545 S
C20    H40     1.085   .     S
C20    C72     1.398   1_455 S
C21    H41     1.085   .     S
C21    C73     1.398   .     S
C22    C250    1.455   1_545 S
C22    C255    1.348   1_545 S
C23    C138    1.348   .     S
C23    C135    1.455   .     S
C24    O55     1.297   .     A
C24    O57     1.291   .     A
C25    O56     1.297   .     A
C25    O58     1.291   .     A
C26    H29     1.085   .     S
Cu27   O54     1.961   .     S
Cu27   O58     1.957   .     S
Cu27   N46     2.016   .     S
Cu27   O51     1.972   .     S
Cu27   O55     1.968   .     S
Cu27   Cu28    2.683   .     S
Cu28   O53     1.961   .     S
Cu28   O56     1.968   .     S
Cu28   O57     1.957   .     S
Cu28   O52     1.972   .     S
Cu28   N45     2.016   .     S
H32    C712    1.111   1_554 S
H33    N744    1.032   1_554 S
H35    C365    1.111   .     S
H42    N393    1.028   .     S
H43    N742    1.028   1_554 S
H44    N395    1.032   .     S
N45    H738    1.028   1_554 S
N45    N742    1.295   1_554 S
N46    N393    1.295   .     S
N46    H391    1.028   .     S
N47    C712    1.447   1_554 S
N47    H740    1.032   1_554 S
N48    C365    1.447   .     S
N48    H381    1.032   .     S
C59    C80     1.425   .     S
C59    O111    1.285   .     A
C59    O109    1.285   .     A
C60    C62     1.399   .     A
C60    H95     1.085   .     S
C60    C71     1.389   .     A
C61    C83     1.455   .     S
C61    C84     1.399   .     A
C61    C63     1.399   .     A
C62    C64     1.399   .     A
C62    C82     1.455   .     S
C63    H96     1.083   .     S
C63    C65     1.399   .     A
C64    H97     1.083   .     S
C64    C66     1.399   .     A
C65    C67     1.418   .     A
C65    C72     1.413   .     A
C66    C73     1.413   .     A
C66    C68     1.418   .     A
C67    C69     1.410   .     A
C67    C10     1.401   1_655 S
C68    C71     1.410   .     A
C69    C84     1.389   .     A
C69    C79     1.399   .     A
C70    C81     1.425   .     S
C70    O110    1.285   .     A
C70    O112    1.285   .     A
C71    C78     1.399   .     A
C72    N105    1.424   .     S
C72    C20     1.398   1_655 S
C73    N106    1.424   .     S
C74    H88     1.112   .     S
C74    H89     1.110   .     S
C74    H438    1.111   .     S
C74    N453    1.447   .     S
C75    H94     1.110   .     S
C75    H92     1.112   .     S
C75    H789    1.111   1_554 S
C75    N802    1.447   1_554 S
C76    N107    1.157   .     T
C76    C196    1.455   .     S
C77    N108    1.157   .     T
C77    C313    1.455   1_545 S
C78    H98     1.085   .     S
C79    H99     1.085   .     S
C79    C15     1.398   1_655 S
C80    C308    1.455   1_545 S
C80    C313    1.348   1_545 S
C81    C196    1.348   .     S
C81    C193    1.455   .     S
C82    O113    1.297   .     A
C82    O115    1.291   .     A
C83    O114    1.297   .     A
C83    O116    1.291   .     A
C84    H87     1.085   .     S
Cu85   O112    1.961   .     S
Cu85   O116    1.957   .     S
Cu85   N104    2.016   .     S
Cu85   O109    1.972   .     S
Cu85   O113    1.968   .     S
Cu85   Cu86    2.683   .     S
Cu86   O111    1.961   .     S
Cu86   O114    1.968   .     S
Cu86   O115    1.957   .     S
Cu86   O110    1.972   .     S
Cu86   N103    2.016   .     S
H90    C770    1.111   1_554 S
H91    N802    1.032   1_554 S
H93    C423    1.111   .     S
H100   N451    1.028   .     S
H101   N800    1.028   1_554 S
H102   N453    1.032   .     S
N103   H796    1.028   1_554 S
N103   N800    1.295   1_554 S
N104   N451    1.295   .     S
N104   H449    1.028   .     S
N105   C770    1.447   1_554 S
N105   H798    1.032   1_554 S
N106   C423    1.447   .     S
N106   H439    1.032   .     S
C117   C138    1.425   .     S
C117   O169    1.285   .     A
C117   O167    1.285   .     A
C118   C120    1.399   .     A
C118   H153    1.085   .     S
C118   C129    1.389   .     A
C119   C141    1.455   .     S
C119   C142    1.399   .     A
C119   C121    1.399   .     A
C120   C122    1.399   .     A
C120   C140    1.455   .     S
C121   H154    1.083   .     S
C121   C123    1.399   .     A
C122   H155    1.083   .     S
C122   C124    1.399   .     A
C123   C125    1.418   .     A
C123   C130    1.413   .     A
C124   C131    1.413   .     A
C124   C126    1.418   .     A
C125   C127    1.410   .     A
C125   C184    1.401   .     S
C126   C129    1.410   .     A
C126   C183    1.401   1_455 S
C127   C142    1.389   .     A
C127   C137    1.399   .     A
C128   C139    1.425   .     S
C128   O168    1.285   .     A
C128   O170    1.285   .     A
C129   C136    1.399   .     A
C130   N163    1.424   .     S
C130   C194    1.398   .     S
C131   N164    1.424   .     S
C131   C195    1.398   1_455 S
C132   H146    1.112   .     S
C132   H147    1.110   .     S
C132   H496    1.111   .     S
C132   N511    1.447   .     S
C133   H152    1.110   .     S
C133   H150    1.112   .     S
C133   H847    1.111   1_554 S
C133   N860    1.447   1_554 S
C134   N165    1.157   .     T
C134   C254    1.455   .     S
C135   N166    1.157   .     T
C136   H156    1.085   .     S
C136   C188    1.398   1_455 S
C137   H157    1.085   .     S
C137   C189    1.398   .     S
C139   C254    1.348   .     S
C139   C251    1.455   .     S
C140   O171    1.297   .     A
C140   O173    1.291   .     A
C141   O172    1.297   .     A
C141   O174    1.291   .     A
C142   H145    1.085   .     S
Cu143  O170    1.961   .     S
Cu143  O174    1.957   .     S
Cu143  N162    2.016   .     S
Cu143  O167    1.972   .     S
Cu143  O171    1.968   .     S
Cu143  Cu144   2.683   .     S
Cu144  O169    1.961   .     S
Cu144  O172    1.968   .     S
Cu144  O173    1.957   .     S
Cu144  O168    1.972   .     S
Cu144  N161    2.016   .     S
H148   C828    1.111   1_554 S
H149   N860    1.032   1_554 S
H151   C481    1.111   .     S
H158   N509    1.028   .     S
H159   N858    1.028   1_554 S
H160   N511    1.032   .     S
N161   H854    1.028   1_554 S
N161   N858    1.295   1_554 S
N162   N509    1.295   .     S
N162   H507    1.028   .     S
N163   C828    1.447   1_554 S
N163   H856    1.032   1_554 S
N164   C481    1.447   .     S
N164   H497    1.032   .     S
C175   C196    1.425   .     S
C175   O227    1.285   .     A
C175   O225    1.285   .     A
C176   C178    1.399   .     A
C176   H211    1.085   .     S
C176   C187    1.389   .     A
C177   C199    1.455   .     S
C177   C200    1.399   .     A
C177   C179    1.399   .     A
C178   C180    1.399   .     A
C178   C198    1.455   .     S
C179   H212    1.083   .     S
C179   C181    1.399   .     A
C180   H213    1.083   .     S
C180   C182    1.399   .     A
C181   C183    1.418   .     A
C181   C188    1.413   .     A
C182   C189    1.413   .     A
C182   C184    1.418   .     A
C183   C185    1.410   .     A
C183   C126    1.401   1_655 S
C184   C187    1.410   .     A
C185   C200    1.389   .     A
C185   C195    1.399   .     A
C186   C197    1.425   .     S
C186   O226    1.285   .     A
C186   O228    1.285   .     A
C187   C194    1.399   .     A
C188   N221    1.424   .     S
C188   C136    1.398   1_655 S
C189   N222    1.424   .     S
C190   H204    1.112   .     S
C190   H205    1.110   .     S
C190   H554    1.111   .     S
C190   N569    1.447   .     S
C191   H210    1.110   .     S
C191   H208    1.112   .     S
C191   H905    1.111   1_554 S
C191   N918    1.447   1_554 S
C192   N223    1.157   .     T
C192   C312    1.455   .     S
C193   N224    1.157   .     T
C194   H214    1.085   .     S
C195   H215    1.085   .     S
C195   C131    1.398   1_655 S
C197   C312    1.348   .     S
C197   C309    1.455   .     S
C198   O229    1.297   .     A
C198   O231    1.291   .     A
C199   O230    1.297   .     A
C199   O232    1.291   .     A
C200   H203    1.085   .     S
Cu201  O228    1.961   .     S
Cu201  O232    1.957   .     S
Cu201  N220    2.016   .     S
Cu201  O225    1.972   .     S
Cu201  O229    1.968   .     S
Cu201  Cu202   2.683   .     S
Cu202  O227    1.961   .     S
Cu202  O230    1.968   .     S
Cu202  O231    1.957   .     S
Cu202  O226    1.972   .     S
Cu202  N219    2.016   .     S
H206   C886    1.111   1_554 S
H207   N918    1.032   1_554 S
H209   C539    1.111   .     S
H216   N567    1.028   .     S
H217   N916    1.028   1_554 S
H218   N569    1.032   .     S
N219   H912    1.028   1_554 S
N219   N916    1.295   1_554 S
N220   N567    1.295   .     S
N220   H565    1.028   .     S
N221   C886    1.447   1_554 S
N221   H914    1.032   1_554 S
N222   C539    1.447   .     S
N222   H555    1.032   .     S
C233   C254    1.425   .     S
C233   O285    1.285   .     A
C233   O283    1.285   .     A
C234   C236    1.399   .     A
C234   H269    1.085   .     S
C234   C245    1.389   .     A
C235   C257    1.455   .     S
C235   C258    1.399   .     A
C235   C237    1.399   .     A
C236   C238    1.399   .     A
C236   C256    1.455   .     S
C237   H270    1.083   .     S
C237   C239    1.399   .     A
C238   H271    1.083   .     S
C238   C240    1.399   .     A
C239   C241    1.418   .     A
C239   C246    1.413   .     A
C240   C247    1.413   .     A
C240   C242    1.418   .     A
C241   C243    1.410   .     A
C241   C300    1.401   .     S
C242   C245    1.410   .     A
C242   C299    1.401   1_455 S
C243   C258    1.389   .     A
C243   C253    1.399   .     A
C244   C255    1.425   .     S
C244   O284    1.285   .     A
C244   O286    1.285   .     A
C245   C252    1.399   .     A
C246   N279    1.424   .     S
C246   C310    1.398   .     S
C247   N280    1.424   .     S
C247   C311    1.398   1_455 S
C248   H262    1.112   .     S
C248   H263    1.110   .     S
C248   H612    1.111   .     S
C248   N627    1.447   .     S
C249   H268    1.110   .     S
C249   H266    1.112   .     S
C249   H963    1.111   1_554 S
C249   N976    1.447   1_554 S
C250   N281    1.157   .     T
C250   C22     1.455   1_565 S
C251   N282    1.157   .     T
C252   H272    1.085   .     S
C252   C304    1.398   1_455 S
C253   H273    1.085   .     S
C253   C305    1.398   .     S
C255   C22     1.348   1_565 S
C255   C19     1.455   1_565 S
C256   O287    1.297   .     A
C256   O289    1.291   .     A
C257   O288    1.297   .     A
C257   O290    1.291   .     A
C258   H261    1.085   .     S
Cu259  O286    1.961   .     S
Cu259  O290    1.957   .     S
Cu259  N278    2.016   .     S
Cu259  O283    1.972   .     S
Cu259  O287    1.968   .     S
Cu259  Cu260   2.683   .     S
Cu260  O285    1.961   .     S
Cu260  O288    1.968   .     S
Cu260  O289    1.957   .     S
Cu260  O284    1.972   .     S
Cu260  N277    2.016   .     S
H264   C944    1.111   1_554 S
H265   N976    1.032   1_554 S
H267   C597    1.111   .     S
H274   N625    1.028   .     S
H275   N974    1.028   1_554 S
H276   N627    1.032   .     S
N277   H970    1.028   1_554 S
N277   N974    1.295   1_554 S
N278   N625    1.295   .     S
N278   H623    1.028   .     S
N279   C944    1.447   1_554 S
N279   H972    1.032   1_554 S
N280   C597    1.447   .     S
N280   H613    1.032   .     S
C291   C312    1.425   .     S
C291   O343    1.285   .     A
C291   O341    1.285   .     A
C292   C294    1.399   .     A
C292   H327    1.085   .     S
C292   C303    1.389   .     A
C293   C315    1.455   .     S
C293   C316    1.399   .     A
C293   C295    1.399   .     A
C294   C296    1.399   .     A
C294   C314    1.455   .     S
C295   H328    1.083   .     S
C295   C297    1.399   .     A
C296   H329    1.083   .     S
C296   C298    1.399   .     A
C297   C299    1.418   .     A
C297   C304    1.413   .     A
C298   C305    1.413   .     A
C298   C300    1.418   .     A
C299   C301    1.410   .     A
C299   C242    1.401   1_655 S
C300   C303    1.410   .     A
C301   C316    1.389   .     A
C301   C311    1.399   .     A
C302   C313    1.425   .     S
C302   O342    1.285   .     A
C302   O344    1.285   .     A
C303   C310    1.399   .     A
C304   N337    1.424   .     S
C304   C252    1.398   1_655 S
C305   N338    1.424   .     S
C306   H320    1.112   .     S
C306   H321    1.110   .     S
C306   H670    1.111   .     S
C306   N685    1.447   .     S
C307   H326    1.110   .     S
C307   H324    1.112   .     S
C307   H1021   1.111   1_554 S
C307   N1034   1.447   1_554 S
C308   N339    1.157   .     T
C308   C80     1.455   1_565 S
C309   N340    1.157   .     T
C310   H330    1.085   .     S
C311   H331    1.085   .     S
C311   C247    1.398   1_655 S
C313   C80     1.348   1_565 S
C313   C77     1.455   1_565 S
C314   O345    1.297   .     A
C314   O347    1.291   .     A
C315   O346    1.297   .     A
C315   O348    1.291   .     A
C316   H319    1.085   .     S
Cu317  O344    1.961   .     S
Cu317  O348    1.957   .     S
Cu317  N336    2.016   .     S
Cu317  O341    1.972   .     S
Cu317  O345    1.968   .     S
Cu317  Cu318   2.683   .     S
Cu318  O343    1.961   .     S
Cu318  O346    1.968   .     S
Cu318  O347    1.957   .     S
Cu318  O342    1.972   .     S
Cu318  N335    2.016   .     S
H322   C1002   1.111   1_554 S
H323   N1034   1.032   1_554 S
H325   C655    1.111   .     S
H332   N683    1.028   .     S
H333   N1032   1.028   1_554 S
H334   N685    1.032   .     S
N335   H1028   1.028   1_554 S
N335   N1032   1.295   1_554 S
N336   N683    1.295   .     S
N336   H681    1.028   .     S
N337   C1002   1.447   1_554 S
N337   H1030   1.032   1_554 S
N338   C655    1.447   .     S
N338   H671    1.032   .     S
C349   C370    1.425   .     S
C349   O401    1.285   .     A
C349   O399    1.285   .     A
C350   C352    1.399   .     A
C350   H385    1.085   .     S
C350   C361    1.389   .     A
C351   C373    1.455   .     S
C351   C374    1.399   .     A
C351   C353    1.399   .     A
C352   C354    1.399   .     A
C352   C372    1.455   .     S
C353   H386    1.083   .     S
C353   C355    1.399   .     A
C354   H387    1.083   .     S
C354   C356    1.399   .     A
C355   C357    1.418   .     A
C355   C362    1.413   .     A
C356   C363    1.413   .     A
C356   C358    1.418   .     A
C357   C359    1.410   .     A
C357   C416    1.401   .     S
C358   C361    1.410   .     A
C358   C415    1.401   1_455 S
C359   C374    1.389   .     A
C359   C369    1.399   .     A
C360   C371    1.425   .     S
C360   O400    1.285   .     A
C360   O402    1.285   .     A
C361   C368    1.399   .     A
C362   N395    1.424   .     S
C362   C426    1.398   .     S
C363   N396    1.424   .     S
C363   C427    1.398   1_455 S
C364   H378    1.112   .     S
C364   H379    1.110   .     S
C364   H728    1.111   .     S
C364   N743    1.447   .     S
C365   H384    1.110   .     S
C365   H382    1.112   .     S
C366   N397    1.157   .     T
C366   C486    1.455   .     S
C367   N398    1.157   .     T
C367   C603    1.455   1_545 S
C368   H388    1.085   .     S
C368   C420    1.398   1_455 S
C369   H389    1.085   .     S
C369   C421    1.398   .     S
C370   C598    1.455   1_545 S
C370   C603    1.348   1_545 S
C371   C486    1.348   .     S
C371   C483    1.455   .     S
C372   O403    1.297   .     A
C372   O405    1.291   .     A
C373   O404    1.297   .     A
C373   O406    1.291   .     A
C374   H377    1.085   .     S
Cu375  O402    1.961   .     S
Cu375  O406    1.957   .     S
Cu375  N394    2.016   .     S
Cu375  O399    1.972   .     S
Cu375  O403    1.968   .     S
Cu375  Cu376   2.683   .     S
Cu376  O401    1.961   .     S
Cu376  O404    1.968   .     S
Cu376  O405    1.957   .     S
Cu376  O400    1.972   .     S
Cu376  N393    2.016   .     S
H383   C713    1.111   .     S
H390   N741    1.028   .     S
H392   N743    1.032   .     S
N394   N741    1.295   .     S
N394   H739    1.028   .     S
N396   C713    1.447   .     S
N396   H729    1.032   .     S
C407   C428    1.425   .     S
C407   O459    1.285   .     A
C407   O457    1.285   .     A
C408   C410    1.399   .     A
C408   H443    1.085   .     S
C408   C419    1.389   .     A
C409   C431    1.455   .     S
C409   C432    1.399   .     A
C409   C411    1.399   .     A
C410   C412    1.399   .     A
C410   C430    1.455   .     S
C411   H444    1.083   .     S
C411   C413    1.399   .     A
C412   H445    1.083   .     S
C412   C414    1.399   .     A
C413   C415    1.418   .     A
C413   C420    1.413   .     A
C414   C421    1.413   .     A
C414   C416    1.418   .     A
C415   C417    1.410   .     A
C415   C358    1.401   1_655 S
C416   C419    1.410   .     A
C417   C432    1.389   .     A
C417   C427    1.399   .     A
C418   C429    1.425   .     S
C418   O458    1.285   .     A
C418   O460    1.285   .     A
C419   C426    1.399   .     A
C420   N453    1.424   .     S
C420   C368    1.398   1_655 S
C421   N454    1.424   .     S
C422   H436    1.112   .     S
C422   H437    1.110   .     S
C422   H786    1.111   .     S
C422   N801    1.447   .     S
C423   H442    1.110   .     S
C423   H440    1.112   .     S
C424   N455    1.157   .     T
C424   C544    1.455   .     S
C425   N456    1.157   .     T
C425   C661    1.455   1_545 S
C426   H446    1.085   .     S
C427   H447    1.085   .     S
C427   C363    1.398   1_655 S
C428   C656    1.455   1_545 S
C428   C661    1.348   1_545 S
C429   C544    1.348   .     S
C429   C541    1.455   .     S
C430   O461    1.297   .     A
C430   O463    1.291   .     A
C431   O462    1.297   .     A
C431   O464    1.291   .     A
C432   H435    1.085   .     S
Cu433  O460    1.961   .     S
Cu433  O464    1.957   .     S
Cu433  N452    2.016   .     S
Cu433  O457    1.972   .     S
Cu433  O461    1.968   .     S
Cu433  Cu434   2.683   .     S
Cu434  O459    1.961   .     S
Cu434  O462    1.968   .     S
Cu434  O463    1.957   .     S
Cu434  O458    1.972   .     S
Cu434  N451    2.016   .     S
H441   C771    1.111   .     S
H448   N799    1.028   .     S
H450   N801    1.032   .     S
N452   N799    1.295   .     S
N452   H797    1.028   .     S
N454   C771    1.447   .     S
N454   H787    1.032   .     S
C465   C486    1.425   .     S
C465   O517    1.285   .     A
C465   O515    1.285   .     A
C466   C468    1.399   .     A
C466   H501    1.085   .     S
C466   C477    1.389   .     A
C467   C489    1.455   .     S
C467   C490    1.399   .     A
C467   C469    1.399   .     A
C468   C470    1.399   .     A
C468   C488    1.455   .     S
C469   H502    1.083   .     S
C469   C471    1.399   .     A
C470   H503    1.083   .     S
C470   C472    1.399   .     A
C471   C473    1.418   .     A
C471   C478    1.413   .     A
C472   C479    1.413   .     A
C472   C474    1.418   .     A
C473   C475    1.410   .     A
C473   C532    1.401   .     S
C474   C477    1.410   .     A
C474   C531    1.401   1_455 S
C475   C490    1.389   .     A
C475   C485    1.399   .     A
C476   C487    1.425   .     S
C476   O516    1.285   .     A
C476   O518    1.285   .     A
C477   C484    1.399   .     A
C478   N511    1.424   .     S
C478   C542    1.398   .     S
C479   N512    1.424   .     S
C479   C543    1.398   1_455 S
C480   H494    1.112   .     S
C480   H495    1.110   .     S
C480   H844    1.111   .     S
C480   N859    1.447   .     S
C481   H500    1.110   .     S
C481   H498    1.112   .     S
C482   N513    1.157   .     T
C482   C602    1.455   .     S
C483   N514    1.157   .     T
C484   H504    1.085   .     S
C484   C536    1.398   1_455 S
C485   H505    1.085   .     S
C485   C537    1.398   .     S
C487   C602    1.348   .     S
C487   C599    1.455   .     S
C488   O519    1.297   .     A
C488   O521    1.291   .     A
C489   O520    1.297   .     A
C489   O522    1.291   .     A
C490   H493    1.085   .     S
Cu491  O518    1.961   .     S
Cu491  O522    1.957   .     S
Cu491  N510    2.016   .     S
Cu491  O515    1.972   .     S
Cu491  O519    1.968   .     S
Cu491  Cu492   2.683   .     S
Cu492  O517    1.961   .     S
Cu492  O520    1.968   .     S
Cu492  O521    1.957   .     S
Cu492  O516    1.972   .     S
Cu492  N509    2.016   .     S
H499   C829    1.111   .     S
H506   N857    1.028   .     S
H508   N859    1.032   .     S
N510   N857    1.295   .     S
N510   H855    1.028   .     S
N512   C829    1.447   .     S
N512   H845    1.032   .     S
C523   C544    1.425   .     S
C523   O575    1.285   .     A
C523   O573    1.285   .     A
C524   C526    1.399   .     A
C524   H559    1.085   .     S
C524   C535    1.389   .     A
C525   C547    1.455   .     S
C525   C548    1.399   .     A
C525   C527    1.399   .     A
C526   C528    1.399   .     A
C526   C546    1.455   .     S
C527   H560    1.083   .     S
C527   C529    1.399   .     A
C528   H561    1.083   .     S
C528   C530    1.399   .     A
C529   C531    1.418   .     A
C529   C536    1.413   .     A
C530   C537    1.413   .     A
C530   C532    1.418   .     A
C531   C533    1.410   .     A
C531   C474    1.401   1_655 S
C532   C535    1.410   .     A
C533   C548    1.389   .     A
C533   C543    1.399   .     A
C534   C545    1.425   .     S
C534   O574    1.285   .     A
C534   O576    1.285   .     A
C535   C542    1.399   .     A
C536   N569    1.424   .     S
C536   C484    1.398   1_655 S
C537   N570    1.424   .     S
C538   H552    1.112   .     S
C538   H553    1.110   .     S
C538   H902    1.111   .     S
C538   N917    1.447   .     S
C539   H558    1.110   .     S
C539   H556    1.112   .     S
C540   N571    1.157   .     T
C540   C660    1.455   .     S
C541   N572    1.157   .     T
C542   H562    1.085   .     S
C543   H563    1.085   .     S
C543   C479    1.398   1_655 S
C545   C660    1.348   .     S
C545   C657    1.455   .     S
C546   O577    1.297   .     A
C546   O579    1.291   .     A
C547   O578    1.297   .     A
C547   O580    1.291   .     A
C548   H551    1.085   .     S
Cu549  O576    1.961   .     S
Cu549  O580    1.957   .     S
Cu549  N568    2.016   .     S
Cu549  O573    1.972   .     S
Cu549  O577    1.968   .     S
Cu549  Cu550   2.683   .     S
Cu550  O575    1.961   .     S
Cu550  O578    1.968   .     S
Cu550  O579    1.957   .     S
Cu550  O574    1.972   .     S
Cu550  N567    2.016   .     S
H557   C887    1.111   .     S
H564   N915    1.028   .     S
H566   N917    1.032   .     S
N568   N915    1.295   .     S
N568   H913    1.028   .     S
N570   C887    1.447   .     S
N570   H903    1.032   .     S
C581   C602    1.425   .     S
C581   O633    1.285   .     A
C581   O631    1.285   .     A
C582   C584    1.399   .     A
C582   H617    1.085   .     S
C582   C593    1.389   .     A
C583   C605    1.455   .     S
C583   C606    1.399   .     A
C583   C585    1.399   .     A
C584   C586    1.399   .     A
C584   C604    1.455   .     S
C585   H618    1.083   .     S
C585   C587    1.399   .     A
C586   H619    1.083   .     S
C586   C588    1.399   .     A
C587   C589    1.418   .     A
C587   C594    1.413   .     A
C588   C595    1.413   .     A
C588   C590    1.418   .     A
C589   C591    1.410   .     A
C589   C648    1.401   .     S
C590   C593    1.410   .     A
C590   C647    1.401   1_455 S
C591   C606    1.389   .     A
C591   C601    1.399   .     A
C592   C603    1.425   .     S
C592   O632    1.285   .     A
C592   O634    1.285   .     A
C593   C600    1.399   .     A
C594   N627    1.424   .     S
C594   C658    1.398   .     S
C595   N628    1.424   .     S
C595   C659    1.398   1_455 S
C596   H610    1.112   .     S
C596   H611    1.110   .     S
C596   H960    1.111   .     S
C596   N975    1.447   .     S
C597   H616    1.110   .     S
C597   H614    1.112   .     S
C598   N629    1.157   .     T
C598   C370    1.455   1_565 S
C599   N630    1.157   .     T
C600   H620    1.085   .     S
C600   C652    1.398   1_455 S
C601   H621    1.085   .     S
C601   C653    1.398   .     S
C603   C370    1.348   1_565 S
C603   C367    1.455   1_565 S
C604   O635    1.297   .     A
C604   O637    1.291   .     A
C605   O636    1.297   .     A
C605   O638    1.291   .     A
C606   H609    1.085   .     S
Cu607  O634    1.961   .     S
Cu607  O638    1.957   .     S
Cu607  N626    2.016   .     S
Cu607  O631    1.972   .     S
Cu607  O635    1.968   .     S
Cu607  Cu608   2.683   .     S
Cu608  O633    1.961   .     S
Cu608  O636    1.968   .     S
Cu608  O637    1.957   .     S
Cu608  O632    1.972   .     S
Cu608  N625    2.016   .     S
H615   C945    1.111   .     S
H622   N973    1.028   .     S
H624   N975    1.032   .     S
N626   N973    1.295   .     S
N626   H971    1.028   .     S
N628   C945    1.447   .     S
N628   H961    1.032   .     S
C639   C660    1.425   .     S
C639   O691    1.285   .     A
C639   O689    1.285   .     A
C640   C642    1.399   .     A
C640   H675    1.085   .     S
C640   C651    1.389   .     A
C641   C663    1.455   .     S
C641   C664    1.399   .     A
C641   C643    1.399   .     A
C642   C644    1.399   .     A
C642   C662    1.455   .     S
C643   H676    1.083   .     S
C643   C645    1.399   .     A
C644   H677    1.083   .     S
C644   C646    1.399   .     A
C645   C647    1.418   .     A
C645   C652    1.413   .     A
C646   C653    1.413   .     A
C646   C648    1.418   .     A
C647   C649    1.410   .     A
C647   C590    1.401   1_655 S
C648   C651    1.410   .     A
C649   C664    1.389   .     A
C649   C659    1.399   .     A
C650   C661    1.425   .     S
C650   O690    1.285   .     A
C650   O692    1.285   .     A
C651   C658    1.399   .     A
C652   N685    1.424   .     S
C652   C600    1.398   1_655 S
C653   N686    1.424   .     S
C654   H668    1.112   .     S
C654   H669    1.110   .     S
C654   H1018   1.111   .     S
C654   N1033   1.447   .     S
C655   H674    1.110   .     S
C655   H672    1.112   .     S
C656   N687    1.157   .     T
C656   C428    1.455   1_565 S
C657   N688    1.157   .     T
C658   H678    1.085   .     S
C659   H679    1.085   .     S
C659   C595    1.398   1_655 S
C661   C428    1.348   1_565 S
C661   C425    1.455   1_565 S
C662   O693    1.297   .     A
C662   O695    1.291   .     A
C663   O694    1.297   .     A
C663   O696    1.291   .     A
C664   H667    1.085   .     S
Cu665  O692    1.961   .     S
Cu665  O696    1.957   .     S
Cu665  N684    2.016   .     S
Cu665  O689    1.972   .     S
Cu665  O693    1.968   .     S
Cu665  Cu666   2.683   .     S
Cu666  O691    1.961   .     S
Cu666  O694    1.968   .     S
Cu666  O695    1.957   .     S
Cu666  O690    1.972   .     S
Cu666  N683    2.016   .     S
H673   C1003   1.111   .     S
H680   N1031   1.028   .     S
H682   N1033   1.032   .     S
N684   N1031   1.295   .     S
N684   H1029   1.028   .     S
N686   C1003   1.447   .     S
N686   H1019   1.032   .     S
C697   C718    1.425   .     S
C697   O749    1.285   .     A
C697   O747    1.285   .     A
C698   C700    1.399   .     A
C698   H733    1.085   .     S
C698   C709    1.389   .     A
C699   C721    1.455   .     S
C699   C722    1.399   .     A
C699   C701    1.399   .     A
C700   C702    1.399   .     A
C700   C720    1.455   .     S
C701   H734    1.083   .     S
C701   C703    1.399   .     A
C702   H735    1.083   .     S
C702   C704    1.399   .     A
C703   C705    1.418   .     A
C703   C710    1.413   .     A
C704   C711    1.413   .     A
C704   C706    1.418   .     A
C705   C707    1.410   .     A
C705   C764    1.401   .     S
C706   C709    1.410   .     A
C706   C763    1.401   1_455 S
C707   C722    1.389   .     A
C707   C717    1.399   .     A
C708   C719    1.425   .     S
C708   O748    1.285   .     A
C708   O750    1.285   .     A
C709   C716    1.399   .     A
C710   N743    1.424   .     S
C710   C774    1.398   .     S
C711   N744    1.424   .     S
C711   C775    1.398   1_455 S
C712   H726    1.112   .     S
C712   H727    1.110   .     S
C712   H32     1.111   1_556 S
C712   N47     1.447   1_556 S
C713   H732    1.110   .     S
C713   H730    1.112   .     S
C714   N745    1.157   .     T
C714   C834    1.455   .     S
C715   N746    1.157   .     T
C715   C951    1.455   1_545 S
C716   H736    1.085   .     S
C716   C768    1.398   1_455 S
C717   H737    1.085   .     S
C717   C769    1.398   .     S
C718   C946    1.455   1_545 S
C718   C951    1.348   1_545 S
C719   C834    1.348   .     S
C719   C831    1.455   .     S
C720   O751    1.297   .     A
C720   O753    1.291   .     A
C721   O752    1.297   .     A
C721   O754    1.291   .     A
C722   H725    1.085   .     S
Cu723  O750    1.961   .     S
Cu723  O754    1.957   .     S
Cu723  N742    2.016   .     S
Cu723  O747    1.972   .     S
Cu723  O751    1.968   .     S
Cu723  Cu724   2.683   .     S
Cu724  O749    1.961   .     S
Cu724  O752    1.968   .     S
Cu724  O753    1.957   .     S
Cu724  O748    1.972   .     S
Cu724  N741    2.016   .     S
H731   C17     1.111   1_556 S
H738   N45     1.028   1_556 S
H740   N47     1.032   1_556 S
N742   N45     1.295   1_556 S
N742   H43     1.028   1_556 S
N744   C17     1.447   1_556 S
N744   H33     1.032   1_556 S
C755   C776    1.425   .     S
C755   O807    1.285   .     A
C755   O805    1.285   .     A
C756   C758    1.399   .     A
C756   H791    1.085   .     S
C756   C767    1.389   .     A
C757   C779    1.455   .     S
C757   C780    1.399   .     A
C757   C759    1.399   .     A
C758   C760    1.399   .     A
C758   C778    1.455   .     S
C759   H792    1.083   .     S
C759   C761    1.399   .     A
C760   H793    1.083   .     S
C760   C762    1.399   .     A
C761   C763    1.418   .     A
C761   C768    1.413   .     A
C762   C769    1.413   .     A
C762   C764    1.418   .     A
C763   C765    1.410   .     A
C763   C706    1.401   1_655 S
C764   C767    1.410   .     A
C765   C780    1.389   .     A
C765   C775    1.399   .     A
C766   C777    1.425   .     S
C766   O806    1.285   .     A
C766   O808    1.285   .     A
C767   C774    1.399   .     A
C768   N801    1.424   .     S
C768   C716    1.398   1_655 S
C769   N802    1.424   .     S
C770   H784    1.112   .     S
C770   H785    1.110   .     S
C770   H90     1.111   1_556 S
C770   N105    1.447   1_556 S
C771   H790    1.110   .     S
C771   H788    1.112   .     S
C772   N803    1.157   .     T
C772   C892    1.455   .     S
C773   N804    1.157   .     T
C773   C1009   1.455   1_545 S
C774   H794    1.085   .     S
C775   H795    1.085   .     S
C775   C711    1.398   1_655 S
C776   C1004   1.455   1_545 S
C776   C1009   1.348   1_545 S
C777   C892    1.348   .     S
C777   C889    1.455   .     S
C778   O809    1.297   .     A
C778   O811    1.291   .     A
C779   O810    1.297   .     A
C779   O812    1.291   .     A
C780   H783    1.085   .     S
Cu781  O808    1.961   .     S
Cu781  O812    1.957   .     S
Cu781  N800    2.016   .     S
Cu781  O805    1.972   .     S
Cu781  O809    1.968   .     S
Cu781  Cu782   2.683   .     S
Cu782  O807    1.961   .     S
Cu782  O810    1.968   .     S
Cu782  O811    1.957   .     S
Cu782  O806    1.972   .     S
Cu782  N799    2.016   .     S
H789   C75     1.111   1_556 S
H796   N103    1.028   1_556 S
H798   N105    1.032   1_556 S
N800   N103    1.295   1_556 S
N800   H101    1.028   1_556 S
N802   C75     1.447   1_556 S
N802   H91     1.032   1_556 S
C813   C834    1.425   .     S
C813   O865    1.285   .     A
C813   O863    1.285   .     A
C814   C816    1.399   .     A
C814   H849    1.085   .     S
C814   C825    1.389   .     A
C815   C837    1.455   .     S
C815   C838    1.399   .     A
C815   C817    1.399   .     A
C816   C818    1.399   .     A
C816   C836    1.455   .     S
C817   H850    1.083   .     S
C817   C819    1.399   .     A
C818   H851    1.083   .     S
C818   C820    1.399   .     A
C819   C821    1.418   .     A
C819   C826    1.413   .     A
C820   C827    1.413   .     A
C820   C822    1.418   .     A
C821   C823    1.410   .     A
C821   C880    1.401   .     S
C822   C825    1.410   .     A
C822   C879    1.401   1_455 S
C823   C838    1.389   .     A
C823   C833    1.399   .     A
C824   C835    1.425   .     S
C824   O864    1.285   .     A
C824   O866    1.285   .     A
C825   C832    1.399   .     A
C826   N859    1.424   .     S
C826   C890    1.398   .     S
C827   N860    1.424   .     S
C827   C891    1.398   1_455 S
C828   H842    1.112   .     S
C828   H843    1.110   .     S
C828   H148    1.111   1_556 S
C828   N163    1.447   1_556 S
C829   H848    1.110   .     S
C829   H846    1.112   .     S
C830   N861    1.157   .     T
C830   C950    1.455   .     S
C831   N862    1.157   .     T
C832   H852    1.085   .     S
C832   C884    1.398   1_455 S
C833   H853    1.085   .     S
C833   C885    1.398   .     S
C835   C950    1.348   .     S
C835   C947    1.455   .     S
C836   O867    1.297   .     A
C836   O869    1.291   .     A
C837   O868    1.297   .     A
C837   O870    1.291   .     A
C838   H841    1.085   .     S
Cu839  O866    1.961   .     S
Cu839  O870    1.957   .     S
Cu839  N858    2.016   .     S
Cu839  O863    1.972   .     S
Cu839  O867    1.968   .     S
Cu839  Cu840   2.683   .     S
Cu840  O865    1.961   .     S
Cu840  O868    1.968   .     S
Cu840  O869    1.957   .     S
Cu840  O864    1.972   .     S
Cu840  N857    2.016   .     S
H847   C133    1.111   1_556 S
H854   N161    1.028   1_556 S
H856   N163    1.032   1_556 S
N858   N161    1.295   1_556 S
N858   H159    1.028   1_556 S
N860   C133    1.447   1_556 S
N860   H149    1.032   1_556 S
C871   C892    1.425   .     S
C871   O923    1.285   .     A
C871   O921    1.285   .     A
C872   C874    1.399   .     A
C872   H907    1.085   .     S
C872   C883    1.389   .     A
C873   C895    1.455   .     S
C873   C896    1.399   .     A
C873   C875    1.399   .     A
C874   C876    1.399   .     A
C874   C894    1.455   .     S
C875   H908    1.083   .     S
C875   C877    1.399   .     A
C876   H909    1.083   .     S
C876   C878    1.399   .     A
C877   C879    1.418   .     A
C877   C884    1.413   .     A
C878   C885    1.413   .     A
C878   C880    1.418   .     A
C879   C881    1.410   .     A
C879   C822    1.401   1_655 S
C880   C883    1.410   .     A
C881   C896    1.389   .     A
C881   C891    1.399   .     A
C882   C893    1.425   .     S
C882   O922    1.285   .     A
C882   O924    1.285   .     A
C883   C890    1.399   .     A
C884   N917    1.424   .     S
C884   C832    1.398   1_655 S
C885   N918    1.424   .     S
C886   H900    1.112   .     S
C886   H901    1.110   .     S
C886   H206    1.111   1_556 S
C886   N221    1.447   1_556 S
C887   H906    1.110   .     S
C887   H904    1.112   .     S
C888   N919    1.157   .     T
C888   C1008   1.455   .     S
C889   N920    1.157   .     T
C890   H910    1.085   .     S
C891   H911    1.085   .     S
C891   C827    1.398   1_655 S
C893   C1008   1.348   .     S
C893   C1005   1.455   .     S
C894   O925    1.297   .     A
C894   O927    1.291   .     A
C895   O926    1.297   .     A
C895   O928    1.291   .     A
C896   H899    1.085   .     S
Cu897  O924    1.961   .     S
Cu897  O928    1.957   .     S
Cu897  N916    2.016   .     S
Cu897  O921    1.972   .     S
Cu897  O925    1.968   .     S
Cu897  Cu898   2.683   .     S
Cu898  O923    1.961   .     S
Cu898  O926    1.968   .     S
Cu898  O927    1.957   .     S
Cu898  O922    1.972   .     S
Cu898  N915    2.016   .     S
H905   C191    1.111   1_556 S
H912   N219    1.028   1_556 S
H914   N221    1.032   1_556 S
N916   N219    1.295   1_556 S
N916   H217    1.028   1_556 S
N918   C191    1.447   1_556 S
N918   H207    1.032   1_556 S
C929   C950    1.425   .     S
C929   O981    1.285   .     A
C929   O979    1.285   .     A
C930   C932    1.399   .     A
C930   H965    1.085   .     S
C930   C941    1.389   .     A
C931   C953    1.455   .     S
C931   C954    1.399   .     A
C931   C933    1.399   .     A
C932   C934    1.399   .     A
C932   C952    1.455   .     S
C933   H966    1.083   .     S
C933   C935    1.399   .     A
C934   H967    1.083   .     S
C934   C936    1.399   .     A
C935   C937    1.418   .     A
C935   C942    1.413   .     A
C936   C943    1.413   .     A
C936   C938    1.418   .     A
C937   C939    1.410   .     A
C937   C996    1.401   .     S
C938   C941    1.410   .     A
C938   C995    1.401   1_455 S
C939   C954    1.389   .     A
C939   C949    1.399   .     A
C940   C951    1.425   .     S
C940   O980    1.285   .     A
C940   O982    1.285   .     A
C941   C948    1.399   .     A
C942   N975    1.424   .     S
C942   C1006   1.398   .     S
C943   N976    1.424   .     S
C943   C1007   1.398   1_455 S
C944   H958    1.112   .     S
C944   H959    1.110   .     S
C944   H264    1.111   1_556 S
C944   N279    1.447   1_556 S
C945   H964    1.110   .     S
C945   H962    1.112   .     S
C946   N977    1.157   .     T
C946   C718    1.455   1_565 S
C947   N978    1.157   .     T
C948   H968    1.085   .     S
C948   C1000   1.398   1_455 S
C949   H969    1.085   .     S
C949   C1001   1.398   .     S
C951   C718    1.348   1_565 S
C951   C715    1.455   1_565 S
C952   O983    1.297   .     A
C952   O985    1.291   .     A
C953   O984    1.297   .     A
C953   O986    1.291   .     A
C954   H957    1.085   .     S
Cu955  O982    1.961   .     S
Cu955  O986    1.957   .     S
Cu955  N974    2.016   .     S
Cu955  O979    1.972   .     S
Cu955  O983    1.968   .     S
Cu955  Cu956   2.683   .     S
Cu956  O981    1.961   .     S
Cu956  O984    1.968   .     S
Cu956  O985    1.957   .     S
Cu956  O980    1.972   .     S
Cu956  N973    2.016   .     S
H963   C249    1.111   1_556 S
H970   N277    1.028   1_556 S
H972   N279    1.032   1_556 S
N974   N277    1.295   1_556 S
N974   H275    1.028   1_556 S
N976   C249    1.447   1_556 S
N976   H265    1.032   1_556 S
C987   C1008   1.425   .     S
C987   O1039   1.285   .     A
C987   O1037   1.285   .     A
C988   C990    1.399   .     A
C988   H1023   1.085   .     S
C988   C999    1.389   .     A
C989   C1011   1.455   .     S
C989   C1012   1.399   .     A
C989   C991    1.399   .     A
C990   C992    1.399   .     A
C990   C1010   1.455   .     S
C991   H1024   1.083   .     S
C991   C993    1.399   .     A
C992   H1025   1.083   .     S
C992   C994    1.399   .     A
C993   C995    1.418   .     A
C993   C1000   1.413   .     A
C994   C1001   1.413   .     A
C994   C996    1.418   .     A
C995   C997    1.410   .     A
C995   C938    1.401   1_655 S
C996   C999    1.410   .     A
C997   C1012   1.389   .     A
C997   C1007   1.399   .     A
C998   C1009   1.425   .     S
C998   O1038   1.285   .     A
C998   O1040   1.285   .     A
C999   C1006   1.399   .     A
C1000  N1033   1.424   .     S
C1000  C948    1.398   1_655 S
C1001  N1034   1.424   .     S
C1002  H1016   1.112   .     S
C1002  H1017   1.110   .     S
C1002  H322    1.111   1_556 S
C1002  N337    1.447   1_556 S
C1003  H1022   1.110   .     S
C1003  H1020   1.112   .     S
C1004  N1035   1.157   .     T
C1004  C776    1.455   1_565 S
C1005  N1036   1.157   .     T
C1006  H1026   1.085   .     S
C1007  H1027   1.085   .     S
C1007  C943    1.398   1_655 S
C1009  C776    1.348   1_565 S
C1009  C773    1.455   1_565 S
C1010  O1041   1.297   .     A
C1010  O1043   1.291   .     A
C1011  O1042   1.297   .     A
C1011  O1044   1.291   .     A
C1012  H1015   1.085   .     S
Cu1013 O1040   1.961   .     S
Cu1013 O1044   1.957   .     S
Cu1013 N1032   2.016   .     S
Cu1013 O1037   1.972   .     S
Cu1013 O1041   1.968   .     S
Cu1013 Cu1014  2.683   .     S
Cu1014 O1039   1.961   .     S
Cu1014 O1042   1.968   .     S
Cu1014 O1043   1.957   .     S
Cu1014 O1038   1.972   .     S
Cu1014 N1031   2.016   .     S
H1021  C307    1.111   1_556 S
H1028  N335    1.028   1_556 S
H1030  N337    1.032   1_556 S
N1032  N335    1.295   1_556 S
N1032  H333    1.028   1_556 S
N1034  C307    1.447   1_556 S
N1034  H323    1.032   1_556 S
