data_str_m2_o10_o17_pcu_sym.186
_audit_creation_date              2020-01-03
_audit_creation_method            'Materials Studio'
_symmetry_space_group_name_H-M    'P1'
_symmetry_Int_Tables_number       1
_symmetry_cell_setting            triclinic
loop_
_symmetry_equiv_pos_as_xyz
  x,y,z
_cell_length_a                    30.0913
_cell_length_b                    25.9983
_cell_length_c                    22.6302
_cell_angle_alpha                 103.2055
_cell_angle_beta                  94.5845
_cell_angle_gamma                 94.1197
loop_
_atom_site_label
_atom_site_type_symbol
_atom_site_fract_x
_atom_site_fract_y
_atom_site_fract_z
_atom_site_U_iso_or_equiv
_atom_site_adp_type
_atom_site_occupancy
C1     C     0.24880   0.06665   0.15100   0.00000  Uiso   1.00
C2     C     0.25149   0.26668   0.18227   0.00000  Uiso   1.00
C3     C     0.01127   0.07081   0.12372   0.00000  Uiso   1.00
C4     C     0.48903   0.26348   0.21167   0.00000  Uiso   1.00
C5     C     0.24845   0.01048   0.14231   0.00000  Uiso   1.00
C6     C     0.25239   0.32282   0.19068   0.00000  Uiso   1.00
C7     C     0.16454   0.16435   0.16682   0.00000  Uiso   1.00
C8     C     0.33549   0.16971   0.16671   0.00000  Uiso   1.00
C9     C     0.41238   0.21853   0.19254   0.00000  Uiso   1.00
C10    C     0.08775   0.11590   0.14228   0.00000  Uiso   1.00
C11    C     0.38395   0.17161   0.16635   0.00000  Uiso   1.00
C12    C     0.11616   0.16283   0.16765   0.00000  Uiso   1.00
C13    C     0.40178   0.12414   0.14226   0.00000  Uiso   1.00
C14    C     0.09845   0.21016   0.19256   0.00000  Uiso   1.00
C15    C     0.44784   0.12174   0.14443   0.00000  Uiso   1.00
C16    C     0.05240   0.21254   0.19085   0.00000  Uiso   1.00
C17    C     0.47678   0.16835   0.16763   0.00000  Uiso   1.00
C18    C     0.02341   0.16601   0.16737   0.00000  Uiso   1.00
C19    C     0.45922   0.21719   0.19107   0.00000  Uiso   1.00
C20    C     0.04097   0.11717   0.14392   0.00000  Uiso   1.00
C21    C     0.46533   0.07318   0.12407   0.00000  Uiso   1.00
C22    C     0.03499   0.26101   0.21190   0.00000  Uiso   1.00
Cu23   Cu    0.25500   0.17246   0.22813   0.00000  Uiso   1.00
Cu24   Cu    0.24499   0.16087   0.10521   0.00000  Uiso   1.00
H25    H     0.37950   0.08859   0.12282   0.00000  Uiso   1.00
H26    H     0.12078   0.24552   0.21246   0.00000  Uiso   1.00
H27    H     0.44351   0.03675   0.10887   0.00000  Uiso   1.00
H28    H     0.05693   0.29730   0.22803   0.00000  Uiso   1.00
H29    H     0.02309   0.03220   0.10786   0.00000  Uiso   1.00
H30    H     0.47732   0.30215   0.22742   0.00000  Uiso   1.00
H31    H     0.24445   0.31964   0.09584   0.00000  Uiso   1.00
H32    H     0.25685   0.01368   0.23700   0.00000  Uiso   1.00
N33    N     0.23744   0.15214   0.01284   0.00000  Uiso   1.00
N34    N     0.26255   0.18119   0.32049   0.00000  Uiso   1.00
O35    O     0.25325   0.09538   0.20659   0.00000  Uiso   1.00
O36    O     0.24674   0.23796   0.12674   0.00000  Uiso   1.00
O37    O     0.24480   0.08559   0.10279   0.00000  Uiso   1.00
O38    O     0.25520   0.24774   0.23055   0.00000  Uiso   1.00
O39    O     0.18935   0.17155   0.21857   0.00000  Uiso   1.00
O40    O     0.31064   0.16179   0.11476   0.00000  Uiso   1.00
O41    O     0.18090   0.16176   0.11477   0.00000  Uiso   1.00
O42    O     0.31910   0.17157   0.21857   0.00000  Uiso   1.00
C43    C     0.39375   0.26904   0.21979   0.00000  Uiso   1.00
C44    C     0.37124   0.29660   0.18210   0.00000  Uiso   1.00
C45    C     0.35824   0.01371   0.20624   0.00000  Uiso   1.00
C46    C     0.36661   0.03654   0.26860   0.00000  Uiso   1.00
C47    C     0.38887   0.00928   0.30668   0.00000  Uiso   1.00
C48    C     0.40302   0.29269   0.28238   0.00000  Uiso   1.00
H49    H     0.36494   0.27947   0.13399   0.00000  Uiso   1.00
H50    H     0.34144   0.03499   0.17664   0.00000  Uiso   1.00
H51    H     0.35600   0.07535   0.28734   0.00000  Uiso   1.00
H52    H     0.39519   0.02694   0.02157   0.00000  Uiso   1.00
H53    H     0.42122   0.27249   0.31215   0.00000  Uiso   1.00
C54    C     0.10664   0.06533   0.11679   0.00000  Uiso   1.00
C55    C     0.09973   0.04179   0.05399   0.00000  Uiso   1.00
C56    C     0.11456   0.32531   0.03108   0.00000  Uiso   1.00
C57    C     0.13577   0.29856   0.07068   0.00000  Uiso   1.00
C58    C     0.14206   0.32156   0.13321   0.00000  Uiso   1.00
C59    C     0.12769   0.03815   0.15621   0.00000  Uiso   1.00
H60    H     0.08282   0.06193   0.02301   0.00000  Uiso   1.00
H61    H     0.10976   0.30751   0.31605   0.00000  Uiso   1.00
H62    H     0.14727   0.26004   0.05297   0.00000  Uiso   1.00
H63    H     0.15838   0.30088   0.16383   0.00000  Uiso   1.00
H64    H     0.13189   0.05530   0.20471   0.00000  Uiso   1.00
O65    O     0.20499   0.12137   0.30650   0.00000  Uiso   1.00
C66    C     0.19699   0.07360   0.32392   0.00000  Uiso   1.00
H67    H     0.17984   0.07994   0.03259   0.00000  Uiso   1.00
H68    H     0.22832   0.05398   0.32791   0.00000  Uiso   1.00
H69    H     0.17426   0.04594   0.28788   0.00000  Uiso   1.00
O70    O     0.28623   0.22186   0.02786   0.00000  Uiso   1.00
C71    C     0.32573   0.23502   0.00405   0.00000  Uiso   1.00
H72    H     0.31902   0.25143   0.29721   0.00000  Uiso   1.00
H73    H     0.34650   0.20088   0.32863   0.00000  Uiso   1.00
H74    H     0.34542   0.26760   0.03790   0.00000  Uiso   1.00
C75    C     0.74880   0.06665   0.15100   0.00000  Uiso   1.00
C76    C     0.75149   0.26668   0.18227   0.00000  Uiso   1.00
C77    C     0.51127   0.07081   0.12372   0.00000  Uiso   1.00
C78    C     0.98903   0.26348   0.21167   0.00000  Uiso   1.00
C79    C     0.74845   0.01048   0.14231   0.00000  Uiso   1.00
C80    C     0.75239   0.32282   0.19068   0.00000  Uiso   1.00
C81    C     0.66454   0.16435   0.16682   0.00000  Uiso   1.00
C82    C     0.83549   0.16971   0.16671   0.00000  Uiso   1.00
C83    C     0.91238   0.21853   0.19254   0.00000  Uiso   1.00
C84    C     0.58775   0.11590   0.14228   0.00000  Uiso   1.00
C85    C     0.88395   0.17161   0.16635   0.00000  Uiso   1.00
C86    C     0.61616   0.16283   0.16765   0.00000  Uiso   1.00
C87    C     0.90178   0.12414   0.14226   0.00000  Uiso   1.00
C88    C     0.59845   0.21016   0.19256   0.00000  Uiso   1.00
C89    C     0.94784   0.12174   0.14443   0.00000  Uiso   1.00
C90    C     0.55240   0.21254   0.19085   0.00000  Uiso   1.00
C91    C     0.97678   0.16835   0.16763   0.00000  Uiso   1.00
C92    C     0.52341   0.16601   0.16737   0.00000  Uiso   1.00
C93    C     0.95922   0.21719   0.19107   0.00000  Uiso   1.00
C94    C     0.54097   0.11717   0.14392   0.00000  Uiso   1.00
C95    C     0.96533   0.07318   0.12407   0.00000  Uiso   1.00
C96    C     0.53499   0.26101   0.21190   0.00000  Uiso   1.00
Cu97   Cu    0.75500   0.17246   0.22813   0.00000  Uiso   1.00
Cu98   Cu    0.74499   0.16087   0.10521   0.00000  Uiso   1.00
H99    H     0.87950   0.08859   0.12282   0.00000  Uiso   1.00
H100   H     0.62078   0.24552   0.21246   0.00000  Uiso   1.00
H101   H     0.94351   0.03675   0.10887   0.00000  Uiso   1.00
H102   H     0.55693   0.29730   0.22803   0.00000  Uiso   1.00
H103   H     0.52309   0.03220   0.10786   0.00000  Uiso   1.00
H104   H     0.97732   0.30215   0.22742   0.00000  Uiso   1.00
H105   H     0.74445   0.31964   0.09584   0.00000  Uiso   1.00
H106   H     0.75685   0.01368   0.23700   0.00000  Uiso   1.00
N107   N     0.73744   0.15214   0.01284   0.00000  Uiso   1.00
N108   N     0.76255   0.18119   0.32049   0.00000  Uiso   1.00
O109   O     0.75325   0.09538   0.20659   0.00000  Uiso   1.00
O110   O     0.74674   0.23796   0.12674   0.00000  Uiso   1.00
O111   O     0.74480   0.08559   0.10279   0.00000  Uiso   1.00
O112   O     0.75520   0.24774   0.23055   0.00000  Uiso   1.00
O113   O     0.68935   0.17155   0.21857   0.00000  Uiso   1.00
O114   O     0.81064   0.16179   0.11476   0.00000  Uiso   1.00
O115   O     0.68090   0.16176   0.11477   0.00000  Uiso   1.00
O116   O     0.81910   0.17157   0.21857   0.00000  Uiso   1.00
C117   C     0.89375   0.26904   0.21979   0.00000  Uiso   1.00
C118   C     0.87124   0.29660   0.18210   0.00000  Uiso   1.00
C119   C     0.85824   0.01371   0.20624   0.00000  Uiso   1.00
C120   C     0.86661   0.03654   0.26860   0.00000  Uiso   1.00
C121   C     0.88887   0.00928   0.30668   0.00000  Uiso   1.00
C122   C     0.90302   0.29269   0.28238   0.00000  Uiso   1.00
H123   H     0.86494   0.27947   0.13399   0.00000  Uiso   1.00
H124   H     0.84144   0.03499   0.17664   0.00000  Uiso   1.00
H125   H     0.85600   0.07535   0.28734   0.00000  Uiso   1.00
H126   H     0.89519   0.02694   0.02157   0.00000  Uiso   1.00
H127   H     0.92122   0.27249   0.31215   0.00000  Uiso   1.00
C128   C     0.60664   0.06533   0.11679   0.00000  Uiso   1.00
C129   C     0.59973   0.04179   0.05399   0.00000  Uiso   1.00
C130   C     0.61456   0.32531   0.03108   0.00000  Uiso   1.00
C131   C     0.63577   0.29856   0.07068   0.00000  Uiso   1.00
C132   C     0.64206   0.32156   0.13321   0.00000  Uiso   1.00
C133   C     0.62769   0.03815   0.15621   0.00000  Uiso   1.00
H134   H     0.58282   0.06193   0.02301   0.00000  Uiso   1.00
H135   H     0.60976   0.30751   0.31605   0.00000  Uiso   1.00
H136   H     0.64727   0.26004   0.05297   0.00000  Uiso   1.00
H137   H     0.65838   0.30088   0.16383   0.00000  Uiso   1.00
H138   H     0.63189   0.05530   0.20471   0.00000  Uiso   1.00
O139   O     0.70499   0.12137   0.30650   0.00000  Uiso   1.00
C140   C     0.69699   0.07360   0.32392   0.00000  Uiso   1.00
H141   H     0.67984   0.07994   0.03259   0.00000  Uiso   1.00
H142   H     0.72832   0.05398   0.32791   0.00000  Uiso   1.00
H143   H     0.67426   0.04594   0.28788   0.00000  Uiso   1.00
O144   O     0.78623   0.22186   0.02786   0.00000  Uiso   1.00
C145   C     0.82573   0.23502   0.00405   0.00000  Uiso   1.00
H146   H     0.81902   0.25143   0.29721   0.00000  Uiso   1.00
H147   H     0.84650   0.20088   0.32863   0.00000  Uiso   1.00
H148   H     0.84542   0.26760   0.03790   0.00000  Uiso   1.00
C149   C     0.24880   0.39998   0.15100   0.00000  Uiso   1.00
C150   C     0.25149   0.60001   0.18227   0.00000  Uiso   1.00
C151   C     0.01127   0.40414   0.12372   0.00000  Uiso   1.00
C152   C     0.48903   0.59682   0.21167   0.00000  Uiso   1.00
C153   C     0.24845   0.34381   0.14231   0.00000  Uiso   1.00
C154   C     0.25239   0.65615   0.19068   0.00000  Uiso   1.00
C155   C     0.16454   0.49768   0.16682   0.00000  Uiso   1.00
C156   C     0.33549   0.50305   0.16671   0.00000  Uiso   1.00
C157   C     0.41238   0.55187   0.19254   0.00000  Uiso   1.00
C158   C     0.08775   0.44923   0.14228   0.00000  Uiso   1.00
C159   C     0.38395   0.50494   0.16635   0.00000  Uiso   1.00
C160   C     0.11616   0.49616   0.16765   0.00000  Uiso   1.00
C161   C     0.40178   0.45747   0.14226   0.00000  Uiso   1.00
C162   C     0.09845   0.54349   0.19256   0.00000  Uiso   1.00
C163   C     0.44784   0.45508   0.14443   0.00000  Uiso   1.00
C164   C     0.05240   0.54587   0.19085   0.00000  Uiso   1.00
C165   C     0.47678   0.50168   0.16763   0.00000  Uiso   1.00
C166   C     0.02341   0.49934   0.16737   0.00000  Uiso   1.00
C167   C     0.45922   0.55052   0.19107   0.00000  Uiso   1.00
C168   C     0.04097   0.45050   0.14392   0.00000  Uiso   1.00
C169   C     0.46533   0.40652   0.12407   0.00000  Uiso   1.00
C170   C     0.03499   0.59434   0.21190   0.00000  Uiso   1.00
Cu171  Cu    0.25500   0.50579   0.22813   0.00000  Uiso   1.00
Cu172  Cu    0.24499   0.49421   0.10521   0.00000  Uiso   1.00
H173   H     0.37950   0.42192   0.12282   0.00000  Uiso   1.00
H174   H     0.12078   0.57885   0.21246   0.00000  Uiso   1.00
H175   H     0.44351   0.37008   0.10887   0.00000  Uiso   1.00
H176   H     0.05693   0.63064   0.22803   0.00000  Uiso   1.00
H177   H     0.02309   0.36554   0.10786   0.00000  Uiso   1.00
H178   H     0.47732   0.63548   0.22742   0.00000  Uiso   1.00
H179   H     0.24445   0.65297   0.09584   0.00000  Uiso   1.00
H180   H     0.25685   0.34702   0.23700   0.00000  Uiso   1.00
N181   N     0.23744   0.48547   0.01284   0.00000  Uiso   1.00
N182   N     0.26255   0.51453   0.32049   0.00000  Uiso   1.00
O183   O     0.25325   0.42871   0.20659   0.00000  Uiso   1.00
O184   O     0.24674   0.57129   0.12674   0.00000  Uiso   1.00
O185   O     0.24480   0.41892   0.10279   0.00000  Uiso   1.00
O186   O     0.25520   0.58108   0.23055   0.00000  Uiso   1.00
O187   O     0.18935   0.50488   0.21857   0.00000  Uiso   1.00
O188   O     0.31064   0.49512   0.11476   0.00000  Uiso   1.00
O189   O     0.18090   0.49510   0.11477   0.00000  Uiso   1.00
O190   O     0.31910   0.50490   0.21857   0.00000  Uiso   1.00
C191   C     0.39375   0.60237   0.21979   0.00000  Uiso   1.00
C192   C     0.37124   0.62994   0.18210   0.00000  Uiso   1.00
C193   C     0.35824   0.34704   0.20624   0.00000  Uiso   1.00
C194   C     0.36661   0.36987   0.26860   0.00000  Uiso   1.00
C195   C     0.38887   0.34261   0.30668   0.00000  Uiso   1.00
C196   C     0.40302   0.62602   0.28238   0.00000  Uiso   1.00
H197   H     0.36494   0.61280   0.13399   0.00000  Uiso   1.00
H198   H     0.34144   0.36832   0.17664   0.00000  Uiso   1.00
H199   H     0.35600   0.40868   0.28734   0.00000  Uiso   1.00
H200   H     0.39519   0.36027   0.02157   0.00000  Uiso   1.00
H201   H     0.42122   0.60582   0.31215   0.00000  Uiso   1.00
C202   C     0.10664   0.39867   0.11679   0.00000  Uiso   1.00
C203   C     0.09973   0.37512   0.05399   0.00000  Uiso   1.00
C204   C     0.11456   0.65865   0.03108   0.00000  Uiso   1.00
C205   C     0.13577   0.63190   0.07068   0.00000  Uiso   1.00
C206   C     0.14206   0.65489   0.13321   0.00000  Uiso   1.00
C207   C     0.12769   0.37148   0.15621   0.00000  Uiso   1.00
H208   H     0.08282   0.39526   0.02301   0.00000  Uiso   1.00
H209   H     0.10976   0.64085   0.31605   0.00000  Uiso   1.00
H210   H     0.14727   0.59337   0.05297   0.00000  Uiso   1.00
H211   H     0.15838   0.63421   0.16383   0.00000  Uiso   1.00
H212   H     0.13189   0.38863   0.20471   0.00000  Uiso   1.00
O213   O     0.20499   0.45470   0.30650   0.00000  Uiso   1.00
C214   C     0.19699   0.40693   0.32392   0.00000  Uiso   1.00
H215   H     0.17984   0.41327   0.03259   0.00000  Uiso   1.00
H216   H     0.22832   0.38732   0.32791   0.00000  Uiso   1.00
H217   H     0.17426   0.37927   0.28788   0.00000  Uiso   1.00
O218   O     0.28623   0.55519   0.02786   0.00000  Uiso   1.00
C219   C     0.32573   0.56835   0.00405   0.00000  Uiso   1.00
H220   H     0.31902   0.58477   0.29721   0.00000  Uiso   1.00
H221   H     0.34650   0.53422   0.32863   0.00000  Uiso   1.00
H222   H     0.34542   0.60094   0.03790   0.00000  Uiso   1.00
C223   C     0.74880   0.39998   0.15100   0.00000  Uiso   1.00
C224   C     0.75149   0.60001   0.18227   0.00000  Uiso   1.00
C225   C     0.51127   0.40414   0.12372   0.00000  Uiso   1.00
C226   C     0.98903   0.59682   0.21167   0.00000  Uiso   1.00
C227   C     0.74845   0.34381   0.14231   0.00000  Uiso   1.00
C228   C     0.75239   0.65615   0.19068   0.00000  Uiso   1.00
C229   C     0.66454   0.49768   0.16682   0.00000  Uiso   1.00
C230   C     0.83549   0.50305   0.16671   0.00000  Uiso   1.00
C231   C     0.91238   0.55187   0.19254   0.00000  Uiso   1.00
C232   C     0.58775   0.44923   0.14228   0.00000  Uiso   1.00
C233   C     0.88395   0.50494   0.16635   0.00000  Uiso   1.00
C234   C     0.61616   0.49616   0.16765   0.00000  Uiso   1.00
C235   C     0.90178   0.45747   0.14226   0.00000  Uiso   1.00
C236   C     0.59845   0.54349   0.19256   0.00000  Uiso   1.00
C237   C     0.94784   0.45508   0.14443   0.00000  Uiso   1.00
C238   C     0.55240   0.54587   0.19085   0.00000  Uiso   1.00
C239   C     0.97678   0.50168   0.16763   0.00000  Uiso   1.00
C240   C     0.52341   0.49934   0.16737   0.00000  Uiso   1.00
C241   C     0.95922   0.55052   0.19107   0.00000  Uiso   1.00
C242   C     0.54097   0.45050   0.14392   0.00000  Uiso   1.00
C243   C     0.96533   0.40652   0.12407   0.00000  Uiso   1.00
C244   C     0.53499   0.59434   0.21190   0.00000  Uiso   1.00
Cu245  Cu    0.75500   0.50579   0.22813   0.00000  Uiso   1.00
Cu246  Cu    0.74499   0.49421   0.10521   0.00000  Uiso   1.00
H247   H     0.87950   0.42192   0.12282   0.00000  Uiso   1.00
H248   H     0.62078   0.57885   0.21246   0.00000  Uiso   1.00
H249   H     0.94351   0.37008   0.10887   0.00000  Uiso   1.00
H250   H     0.55693   0.63064   0.22803   0.00000  Uiso   1.00
H251   H     0.52309   0.36554   0.10786   0.00000  Uiso   1.00
H252   H     0.97732   0.63548   0.22742   0.00000  Uiso   1.00
H253   H     0.74445   0.65297   0.09584   0.00000  Uiso   1.00
H254   H     0.75685   0.34702   0.23700   0.00000  Uiso   1.00
N255   N     0.73744   0.48547   0.01284   0.00000  Uiso   1.00
N256   N     0.76255   0.51453   0.32049   0.00000  Uiso   1.00
O257   O     0.75325   0.42871   0.20659   0.00000  Uiso   1.00
O258   O     0.74674   0.57129   0.12674   0.00000  Uiso   1.00
O259   O     0.74480   0.41892   0.10279   0.00000  Uiso   1.00
O260   O     0.75520   0.58108   0.23055   0.00000  Uiso   1.00
O261   O     0.68935   0.50488   0.21857   0.00000  Uiso   1.00
O262   O     0.81064   0.49512   0.11476   0.00000  Uiso   1.00
O263   O     0.68090   0.49510   0.11477   0.00000  Uiso   1.00
O264   O     0.81910   0.50490   0.21857   0.00000  Uiso   1.00
C265   C     0.89375   0.60237   0.21979   0.00000  Uiso   1.00
C266   C     0.87124   0.62994   0.18210   0.00000  Uiso   1.00
C267   C     0.85824   0.34704   0.20624   0.00000  Uiso   1.00
C268   C     0.86661   0.36987   0.26860   0.00000  Uiso   1.00
C269   C     0.88887   0.34261   0.30668   0.00000  Uiso   1.00
C270   C     0.90302   0.62602   0.28238   0.00000  Uiso   1.00
H271   H     0.86494   0.61280   0.13399   0.00000  Uiso   1.00
H272   H     0.84144   0.36832   0.17664   0.00000  Uiso   1.00
H273   H     0.85600   0.40868   0.28734   0.00000  Uiso   1.00
H274   H     0.89519   0.36027   0.02157   0.00000  Uiso   1.00
H275   H     0.92122   0.60582   0.31215   0.00000  Uiso   1.00
C276   C     0.60664   0.39867   0.11679   0.00000  Uiso   1.00
C277   C     0.59973   0.37512   0.05399   0.00000  Uiso   1.00
C278   C     0.61456   0.65865   0.03108   0.00000  Uiso   1.00
C279   C     0.63577   0.63190   0.07068   0.00000  Uiso   1.00
C280   C     0.64206   0.65489   0.13321   0.00000  Uiso   1.00
C281   C     0.62769   0.37148   0.15621   0.00000  Uiso   1.00
H282   H     0.58282   0.39526   0.02301   0.00000  Uiso   1.00
H283   H     0.60976   0.64085   0.31605   0.00000  Uiso   1.00
H284   H     0.64727   0.59337   0.05297   0.00000  Uiso   1.00
H285   H     0.65838   0.63421   0.16383   0.00000  Uiso   1.00
H286   H     0.63189   0.38863   0.20471   0.00000  Uiso   1.00
O287   O     0.70499   0.45470   0.30650   0.00000  Uiso   1.00
C288   C     0.69699   0.40693   0.32392   0.00000  Uiso   1.00
H289   H     0.67984   0.41327   0.03259   0.00000  Uiso   1.00
H290   H     0.72832   0.38732   0.32791   0.00000  Uiso   1.00
H291   H     0.67426   0.37927   0.28788   0.00000  Uiso   1.00
O292   O     0.78623   0.55519   0.02786   0.00000  Uiso   1.00
C293   C     0.82573   0.56835   0.00405   0.00000  Uiso   1.00
H294   H     0.81902   0.58477   0.29721   0.00000  Uiso   1.00
H295   H     0.84650   0.53422   0.32863   0.00000  Uiso   1.00
H296   H     0.84542   0.60094   0.03790   0.00000  Uiso   1.00
C297   C     0.24880   0.73332   0.15100   0.00000  Uiso   1.00
C298   C     0.25149   0.93334   0.18227   0.00000  Uiso   1.00
C299   C     0.01127   0.73747   0.12372   0.00000  Uiso   1.00
C300   C     0.48903   0.93015   0.21167   0.00000  Uiso   1.00
C301   C     0.24845   0.67715   0.14231   0.00000  Uiso   1.00
C302   C     0.25239   0.98948   0.19068   0.00000  Uiso   1.00
C303   C     0.16454   0.83101   0.16682   0.00000  Uiso   1.00
C304   C     0.33549   0.83638   0.16671   0.00000  Uiso   1.00
C305   C     0.41238   0.88520   0.19254   0.00000  Uiso   1.00
C306   C     0.08775   0.78256   0.14228   0.00000  Uiso   1.00
C307   C     0.38395   0.83827   0.16635   0.00000  Uiso   1.00
C308   C     0.11616   0.82949   0.16765   0.00000  Uiso   1.00
C309   C     0.40178   0.79080   0.14226   0.00000  Uiso   1.00
C310   C     0.09845   0.87682   0.19256   0.00000  Uiso   1.00
C311   C     0.44784   0.78841   0.14443   0.00000  Uiso   1.00
C312   C     0.05240   0.87921   0.19085   0.00000  Uiso   1.00
C313   C     0.47678   0.83501   0.16763   0.00000  Uiso   1.00
C314   C     0.02341   0.83268   0.16737   0.00000  Uiso   1.00
C315   C     0.45922   0.88386   0.19107   0.00000  Uiso   1.00
C316   C     0.04097   0.78384   0.14392   0.00000  Uiso   1.00
C317   C     0.46533   0.73985   0.12407   0.00000  Uiso   1.00
C318   C     0.03499   0.92768   0.21190   0.00000  Uiso   1.00
Cu319  Cu    0.25500   0.83913   0.22813   0.00000  Uiso   1.00
Cu320  Cu    0.24499   0.82754   0.10521   0.00000  Uiso   1.00
H321   H     0.37950   0.75526   0.12282   0.00000  Uiso   1.00
H322   H     0.12078   0.91219   0.21246   0.00000  Uiso   1.00
H323   H     0.44351   0.70341   0.10887   0.00000  Uiso   1.00
H324   H     0.05693   0.96397   0.22803   0.00000  Uiso   1.00
H325   H     0.02309   0.69887   0.10786   0.00000  Uiso   1.00
H326   H     0.47732   0.96881   0.22742   0.00000  Uiso   1.00
H327   H     0.24445   0.98630   0.09584   0.00000  Uiso   1.00
H328   H     0.25685   0.68035   0.23700   0.00000  Uiso   1.00
N329   N     0.23744   0.81881   0.01284   0.00000  Uiso   1.00
N330   N     0.26255   0.84786   0.32049   0.00000  Uiso   1.00
O331   O     0.25325   0.76204   0.20659   0.00000  Uiso   1.00
O332   O     0.24674   0.90462   0.12674   0.00000  Uiso   1.00
O333   O     0.24480   0.75226   0.10279   0.00000  Uiso   1.00
O334   O     0.25520   0.91441   0.23055   0.00000  Uiso   1.00
O335   O     0.18935   0.83821   0.21857   0.00000  Uiso   1.00
O336   O     0.31064   0.82845   0.11476   0.00000  Uiso   1.00
O337   O     0.18090   0.82843   0.11477   0.00000  Uiso   1.00
O338   O     0.31910   0.83824   0.21857   0.00000  Uiso   1.00
C339   C     0.39375   0.93570   0.21979   0.00000  Uiso   1.00
C340   C     0.37124   0.96327   0.18210   0.00000  Uiso   1.00
C341   C     0.35824   0.68037   0.20624   0.00000  Uiso   1.00
C342   C     0.36661   0.70320   0.26860   0.00000  Uiso   1.00
C343   C     0.38887   0.67594   0.30668   0.00000  Uiso   1.00
C344   C     0.40302   0.95935   0.28238   0.00000  Uiso   1.00
H345   H     0.36494   0.94614   0.13399   0.00000  Uiso   1.00
H346   H     0.34144   0.70165   0.17664   0.00000  Uiso   1.00
H347   H     0.35600   0.74201   0.28734   0.00000  Uiso   1.00
H348   H     0.39519   0.69361   0.02157   0.00000  Uiso   1.00
H349   H     0.42122   0.93915   0.31215   0.00000  Uiso   1.00
C350   C     0.10664   0.73200   0.11679   0.00000  Uiso   1.00
C351   C     0.09973   0.70846   0.05399   0.00000  Uiso   1.00
C352   C     0.11456   0.99198   0.03108   0.00000  Uiso   1.00
C353   C     0.13577   0.96523   0.07068   0.00000  Uiso   1.00
C354   C     0.14206   0.98823   0.13321   0.00000  Uiso   1.00
C355   C     0.12769   0.70481   0.15621   0.00000  Uiso   1.00
H356   H     0.08282   0.72859   0.02301   0.00000  Uiso   1.00
H357   H     0.10976   0.97418   0.31605   0.00000  Uiso   1.00
H358   H     0.14727   0.92671   0.05297   0.00000  Uiso   1.00
H359   H     0.15838   0.96754   0.16383   0.00000  Uiso   1.00
H360   H     0.13189   0.72197   0.20471   0.00000  Uiso   1.00
O361   O     0.20499   0.78804   0.30650   0.00000  Uiso   1.00
C362   C     0.19699   0.74026   0.32392   0.00000  Uiso   1.00
H363   H     0.17984   0.74661   0.03259   0.00000  Uiso   1.00
H364   H     0.22832   0.72065   0.32791   0.00000  Uiso   1.00
H365   H     0.17426   0.71260   0.28788   0.00000  Uiso   1.00
O366   O     0.28623   0.88852   0.02786   0.00000  Uiso   1.00
C367   C     0.32573   0.90168   0.00405   0.00000  Uiso   1.00
H368   H     0.31902   0.91810   0.29721   0.00000  Uiso   1.00
H369   H     0.34650   0.86755   0.32863   0.00000  Uiso   1.00
H370   H     0.34542   0.93427   0.03790   0.00000  Uiso   1.00
C371   C     0.74880   0.73332   0.15100   0.00000  Uiso   1.00
C372   C     0.75149   0.93334   0.18227   0.00000  Uiso   1.00
C373   C     0.51127   0.73747   0.12372   0.00000  Uiso   1.00
C374   C     0.98903   0.93015   0.21167   0.00000  Uiso   1.00
C375   C     0.74845   0.67715   0.14231   0.00000  Uiso   1.00
C376   C     0.75239   0.98948   0.19068   0.00000  Uiso   1.00
C377   C     0.66454   0.83101   0.16682   0.00000  Uiso   1.00
C378   C     0.83549   0.83638   0.16671   0.00000  Uiso   1.00
C379   C     0.91238   0.88520   0.19254   0.00000  Uiso   1.00
C380   C     0.58775   0.78256   0.14228   0.00000  Uiso   1.00
C381   C     0.88395   0.83827   0.16635   0.00000  Uiso   1.00
C382   C     0.61616   0.82949   0.16765   0.00000  Uiso   1.00
C383   C     0.90178   0.79080   0.14226   0.00000  Uiso   1.00
C384   C     0.59845   0.87682   0.19256   0.00000  Uiso   1.00
C385   C     0.94784   0.78841   0.14443   0.00000  Uiso   1.00
C386   C     0.55240   0.87921   0.19085   0.00000  Uiso   1.00
C387   C     0.97678   0.83501   0.16763   0.00000  Uiso   1.00
C388   C     0.52341   0.83268   0.16737   0.00000  Uiso   1.00
C389   C     0.95922   0.88386   0.19107   0.00000  Uiso   1.00
C390   C     0.54097   0.78384   0.14392   0.00000  Uiso   1.00
C391   C     0.96533   0.73985   0.12407   0.00000  Uiso   1.00
C392   C     0.53499   0.92768   0.21190   0.00000  Uiso   1.00
Cu393  Cu    0.75500   0.83913   0.22813   0.00000  Uiso   1.00
Cu394  Cu    0.74499   0.82754   0.10521   0.00000  Uiso   1.00
H395   H     0.87950   0.75526   0.12282   0.00000  Uiso   1.00
H396   H     0.62078   0.91219   0.21246   0.00000  Uiso   1.00
H397   H     0.94351   0.70341   0.10887   0.00000  Uiso   1.00
H398   H     0.55693   0.96397   0.22803   0.00000  Uiso   1.00
H399   H     0.52309   0.69887   0.10786   0.00000  Uiso   1.00
H400   H     0.97732   0.96881   0.22742   0.00000  Uiso   1.00
H401   H     0.74445   0.98630   0.09584   0.00000  Uiso   1.00
H402   H     0.75685   0.68035   0.23700   0.00000  Uiso   1.00
N403   N     0.73744   0.81881   0.01284   0.00000  Uiso   1.00
N404   N     0.76255   0.84786   0.32049   0.00000  Uiso   1.00
O405   O     0.75325   0.76204   0.20659   0.00000  Uiso   1.00
O406   O     0.74674   0.90462   0.12674   0.00000  Uiso   1.00
O407   O     0.74480   0.75226   0.10279   0.00000  Uiso   1.00
O408   O     0.75520   0.91441   0.23055   0.00000  Uiso   1.00
O409   O     0.68935   0.83821   0.21857   0.00000  Uiso   1.00
O410   O     0.81064   0.82845   0.11476   0.00000  Uiso   1.00
O411   O     0.68090   0.82843   0.11477   0.00000  Uiso   1.00
O412   O     0.81910   0.83824   0.21857   0.00000  Uiso   1.00
C413   C     0.89375   0.93570   0.21979   0.00000  Uiso   1.00
C414   C     0.87124   0.96327   0.18210   0.00000  Uiso   1.00
C415   C     0.85824   0.68037   0.20624   0.00000  Uiso   1.00
C416   C     0.86661   0.70320   0.26860   0.00000  Uiso   1.00
C417   C     0.88887   0.67594   0.30668   0.00000  Uiso   1.00
C418   C     0.90302   0.95935   0.28238   0.00000  Uiso   1.00
H419   H     0.86494   0.94614   0.13399   0.00000  Uiso   1.00
H420   H     0.84144   0.70165   0.17664   0.00000  Uiso   1.00
H421   H     0.85600   0.74201   0.28734   0.00000  Uiso   1.00
H422   H     0.89519   0.69361   0.02157   0.00000  Uiso   1.00
H423   H     0.92122   0.93915   0.31215   0.00000  Uiso   1.00
C424   C     0.60664   0.73200   0.11679   0.00000  Uiso   1.00
C425   C     0.59973   0.70846   0.05399   0.00000  Uiso   1.00
C426   C     0.61456   0.99198   0.03108   0.00000  Uiso   1.00
C427   C     0.63577   0.96523   0.07068   0.00000  Uiso   1.00
C428   C     0.64206   0.98823   0.13321   0.00000  Uiso   1.00
C429   C     0.62769   0.70481   0.15621   0.00000  Uiso   1.00
H430   H     0.58282   0.72859   0.02301   0.00000  Uiso   1.00
H431   H     0.60976   0.97418   0.31605   0.00000  Uiso   1.00
H432   H     0.64727   0.92671   0.05297   0.00000  Uiso   1.00
H433   H     0.65838   0.96754   0.16383   0.00000  Uiso   1.00
H434   H     0.63189   0.72197   0.20471   0.00000  Uiso   1.00
O435   O     0.70499   0.78804   0.30650   0.00000  Uiso   1.00
C436   C     0.69699   0.74026   0.32392   0.00000  Uiso   1.00
H437   H     0.67984   0.74661   0.03259   0.00000  Uiso   1.00
H438   H     0.72832   0.72065   0.32791   0.00000  Uiso   1.00
H439   H     0.67426   0.71260   0.28788   0.00000  Uiso   1.00
O440   O     0.78623   0.88852   0.02786   0.00000  Uiso   1.00
C441   C     0.82573   0.90168   0.00405   0.00000  Uiso   1.00
H442   H     0.81902   0.91810   0.29721   0.00000  Uiso   1.00
H443   H     0.84650   0.86755   0.32863   0.00000  Uiso   1.00
H444   H     0.84542   0.93427   0.03790   0.00000  Uiso   1.00
C445   C     0.24880   0.06665   0.48433   0.00000  Uiso   1.00
C446   C     0.25149   0.26668   0.51560   0.00000  Uiso   1.00
C447   C     0.01127   0.07081   0.45705   0.00000  Uiso   1.00
C448   C     0.48903   0.26348   0.54500   0.00000  Uiso   1.00
C449   C     0.24845   0.01048   0.47565   0.00000  Uiso   1.00
C450   C     0.25239   0.32282   0.52401   0.00000  Uiso   1.00
C451   C     0.16454   0.16435   0.50015   0.00000  Uiso   1.00
C452   C     0.33549   0.16971   0.50004   0.00000  Uiso   1.00
C453   C     0.41238   0.21853   0.52587   0.00000  Uiso   1.00
C454   C     0.08775   0.11590   0.47562   0.00000  Uiso   1.00
C455   C     0.38395   0.17161   0.49968   0.00000  Uiso   1.00
C456   C     0.11616   0.16283   0.50099   0.00000  Uiso   1.00
C457   C     0.40178   0.12414   0.47560   0.00000  Uiso   1.00
C458   C     0.09845   0.21016   0.52589   0.00000  Uiso   1.00
C459   C     0.44784   0.12174   0.47777   0.00000  Uiso   1.00
C460   C     0.05240   0.21254   0.52418   0.00000  Uiso   1.00
C461   C     0.47678   0.16835   0.50097   0.00000  Uiso   1.00
C462   C     0.02341   0.16601   0.50070   0.00000  Uiso   1.00
C463   C     0.45922   0.21719   0.52441   0.00000  Uiso   1.00
C464   C     0.04097   0.11717   0.47725   0.00000  Uiso   1.00
C465   C     0.46533   0.07318   0.45740   0.00000  Uiso   1.00
C466   C     0.03499   0.26101   0.54523   0.00000  Uiso   1.00
Cu467  Cu    0.25500   0.17246   0.56146   0.00000  Uiso   1.00
Cu468  Cu    0.24499   0.16087   0.43854   0.00000  Uiso   1.00
H469   H     0.37950   0.08859   0.45615   0.00000  Uiso   1.00
H470   H     0.12078   0.24552   0.54579   0.00000  Uiso   1.00
H471   H     0.44351   0.03675   0.44220   0.00000  Uiso   1.00
H472   H     0.05693   0.29730   0.56137   0.00000  Uiso   1.00
H473   H     0.02309   0.03220   0.44119   0.00000  Uiso   1.00
H474   H     0.47732   0.30215   0.56076   0.00000  Uiso   1.00
H475   H     0.24445   0.31964   0.42917   0.00000  Uiso   1.00
H476   H     0.25685   0.01368   0.57033   0.00000  Uiso   1.00
N477   N     0.23744   0.15214   0.34617   0.00000  Uiso   1.00
N478   N     0.26255   0.18119   0.65383   0.00000  Uiso   1.00
O479   O     0.25325   0.09538   0.53992   0.00000  Uiso   1.00
O480   O     0.24674   0.23796   0.46008   0.00000  Uiso   1.00
O481   O     0.24480   0.08559   0.43612   0.00000  Uiso   1.00
O482   O     0.25520   0.24774   0.56388   0.00000  Uiso   1.00
O483   O     0.18935   0.17155   0.55191   0.00000  Uiso   1.00
O484   O     0.31064   0.16179   0.44809   0.00000  Uiso   1.00
O485   O     0.18090   0.16176   0.44810   0.00000  Uiso   1.00
O486   O     0.31910   0.17157   0.55190   0.00000  Uiso   1.00
C487   C     0.39375   0.26904   0.55312   0.00000  Uiso   1.00
C488   C     0.37124   0.29660   0.51544   0.00000  Uiso   1.00
C489   C     0.35824   0.01371   0.53957   0.00000  Uiso   1.00
C490   C     0.36661   0.03654   0.60194   0.00000  Uiso   1.00
C491   C     0.38887   0.00928   0.64001   0.00000  Uiso   1.00
C492   C     0.40302   0.29269   0.61571   0.00000  Uiso   1.00
H493   H     0.36494   0.27947   0.46733   0.00000  Uiso   1.00
H494   H     0.34144   0.03499   0.50997   0.00000  Uiso   1.00
H495   H     0.35600   0.07535   0.62067   0.00000  Uiso   1.00
H496   H     0.39519   0.02694   0.35490   0.00000  Uiso   1.00
H497   H     0.42122   0.27249   0.64548   0.00000  Uiso   1.00
C498   C     0.10664   0.06533   0.45012   0.00000  Uiso   1.00
C499   C     0.09973   0.04179   0.38732   0.00000  Uiso   1.00
C500   C     0.11456   0.32531   0.36442   0.00000  Uiso   1.00
C501   C     0.13577   0.29856   0.40401   0.00000  Uiso   1.00
C502   C     0.14206   0.32156   0.46654   0.00000  Uiso   1.00
C503   C     0.12769   0.03815   0.48954   0.00000  Uiso   1.00
H504   H     0.08282   0.06193   0.35635   0.00000  Uiso   1.00
H505   H     0.10976   0.30751   0.64938   0.00000  Uiso   1.00
H506   H     0.14727   0.26004   0.38630   0.00000  Uiso   1.00
H507   H     0.15838   0.30088   0.49716   0.00000  Uiso   1.00
H508   H     0.13189   0.05530   0.53804   0.00000  Uiso   1.00
O509   O     0.20499   0.12137   0.63984   0.00000  Uiso   1.00
C510   C     0.19699   0.07360   0.65725   0.00000  Uiso   1.00
H511   H     0.17984   0.07994   0.36592   0.00000  Uiso   1.00
H512   H     0.22832   0.05398   0.66124   0.00000  Uiso   1.00
H513   H     0.17426   0.04594   0.62121   0.00000  Uiso   1.00
O514   O     0.28623   0.22186   0.36119   0.00000  Uiso   1.00
C515   C     0.32573   0.23502   0.33739   0.00000  Uiso   1.00
H516   H     0.31902   0.25143   0.63054   0.00000  Uiso   1.00
H517   H     0.34650   0.20088   0.66197   0.00000  Uiso   1.00
H518   H     0.34542   0.26760   0.37124   0.00000  Uiso   1.00
C519   C     0.74880   0.06665   0.48433   0.00000  Uiso   1.00
C520   C     0.75149   0.26668   0.51560   0.00000  Uiso   1.00
C521   C     0.51127   0.07081   0.45705   0.00000  Uiso   1.00
C522   C     0.98903   0.26348   0.54500   0.00000  Uiso   1.00
C523   C     0.74845   0.01048   0.47565   0.00000  Uiso   1.00
C524   C     0.75239   0.32282   0.52401   0.00000  Uiso   1.00
C525   C     0.66454   0.16435   0.50015   0.00000  Uiso   1.00
C526   C     0.83549   0.16971   0.50004   0.00000  Uiso   1.00
C527   C     0.91238   0.21853   0.52587   0.00000  Uiso   1.00
C528   C     0.58775   0.11590   0.47562   0.00000  Uiso   1.00
C529   C     0.88395   0.17161   0.49968   0.00000  Uiso   1.00
C530   C     0.61616   0.16283   0.50099   0.00000  Uiso   1.00
C531   C     0.90178   0.12414   0.47560   0.00000  Uiso   1.00
C532   C     0.59845   0.21016   0.52589   0.00000  Uiso   1.00
C533   C     0.94784   0.12174   0.47777   0.00000  Uiso   1.00
C534   C     0.55240   0.21254   0.52418   0.00000  Uiso   1.00
C535   C     0.97678   0.16835   0.50097   0.00000  Uiso   1.00
C536   C     0.52341   0.16601   0.50070   0.00000  Uiso   1.00
C537   C     0.95922   0.21719   0.52441   0.00000  Uiso   1.00
C538   C     0.54097   0.11717   0.47725   0.00000  Uiso   1.00
C539   C     0.96533   0.07318   0.45740   0.00000  Uiso   1.00
C540   C     0.53499   0.26101   0.54523   0.00000  Uiso   1.00
Cu541  Cu    0.75500   0.17246   0.56146   0.00000  Uiso   1.00
Cu542  Cu    0.74499   0.16087   0.43854   0.00000  Uiso   1.00
H543   H     0.87950   0.08859   0.45615   0.00000  Uiso   1.00
H544   H     0.62078   0.24552   0.54579   0.00000  Uiso   1.00
H545   H     0.94351   0.03675   0.44220   0.00000  Uiso   1.00
H546   H     0.55693   0.29730   0.56137   0.00000  Uiso   1.00
H547   H     0.52309   0.03220   0.44119   0.00000  Uiso   1.00
H548   H     0.97732   0.30215   0.56076   0.00000  Uiso   1.00
H549   H     0.74445   0.31964   0.42917   0.00000  Uiso   1.00
H550   H     0.75685   0.01368   0.57033   0.00000  Uiso   1.00
N551   N     0.73744   0.15214   0.34617   0.00000  Uiso   1.00
N552   N     0.76255   0.18119   0.65383   0.00000  Uiso   1.00
O553   O     0.75325   0.09538   0.53992   0.00000  Uiso   1.00
O554   O     0.74674   0.23796   0.46008   0.00000  Uiso   1.00
O555   O     0.74480   0.08559   0.43612   0.00000  Uiso   1.00
O556   O     0.75520   0.24774   0.56388   0.00000  Uiso   1.00
O557   O     0.68935   0.17155   0.55191   0.00000  Uiso   1.00
O558   O     0.81064   0.16179   0.44809   0.00000  Uiso   1.00
O559   O     0.68090   0.16176   0.44810   0.00000  Uiso   1.00
O560   O     0.81910   0.17157   0.55190   0.00000  Uiso   1.00
C561   C     0.89375   0.26904   0.55312   0.00000  Uiso   1.00
C562   C     0.87124   0.29660   0.51544   0.00000  Uiso   1.00
C563   C     0.85824   0.01371   0.53957   0.00000  Uiso   1.00
C564   C     0.86661   0.03654   0.60194   0.00000  Uiso   1.00
C565   C     0.88887   0.00928   0.64001   0.00000  Uiso   1.00
C566   C     0.90302   0.29269   0.61571   0.00000  Uiso   1.00
H567   H     0.86494   0.27947   0.46733   0.00000  Uiso   1.00
H568   H     0.84144   0.03499   0.50997   0.00000  Uiso   1.00
H569   H     0.85600   0.07535   0.62067   0.00000  Uiso   1.00
H570   H     0.89519   0.02694   0.35490   0.00000  Uiso   1.00
H571   H     0.92122   0.27249   0.64548   0.00000  Uiso   1.00
C572   C     0.60664   0.06533   0.45012   0.00000  Uiso   1.00
C573   C     0.59973   0.04179   0.38732   0.00000  Uiso   1.00
C574   C     0.61456   0.32531   0.36442   0.00000  Uiso   1.00
C575   C     0.63577   0.29856   0.40401   0.00000  Uiso   1.00
C576   C     0.64206   0.32156   0.46654   0.00000  Uiso   1.00
C577   C     0.62769   0.03815   0.48954   0.00000  Uiso   1.00
H578   H     0.58282   0.06193   0.35635   0.00000  Uiso   1.00
H579   H     0.60976   0.30751   0.64938   0.00000  Uiso   1.00
H580   H     0.64727   0.26004   0.38630   0.00000  Uiso   1.00
H581   H     0.65838   0.30088   0.49716   0.00000  Uiso   1.00
H582   H     0.63189   0.05530   0.53804   0.00000  Uiso   1.00
O583   O     0.70499   0.12137   0.63984   0.00000  Uiso   1.00
C584   C     0.69699   0.07360   0.65725   0.00000  Uiso   1.00
H585   H     0.67984   0.07994   0.36592   0.00000  Uiso   1.00
H586   H     0.72832   0.05398   0.66124   0.00000  Uiso   1.00
H587   H     0.67426   0.04594   0.62121   0.00000  Uiso   1.00
O588   O     0.78623   0.22186   0.36119   0.00000  Uiso   1.00
C589   C     0.82573   0.23502   0.33739   0.00000  Uiso   1.00
H590   H     0.81902   0.25143   0.63054   0.00000  Uiso   1.00
H591   H     0.84650   0.20088   0.66197   0.00000  Uiso   1.00
H592   H     0.84542   0.26760   0.37124   0.00000  Uiso   1.00
C593   C     0.24880   0.39998   0.48433   0.00000  Uiso   1.00
C594   C     0.25149   0.60001   0.51560   0.00000  Uiso   1.00
C595   C     0.01127   0.40414   0.45705   0.00000  Uiso   1.00
C596   C     0.48903   0.59682   0.54500   0.00000  Uiso   1.00
C597   C     0.24845   0.34381   0.47565   0.00000  Uiso   1.00
C598   C     0.25239   0.65615   0.52401   0.00000  Uiso   1.00
C599   C     0.16454   0.49768   0.50015   0.00000  Uiso   1.00
C600   C     0.33549   0.50305   0.50004   0.00000  Uiso   1.00
C601   C     0.41238   0.55187   0.52587   0.00000  Uiso   1.00
C602   C     0.08775   0.44923   0.47562   0.00000  Uiso   1.00
C603   C     0.38395   0.50494   0.49968   0.00000  Uiso   1.00
C604   C     0.11616   0.49616   0.50099   0.00000  Uiso   1.00
C605   C     0.40178   0.45747   0.47560   0.00000  Uiso   1.00
C606   C     0.09845   0.54349   0.52589   0.00000  Uiso   1.00
C607   C     0.44784   0.45508   0.47777   0.00000  Uiso   1.00
C608   C     0.05240   0.54587   0.52418   0.00000  Uiso   1.00
C609   C     0.47678   0.50168   0.50097   0.00000  Uiso   1.00
C610   C     0.02341   0.49934   0.50070   0.00000  Uiso   1.00
C611   C     0.45922   0.55052   0.52441   0.00000  Uiso   1.00
C612   C     0.04097   0.45050   0.47725   0.00000  Uiso   1.00
C613   C     0.46533   0.40652   0.45740   0.00000  Uiso   1.00
C614   C     0.03499   0.59434   0.54523   0.00000  Uiso   1.00
Cu615  Cu    0.25500   0.50579   0.56146   0.00000  Uiso   1.00
Cu616  Cu    0.24499   0.49421   0.43854   0.00000  Uiso   1.00
H617   H     0.37950   0.42192   0.45615   0.00000  Uiso   1.00
H618   H     0.12078   0.57885   0.54579   0.00000  Uiso   1.00
H619   H     0.44351   0.37008   0.44220   0.00000  Uiso   1.00
H620   H     0.05693   0.63064   0.56137   0.00000  Uiso   1.00
H621   H     0.02309   0.36554   0.44119   0.00000  Uiso   1.00
H622   H     0.47732   0.63548   0.56076   0.00000  Uiso   1.00
H623   H     0.24445   0.65297   0.42917   0.00000  Uiso   1.00
H624   H     0.25685   0.34702   0.57033   0.00000  Uiso   1.00
N625   N     0.23744   0.48547   0.34617   0.00000  Uiso   1.00
N626   N     0.26255   0.51453   0.65383   0.00000  Uiso   1.00
O627   O     0.25325   0.42871   0.53992   0.00000  Uiso   1.00
O628   O     0.24674   0.57129   0.46008   0.00000  Uiso   1.00
O629   O     0.24480   0.41892   0.43612   0.00000  Uiso   1.00
O630   O     0.25520   0.58108   0.56388   0.00000  Uiso   1.00
O631   O     0.18935   0.50488   0.55191   0.00000  Uiso   1.00
O632   O     0.31064   0.49512   0.44809   0.00000  Uiso   1.00
O633   O     0.18090   0.49510   0.44810   0.00000  Uiso   1.00
O634   O     0.31910   0.50490   0.55190   0.00000  Uiso   1.00
C635   C     0.39375   0.60237   0.55312   0.00000  Uiso   1.00
C636   C     0.37124   0.62994   0.51544   0.00000  Uiso   1.00
C637   C     0.35824   0.34704   0.53957   0.00000  Uiso   1.00
C638   C     0.36661   0.36987   0.60194   0.00000  Uiso   1.00
C639   C     0.38887   0.34261   0.64001   0.00000  Uiso   1.00
C640   C     0.40302   0.62602   0.61571   0.00000  Uiso   1.00
H641   H     0.36494   0.61280   0.46733   0.00000  Uiso   1.00
H642   H     0.34144   0.36832   0.50997   0.00000  Uiso   1.00
H643   H     0.35600   0.40868   0.62067   0.00000  Uiso   1.00
H644   H     0.39519   0.36027   0.35490   0.00000  Uiso   1.00
H645   H     0.42122   0.60582   0.64548   0.00000  Uiso   1.00
C646   C     0.10664   0.39867   0.45012   0.00000  Uiso   1.00
C647   C     0.09973   0.37512   0.38732   0.00000  Uiso   1.00
C648   C     0.11456   0.65865   0.36442   0.00000  Uiso   1.00
C649   C     0.13577   0.63190   0.40401   0.00000  Uiso   1.00
C650   C     0.14206   0.65489   0.46654   0.00000  Uiso   1.00
C651   C     0.12769   0.37148   0.48954   0.00000  Uiso   1.00
H652   H     0.08282   0.39526   0.35635   0.00000  Uiso   1.00
H653   H     0.10976   0.64085   0.64938   0.00000  Uiso   1.00
H654   H     0.14727   0.59337   0.38630   0.00000  Uiso   1.00
H655   H     0.15838   0.63421   0.49716   0.00000  Uiso   1.00
H656   H     0.13189   0.38863   0.53804   0.00000  Uiso   1.00
O657   O     0.20499   0.45470   0.63984   0.00000  Uiso   1.00
C658   C     0.19699   0.40693   0.65725   0.00000  Uiso   1.00
H659   H     0.17984   0.41327   0.36592   0.00000  Uiso   1.00
H660   H     0.22832   0.38732   0.66124   0.00000  Uiso   1.00
H661   H     0.17426   0.37927   0.62121   0.00000  Uiso   1.00
O662   O     0.28623   0.55519   0.36119   0.00000  Uiso   1.00
C663   C     0.32573   0.56835   0.33739   0.00000  Uiso   1.00
H664   H     0.31902   0.58477   0.63054   0.00000  Uiso   1.00
H665   H     0.34650   0.53422   0.66197   0.00000  Uiso   1.00
H666   H     0.34542   0.60094   0.37124   0.00000  Uiso   1.00
C667   C     0.74880   0.39998   0.48433   0.00000  Uiso   1.00
C668   C     0.75149   0.60001   0.51560   0.00000  Uiso   1.00
C669   C     0.51127   0.40414   0.45705   0.00000  Uiso   1.00
C670   C     0.98903   0.59682   0.54500   0.00000  Uiso   1.00
C671   C     0.74845   0.34381   0.47565   0.00000  Uiso   1.00
C672   C     0.75239   0.65615   0.52401   0.00000  Uiso   1.00
C673   C     0.66454   0.49768   0.50015   0.00000  Uiso   1.00
C674   C     0.83549   0.50305   0.50004   0.00000  Uiso   1.00
C675   C     0.91238   0.55187   0.52587   0.00000  Uiso   1.00
C676   C     0.58775   0.44923   0.47562   0.00000  Uiso   1.00
C677   C     0.88395   0.50494   0.49968   0.00000  Uiso   1.00
C678   C     0.61616   0.49616   0.50099   0.00000  Uiso   1.00
C679   C     0.90178   0.45747   0.47560   0.00000  Uiso   1.00
C680   C     0.59845   0.54349   0.52589   0.00000  Uiso   1.00
C681   C     0.94784   0.45508   0.47777   0.00000  Uiso   1.00
C682   C     0.55240   0.54587   0.52418   0.00000  Uiso   1.00
C683   C     0.97678   0.50168   0.50097   0.00000  Uiso   1.00
C684   C     0.52341   0.49934   0.50070   0.00000  Uiso   1.00
C685   C     0.95922   0.55052   0.52441   0.00000  Uiso   1.00
C686   C     0.54097   0.45050   0.47725   0.00000  Uiso   1.00
C687   C     0.96533   0.40652   0.45740   0.00000  Uiso   1.00
C688   C     0.53499   0.59434   0.54523   0.00000  Uiso   1.00
Cu689  Cu    0.75500   0.50579   0.56146   0.00000  Uiso   1.00
Cu690  Cu    0.74499   0.49421   0.43854   0.00000  Uiso   1.00
H691   H     0.87950   0.42192   0.45615   0.00000  Uiso   1.00
H692   H     0.62078   0.57885   0.54579   0.00000  Uiso   1.00
H693   H     0.94351   0.37008   0.44220   0.00000  Uiso   1.00
H694   H     0.55693   0.63064   0.56137   0.00000  Uiso   1.00
H695   H     0.52309   0.36554   0.44119   0.00000  Uiso   1.00
H696   H     0.97732   0.63548   0.56076   0.00000  Uiso   1.00
H697   H     0.74445   0.65297   0.42917   0.00000  Uiso   1.00
H698   H     0.75685   0.34702   0.57033   0.00000  Uiso   1.00
N699   N     0.73744   0.48547   0.34617   0.00000  Uiso   1.00
N700   N     0.76255   0.51453   0.65383   0.00000  Uiso   1.00
O701   O     0.75325   0.42871   0.53992   0.00000  Uiso   1.00
O702   O     0.74674   0.57129   0.46008   0.00000  Uiso   1.00
O703   O     0.74480   0.41892   0.43612   0.00000  Uiso   1.00
O704   O     0.75520   0.58108   0.56388   0.00000  Uiso   1.00
O705   O     0.68935   0.50488   0.55191   0.00000  Uiso   1.00
O706   O     0.81064   0.49512   0.44809   0.00000  Uiso   1.00
O707   O     0.68090   0.49510   0.44810   0.00000  Uiso   1.00
O708   O     0.81910   0.50490   0.55190   0.00000  Uiso   1.00
C709   C     0.89375   0.60237   0.55312   0.00000  Uiso   1.00
C710   C     0.87124   0.62994   0.51544   0.00000  Uiso   1.00
C711   C     0.85824   0.34704   0.53957   0.00000  Uiso   1.00
C712   C     0.86661   0.36987   0.60194   0.00000  Uiso   1.00
C713   C     0.88887   0.34261   0.64001   0.00000  Uiso   1.00
C714   C     0.90302   0.62602   0.61571   0.00000  Uiso   1.00
H715   H     0.86494   0.61280   0.46733   0.00000  Uiso   1.00
H716   H     0.84144   0.36832   0.50997   0.00000  Uiso   1.00
H717   H     0.85600   0.40868   0.62067   0.00000  Uiso   1.00
H718   H     0.89519   0.36027   0.35490   0.00000  Uiso   1.00
H719   H     0.92122   0.60582   0.64548   0.00000  Uiso   1.00
C720   C     0.60664   0.39867   0.45012   0.00000  Uiso   1.00
C721   C     0.59973   0.37512   0.38732   0.00000  Uiso   1.00
C722   C     0.61456   0.65865   0.36442   0.00000  Uiso   1.00
C723   C     0.63577   0.63190   0.40401   0.00000  Uiso   1.00
C724   C     0.64206   0.65489   0.46654   0.00000  Uiso   1.00
C725   C     0.62769   0.37148   0.48954   0.00000  Uiso   1.00
H726   H     0.58282   0.39526   0.35635   0.00000  Uiso   1.00
H727   H     0.60976   0.64085   0.64938   0.00000  Uiso   1.00
H728   H     0.64727   0.59337   0.38630   0.00000  Uiso   1.00
H729   H     0.65838   0.63421   0.49716   0.00000  Uiso   1.00
H730   H     0.63189   0.38863   0.53804   0.00000  Uiso   1.00
O731   O     0.70499   0.45470   0.63984   0.00000  Uiso   1.00
C732   C     0.69699   0.40693   0.65725   0.00000  Uiso   1.00
H733   H     0.67984   0.41327   0.36592   0.00000  Uiso   1.00
H734   H     0.72832   0.38732   0.66124   0.00000  Uiso   1.00
H735   H     0.67426   0.37927   0.62121   0.00000  Uiso   1.00
O736   O     0.78623   0.55519   0.36119   0.00000  Uiso   1.00
C737   C     0.82573   0.56835   0.33739   0.00000  Uiso   1.00
H738   H     0.81902   0.58477   0.63054   0.00000  Uiso   1.00
H739   H     0.84650   0.53422   0.66197   0.00000  Uiso   1.00
H740   H     0.84542   0.60094   0.37124   0.00000  Uiso   1.00
C741   C     0.24880   0.73332   0.48433   0.00000  Uiso   1.00
C742   C     0.25149   0.93334   0.51560   0.00000  Uiso   1.00
C743   C     0.01127   0.73747   0.45705   0.00000  Uiso   1.00
C744   C     0.48903   0.93015   0.54500   0.00000  Uiso   1.00
C745   C     0.24845   0.67715   0.47565   0.00000  Uiso   1.00
C746   C     0.25239   0.98948   0.52401   0.00000  Uiso   1.00
C747   C     0.16454   0.83101   0.50015   0.00000  Uiso   1.00
C748   C     0.33549   0.83638   0.50004   0.00000  Uiso   1.00
C749   C     0.41238   0.88520   0.52587   0.00000  Uiso   1.00
C750   C     0.08775   0.78256   0.47562   0.00000  Uiso   1.00
C751   C     0.38395   0.83827   0.49968   0.00000  Uiso   1.00
C752   C     0.11616   0.82949   0.50099   0.00000  Uiso   1.00
C753   C     0.40178   0.79080   0.47560   0.00000  Uiso   1.00
C754   C     0.09845   0.87682   0.52589   0.00000  Uiso   1.00
C755   C     0.44784   0.78841   0.47777   0.00000  Uiso   1.00
C756   C     0.05240   0.87921   0.52418   0.00000  Uiso   1.00
C757   C     0.47678   0.83501   0.50097   0.00000  Uiso   1.00
C758   C     0.02341   0.83268   0.50070   0.00000  Uiso   1.00
C759   C     0.45922   0.88386   0.52441   0.00000  Uiso   1.00
C760   C     0.04097   0.78384   0.47725   0.00000  Uiso   1.00
C761   C     0.46533   0.73985   0.45740   0.00000  Uiso   1.00
C762   C     0.03499   0.92768   0.54523   0.00000  Uiso   1.00
Cu763  Cu    0.25500   0.83913   0.56146   0.00000  Uiso   1.00
Cu764  Cu    0.24499   0.82754   0.43854   0.00000  Uiso   1.00
H765   H     0.37950   0.75526   0.45615   0.00000  Uiso   1.00
H766   H     0.12078   0.91219   0.54579   0.00000  Uiso   1.00
H767   H     0.44351   0.70341   0.44220   0.00000  Uiso   1.00
H768   H     0.05693   0.96397   0.56137   0.00000  Uiso   1.00
H769   H     0.02309   0.69887   0.44119   0.00000  Uiso   1.00
H770   H     0.47732   0.96881   0.56076   0.00000  Uiso   1.00
H771   H     0.24445   0.98630   0.42917   0.00000  Uiso   1.00
H772   H     0.25685   0.68035   0.57033   0.00000  Uiso   1.00
N773   N     0.23744   0.81881   0.34617   0.00000  Uiso   1.00
N774   N     0.26255   0.84786   0.65383   0.00000  Uiso   1.00
O775   O     0.25325   0.76204   0.53992   0.00000  Uiso   1.00
O776   O     0.24674   0.90462   0.46008   0.00000  Uiso   1.00
O777   O     0.24480   0.75226   0.43612   0.00000  Uiso   1.00
O778   O     0.25520   0.91441   0.56388   0.00000  Uiso   1.00
O779   O     0.18935   0.83821   0.55191   0.00000  Uiso   1.00
O780   O     0.31064   0.82845   0.44809   0.00000  Uiso   1.00
O781   O     0.18090   0.82843   0.44810   0.00000  Uiso   1.00
O782   O     0.31910   0.83824   0.55190   0.00000  Uiso   1.00
C783   C     0.39375   0.93570   0.55312   0.00000  Uiso   1.00
C784   C     0.37124   0.96327   0.51544   0.00000  Uiso   1.00
C785   C     0.35824   0.68037   0.53957   0.00000  Uiso   1.00
C786   C     0.36661   0.70320   0.60194   0.00000  Uiso   1.00
C787   C     0.38887   0.67594   0.64001   0.00000  Uiso   1.00
C788   C     0.40302   0.95935   0.61571   0.00000  Uiso   1.00
H789   H     0.36494   0.94614   0.46733   0.00000  Uiso   1.00
H790   H     0.34144   0.70165   0.50997   0.00000  Uiso   1.00
H791   H     0.35600   0.74201   0.62067   0.00000  Uiso   1.00
H792   H     0.39519   0.69361   0.35490   0.00000  Uiso   1.00
H793   H     0.42122   0.93915   0.64548   0.00000  Uiso   1.00
C794   C     0.10664   0.73200   0.45012   0.00000  Uiso   1.00
C795   C     0.09973   0.70846   0.38732   0.00000  Uiso   1.00
C796   C     0.11456   0.99198   0.36442   0.00000  Uiso   1.00
C797   C     0.13577   0.96523   0.40401   0.00000  Uiso   1.00
C798   C     0.14206   0.98823   0.46654   0.00000  Uiso   1.00
C799   C     0.12769   0.70481   0.48954   0.00000  Uiso   1.00
H800   H     0.08282   0.72859   0.35635   0.00000  Uiso   1.00
H801   H     0.10976   0.97418   0.64938   0.00000  Uiso   1.00
H802   H     0.14727   0.92671   0.38630   0.00000  Uiso   1.00
H803   H     0.15838   0.96754   0.49716   0.00000  Uiso   1.00
H804   H     0.13189   0.72197   0.53804   0.00000  Uiso   1.00
O805   O     0.20499   0.78804   0.63984   0.00000  Uiso   1.00
C806   C     0.19699   0.74026   0.65725   0.00000  Uiso   1.00
H807   H     0.17984   0.74661   0.36592   0.00000  Uiso   1.00
H808   H     0.22832   0.72065   0.66124   0.00000  Uiso   1.00
H809   H     0.17426   0.71260   0.62121   0.00000  Uiso   1.00
O810   O     0.28623   0.88852   0.36119   0.00000  Uiso   1.00
C811   C     0.32573   0.90168   0.33739   0.00000  Uiso   1.00
H812   H     0.31902   0.91810   0.63054   0.00000  Uiso   1.00
H813   H     0.34650   0.86755   0.66197   0.00000  Uiso   1.00
H814   H     0.34542   0.93427   0.37124   0.00000  Uiso   1.00
C815   C     0.74880   0.73332   0.48433   0.00000  Uiso   1.00
C816   C     0.75149   0.93334   0.51560   0.00000  Uiso   1.00
C817   C     0.51127   0.73747   0.45705   0.00000  Uiso   1.00
C818   C     0.98903   0.93015   0.54500   0.00000  Uiso   1.00
C819   C     0.74845   0.67715   0.47565   0.00000  Uiso   1.00
C820   C     0.75239   0.98948   0.52401   0.00000  Uiso   1.00
C821   C     0.66454   0.83101   0.50015   0.00000  Uiso   1.00
C822   C     0.83549   0.83638   0.50004   0.00000  Uiso   1.00
C823   C     0.91238   0.88520   0.52587   0.00000  Uiso   1.00
C824   C     0.58775   0.78256   0.47562   0.00000  Uiso   1.00
C825   C     0.88395   0.83827   0.49968   0.00000  Uiso   1.00
C826   C     0.61616   0.82949   0.50099   0.00000  Uiso   1.00
C827   C     0.90178   0.79080   0.47560   0.00000  Uiso   1.00
C828   C     0.59845   0.87682   0.52589   0.00000  Uiso   1.00
C829   C     0.94784   0.78841   0.47777   0.00000  Uiso   1.00
C830   C     0.55240   0.87921   0.52418   0.00000  Uiso   1.00
C831   C     0.97678   0.83501   0.50097   0.00000  Uiso   1.00
C832   C     0.52341   0.83268   0.50070   0.00000  Uiso   1.00
C833   C     0.95922   0.88386   0.52441   0.00000  Uiso   1.00
C834   C     0.54097   0.78384   0.47725   0.00000  Uiso   1.00
C835   C     0.96533   0.73985   0.45740   0.00000  Uiso   1.00
C836   C     0.53499   0.92768   0.54523   0.00000  Uiso   1.00
Cu837  Cu    0.75500   0.83913   0.56146   0.00000  Uiso   1.00
Cu838  Cu    0.74499   0.82754   0.43854   0.00000  Uiso   1.00
H839   H     0.87950   0.75526   0.45615   0.00000  Uiso   1.00
H840   H     0.62078   0.91219   0.54579   0.00000  Uiso   1.00
H841   H     0.94351   0.70341   0.44220   0.00000  Uiso   1.00
H842   H     0.55693   0.96397   0.56137   0.00000  Uiso   1.00
H843   H     0.52309   0.69887   0.44119   0.00000  Uiso   1.00
H844   H     0.97732   0.96881   0.56076   0.00000  Uiso   1.00
H845   H     0.74445   0.98630   0.42917   0.00000  Uiso   1.00
H846   H     0.75685   0.68035   0.57033   0.00000  Uiso   1.00
N847   N     0.73744   0.81881   0.34617   0.00000  Uiso   1.00
N848   N     0.76255   0.84786   0.65383   0.00000  Uiso   1.00
O849   O     0.75325   0.76204   0.53992   0.00000  Uiso   1.00
O850   O     0.74674   0.90462   0.46008   0.00000  Uiso   1.00
O851   O     0.74480   0.75226   0.43612   0.00000  Uiso   1.00
O852   O     0.75520   0.91441   0.56388   0.00000  Uiso   1.00
O853   O     0.68935   0.83821   0.55191   0.00000  Uiso   1.00
O854   O     0.81064   0.82845   0.44809   0.00000  Uiso   1.00
O855   O     0.68090   0.82843   0.44810   0.00000  Uiso   1.00
O856   O     0.81910   0.83824   0.55190   0.00000  Uiso   1.00
C857   C     0.89375   0.93570   0.55312   0.00000  Uiso   1.00
C858   C     0.87124   0.96327   0.51544   0.00000  Uiso   1.00
C859   C     0.85824   0.68037   0.53957   0.00000  Uiso   1.00
C860   C     0.86661   0.70320   0.60194   0.00000  Uiso   1.00
C861   C     0.88887   0.67594   0.64001   0.00000  Uiso   1.00
C862   C     0.90302   0.95935   0.61571   0.00000  Uiso   1.00
H863   H     0.86494   0.94614   0.46733   0.00000  Uiso   1.00
H864   H     0.84144   0.70165   0.50997   0.00000  Uiso   1.00
H865   H     0.85600   0.74201   0.62067   0.00000  Uiso   1.00
H866   H     0.89519   0.69361   0.35490   0.00000  Uiso   1.00
H867   H     0.92122   0.93915   0.64548   0.00000  Uiso   1.00
C868   C     0.60664   0.73200   0.45012   0.00000  Uiso   1.00
C869   C     0.59973   0.70846   0.38732   0.00000  Uiso   1.00
C870   C     0.61456   0.99198   0.36442   0.00000  Uiso   1.00
C871   C     0.63577   0.96523   0.40401   0.00000  Uiso   1.00
C872   C     0.64206   0.98823   0.46654   0.00000  Uiso   1.00
C873   C     0.62769   0.70481   0.48954   0.00000  Uiso   1.00
H874   H     0.58282   0.72859   0.35635   0.00000  Uiso   1.00
H875   H     0.60976   0.97418   0.64938   0.00000  Uiso   1.00
H876   H     0.64727   0.92671   0.38630   0.00000  Uiso   1.00
H877   H     0.65838   0.96754   0.49716   0.00000  Uiso   1.00
H878   H     0.63189   0.72197   0.53804   0.00000  Uiso   1.00
O879   O     0.70499   0.78804   0.63984   0.00000  Uiso   1.00
C880   C     0.69699   0.74026   0.65725   0.00000  Uiso   1.00
H881   H     0.67984   0.74661   0.36592   0.00000  Uiso   1.00
H882   H     0.72832   0.72065   0.66124   0.00000  Uiso   1.00
H883   H     0.67426   0.71260   0.62121   0.00000  Uiso   1.00
O884   O     0.78623   0.88852   0.36119   0.00000  Uiso   1.00
C885   C     0.82573   0.90168   0.33739   0.00000  Uiso   1.00
H886   H     0.81902   0.91810   0.63054   0.00000  Uiso   1.00
H887   H     0.84650   0.86755   0.66197   0.00000  Uiso   1.00
H888   H     0.84542   0.93427   0.37124   0.00000  Uiso   1.00
C889   C     0.24880   0.06665   0.81766   0.00000  Uiso   1.00
C890   C     0.25149   0.26668   0.84894   0.00000  Uiso   1.00
C891   C     0.01127   0.07081   0.79039   0.00000  Uiso   1.00
C892   C     0.48903   0.26348   0.87834   0.00000  Uiso   1.00
C893   C     0.24845   0.01048   0.80898   0.00000  Uiso   1.00
C894   C     0.25239   0.32282   0.85735   0.00000  Uiso   1.00
C895   C     0.16454   0.16435   0.83348   0.00000  Uiso   1.00
C896   C     0.33549   0.16971   0.83338   0.00000  Uiso   1.00
C897   C     0.41238   0.21853   0.85920   0.00000  Uiso   1.00
C898   C     0.08775   0.11590   0.80895   0.00000  Uiso   1.00
C899   C     0.38395   0.17161   0.83301   0.00000  Uiso   1.00
C900   C     0.11616   0.16283   0.83432   0.00000  Uiso   1.00
C901   C     0.40178   0.12414   0.80893   0.00000  Uiso   1.00
C902   C     0.09845   0.21016   0.85923   0.00000  Uiso   1.00
C903   C     0.44784   0.12174   0.81110   0.00000  Uiso   1.00
C904   C     0.05240   0.21254   0.85751   0.00000  Uiso   1.00
C905   C     0.47678   0.16835   0.83430   0.00000  Uiso   1.00
C906   C     0.02341   0.16601   0.83403   0.00000  Uiso   1.00
C907   C     0.45922   0.21719   0.85774   0.00000  Uiso   1.00
C908   C     0.04097   0.11717   0.81059   0.00000  Uiso   1.00
C909   C     0.46533   0.07318   0.79073   0.00000  Uiso   1.00
C910   C     0.03499   0.26101   0.87857   0.00000  Uiso   1.00
Cu911  Cu    0.25500   0.17246   0.89479   0.00000  Uiso   1.00
Cu912  Cu    0.24499   0.16087   0.77187   0.00000  Uiso   1.00
H913   H     0.37950   0.08859   0.78949   0.00000  Uiso   1.00
H914   H     0.12078   0.24552   0.87912   0.00000  Uiso   1.00
H915   H     0.44351   0.03675   0.77553   0.00000  Uiso   1.00
H916   H     0.05693   0.29730   0.89470   0.00000  Uiso   1.00
H917   H     0.02309   0.03220   0.77452   0.00000  Uiso   1.00
H918   H     0.47732   0.30215   0.89409   0.00000  Uiso   1.00
H919   H     0.24445   0.31964   0.76251   0.00000  Uiso   1.00
H920   H     0.25685   0.01368   0.90366   0.00000  Uiso   1.00
N921   N     0.23744   0.15214   0.67951   0.00000  Uiso   1.00
N922   N     0.26255   0.18119   0.98716   0.00000  Uiso   1.00
O923   O     0.25325   0.09538   0.87326   0.00000  Uiso   1.00
O924   O     0.24674   0.23796   0.79341   0.00000  Uiso   1.00
O925   O     0.24480   0.08559   0.76945   0.00000  Uiso   1.00
O926   O     0.25520   0.24774   0.89721   0.00000  Uiso   1.00
O927   O     0.18935   0.17155   0.88524   0.00000  Uiso   1.00
O928   O     0.31064   0.16179   0.78143   0.00000  Uiso   1.00
O929   O     0.18090   0.16176   0.78143   0.00000  Uiso   1.00
O930   O     0.31910   0.17157   0.88523   0.00000  Uiso   1.00
C931   C     0.39375   0.26904   0.88646   0.00000  Uiso   1.00
C932   C     0.37124   0.29660   0.84877   0.00000  Uiso   1.00
C933   C     0.35824   0.01371   0.87291   0.00000  Uiso   1.00
C934   C     0.36661   0.03654   0.93527   0.00000  Uiso   1.00
C935   C     0.38887   0.00928   0.97334   0.00000  Uiso   1.00
C936   C     0.40302   0.29269   0.94904   0.00000  Uiso   1.00
H937   H     0.36494   0.27947   0.80066   0.00000  Uiso   1.00
H938   H     0.34144   0.03499   0.84330   0.00000  Uiso   1.00
H939   H     0.35600   0.07535   0.95400   0.00000  Uiso   1.00
H940   H     0.39519   0.02694   0.68824   0.00000  Uiso   1.00
H941   H     0.42122   0.27249   0.97881   0.00000  Uiso   1.00
C942   C     0.10664   0.06533   0.78346   0.00000  Uiso   1.00
C943   C     0.09973   0.04179   0.72065   0.00000  Uiso   1.00
C944   C     0.11456   0.32531   0.69775   0.00000  Uiso   1.00
C945   C     0.13577   0.29856   0.73734   0.00000  Uiso   1.00
C946   C     0.14206   0.32156   0.79987   0.00000  Uiso   1.00
C947   C     0.12769   0.03815   0.82287   0.00000  Uiso   1.00
H948   H     0.08282   0.06193   0.68968   0.00000  Uiso   1.00
H949   H     0.10976   0.30751   0.98271   0.00000  Uiso   1.00
H950   H     0.14727   0.26004   0.71964   0.00000  Uiso   1.00
H951   H     0.15838   0.30088   0.83050   0.00000  Uiso   1.00
H952   H     0.13189   0.05530   0.87137   0.00000  Uiso   1.00
O953   O     0.20499   0.12137   0.97317   0.00000  Uiso   1.00
C954   C     0.19699   0.07360   0.99059   0.00000  Uiso   1.00
H955   H     0.17984   0.07994   0.69926   0.00000  Uiso   1.00
H956   H     0.22832   0.05398   0.99457   0.00000  Uiso   1.00
H957   H     0.17426   0.04594   0.95455   0.00000  Uiso   1.00
O958   O     0.28623   0.22186   0.69453   0.00000  Uiso   1.00
C959   C     0.32573   0.23502   0.67072   0.00000  Uiso   1.00
H960   H     0.31902   0.25143   0.96388   0.00000  Uiso   1.00
H961   H     0.34650   0.20088   0.99530   0.00000  Uiso   1.00
H962   H     0.34542   0.26760   0.70457   0.00000  Uiso   1.00
C963   C     0.74880   0.06665   0.81766   0.00000  Uiso   1.00
C964   C     0.75149   0.26668   0.84894   0.00000  Uiso   1.00
C965   C     0.51127   0.07081   0.79039   0.00000  Uiso   1.00
C966   C     0.98903   0.26348   0.87834   0.00000  Uiso   1.00
C967   C     0.74845   0.01048   0.80898   0.00000  Uiso   1.00
C968   C     0.75239   0.32282   0.85735   0.00000  Uiso   1.00
C969   C     0.66454   0.16435   0.83348   0.00000  Uiso   1.00
C970   C     0.83549   0.16971   0.83338   0.00000  Uiso   1.00
C971   C     0.91238   0.21853   0.85920   0.00000  Uiso   1.00
C972   C     0.58775   0.11590   0.80895   0.00000  Uiso   1.00
C973   C     0.88395   0.17161   0.83301   0.00000  Uiso   1.00
C974   C     0.61616   0.16283   0.83432   0.00000  Uiso   1.00
C975   C     0.90178   0.12414   0.80893   0.00000  Uiso   1.00
C976   C     0.59845   0.21016   0.85923   0.00000  Uiso   1.00
C977   C     0.94784   0.12174   0.81110   0.00000  Uiso   1.00
C978   C     0.55240   0.21254   0.85751   0.00000  Uiso   1.00
C979   C     0.97678   0.16835   0.83430   0.00000  Uiso   1.00
C980   C     0.52341   0.16601   0.83403   0.00000  Uiso   1.00
C981   C     0.95922   0.21719   0.85774   0.00000  Uiso   1.00
C982   C     0.54097   0.11717   0.81059   0.00000  Uiso   1.00
C983   C     0.96533   0.07318   0.79073   0.00000  Uiso   1.00
C984   C     0.53499   0.26101   0.87857   0.00000  Uiso   1.00
Cu985  Cu    0.75500   0.17246   0.89479   0.00000  Uiso   1.00
Cu986  Cu    0.74499   0.16087   0.77187   0.00000  Uiso   1.00
H987   H     0.87950   0.08859   0.78949   0.00000  Uiso   1.00
H988   H     0.62078   0.24552   0.87912   0.00000  Uiso   1.00
H989   H     0.94351   0.03675   0.77553   0.00000  Uiso   1.00
H990   H     0.55693   0.29730   0.89470   0.00000  Uiso   1.00
H991   H     0.52309   0.03220   0.77452   0.00000  Uiso   1.00
H992   H     0.97732   0.30215   0.89409   0.00000  Uiso   1.00
H993   H     0.74445   0.31964   0.76251   0.00000  Uiso   1.00
H994   H     0.75685   0.01368   0.90366   0.00000  Uiso   1.00
N995   N     0.73744   0.15214   0.67951   0.00000  Uiso   1.00
N996   N     0.76255   0.18119   0.98716   0.00000  Uiso   1.00
O997   O     0.75325   0.09538   0.87326   0.00000  Uiso   1.00
O998   O     0.74674   0.23796   0.79341   0.00000  Uiso   1.00
O999   O     0.74480   0.08559   0.76945   0.00000  Uiso   1.00
O1000  O     0.75520   0.24774   0.89721   0.00000  Uiso   1.00
O1001  O     0.68935   0.17155   0.88524   0.00000  Uiso   1.00
O1002  O     0.81064   0.16179   0.78143   0.00000  Uiso   1.00
O1003  O     0.68090   0.16176   0.78143   0.00000  Uiso   1.00
O1004  O     0.81910   0.17157   0.88523   0.00000  Uiso   1.00
C1005  C     0.89375   0.26904   0.88646   0.00000  Uiso   1.00
C1006  C     0.87124   0.29660   0.84877   0.00000  Uiso   1.00
C1007  C     0.85824   0.01371   0.87291   0.00000  Uiso   1.00
C1008  C     0.86661   0.03654   0.93527   0.00000  Uiso   1.00
C1009  C     0.88887   0.00928   0.97334   0.00000  Uiso   1.00
C1010  C     0.90302   0.29269   0.94904   0.00000  Uiso   1.00
H1011  H     0.86494   0.27947   0.80066   0.00000  Uiso   1.00
H1012  H     0.84144   0.03499   0.84330   0.00000  Uiso   1.00
H1013  H     0.85600   0.07535   0.95400   0.00000  Uiso   1.00
H1014  H     0.89519   0.02694   0.68824   0.00000  Uiso   1.00
H1015  H     0.92122   0.27249   0.97881   0.00000  Uiso   1.00
C1016  C     0.60664   0.06533   0.78346   0.00000  Uiso   1.00
C1017  C     0.59973   0.04179   0.72065   0.00000  Uiso   1.00
C1018  C     0.61456   0.32531   0.69775   0.00000  Uiso   1.00
C1019  C     0.63577   0.29856   0.73734   0.00000  Uiso   1.00
C1020  C     0.64206   0.32156   0.79987   0.00000  Uiso   1.00
C1021  C     0.62769   0.03815   0.82287   0.00000  Uiso   1.00
H1022  H     0.58282   0.06193   0.68968   0.00000  Uiso   1.00
H1023  H     0.60976   0.30751   0.98271   0.00000  Uiso   1.00
H1024  H     0.64727   0.26004   0.71964   0.00000  Uiso   1.00
H1025  H     0.65838   0.30088   0.83050   0.00000  Uiso   1.00
H1026  H     0.63189   0.05530   0.87137   0.00000  Uiso   1.00
O1027  O     0.70499   0.12137   0.97317   0.00000  Uiso   1.00
C1028  C     0.69699   0.07360   0.99059   0.00000  Uiso   1.00
H1029  H     0.67984   0.07994   0.69926   0.00000  Uiso   1.00
H1030  H     0.72832   0.05398   0.99457   0.00000  Uiso   1.00
H1031  H     0.67426   0.04594   0.95455   0.00000  Uiso   1.00
O1032  O     0.78623   0.22186   0.69453   0.00000  Uiso   1.00
C1033  C     0.82573   0.23502   0.67072   0.00000  Uiso   1.00
H1034  H     0.81902   0.25143   0.96388   0.00000  Uiso   1.00
H1035  H     0.84650   0.20088   0.99530   0.00000  Uiso   1.00
H1036  H     0.84542   0.26760   0.70457   0.00000  Uiso   1.00
C1037  C     0.24880   0.39998   0.81766   0.00000  Uiso   1.00
C1038  C     0.25149   0.60001   0.84894   0.00000  Uiso   1.00
C1039  C     0.01127   0.40414   0.79039   0.00000  Uiso   1.00
C1040  C     0.48903   0.59682   0.87834   0.00000  Uiso   1.00
C1041  C     0.24845   0.34381   0.80898   0.00000  Uiso   1.00
C1042  C     0.25239   0.65615   0.85735   0.00000  Uiso   1.00
C1043  C     0.16454   0.49768   0.83348   0.00000  Uiso   1.00
C1044  C     0.33549   0.50305   0.83338   0.00000  Uiso   1.00
C1045  C     0.41238   0.55187   0.85920   0.00000  Uiso   1.00
C1046  C     0.08775   0.44923   0.80895   0.00000  Uiso   1.00
C1047  C     0.38395   0.50494   0.83301   0.00000  Uiso   1.00
C1048  C     0.11616   0.49616   0.83432   0.00000  Uiso   1.00
C1049  C     0.40178   0.45747   0.80893   0.00000  Uiso   1.00
C1050  C     0.09845   0.54349   0.85923   0.00000  Uiso   1.00
C1051  C     0.44784   0.45508   0.81110   0.00000  Uiso   1.00
C1052  C     0.05240   0.54587   0.85751   0.00000  Uiso   1.00
C1053  C     0.47678   0.50168   0.83430   0.00000  Uiso   1.00
C1054  C     0.02341   0.49934   0.83403   0.00000  Uiso   1.00
C1055  C     0.45922   0.55052   0.85774   0.00000  Uiso   1.00
C1056  C     0.04097   0.45050   0.81059   0.00000  Uiso   1.00
C1057  C     0.46533   0.40652   0.79073   0.00000  Uiso   1.00
C1058  C     0.03499   0.59434   0.87857   0.00000  Uiso   1.00
Cu1059 Cu    0.25500   0.50579   0.89479   0.00000  Uiso   1.00
Cu1060 Cu    0.24499   0.49421   0.77187   0.00000  Uiso   1.00
H1061  H     0.37950   0.42192   0.78949   0.00000  Uiso   1.00
H1062  H     0.12078   0.57885   0.87912   0.00000  Uiso   1.00
H1063  H     0.44351   0.37008   0.77553   0.00000  Uiso   1.00
H1064  H     0.05693   0.63064   0.89470   0.00000  Uiso   1.00
H1065  H     0.02309   0.36554   0.77452   0.00000  Uiso   1.00
H1066  H     0.47732   0.63548   0.89409   0.00000  Uiso   1.00
H1067  H     0.24445   0.65297   0.76251   0.00000  Uiso   1.00
H1068  H     0.25685   0.34702   0.90366   0.00000  Uiso   1.00
N1069  N     0.23744   0.48547   0.67951   0.00000  Uiso   1.00
N1070  N     0.26255   0.51453   0.98716   0.00000  Uiso   1.00
O1071  O     0.25325   0.42871   0.87326   0.00000  Uiso   1.00
O1072  O     0.24674   0.57129   0.79341   0.00000  Uiso   1.00
O1073  O     0.24480   0.41892   0.76945   0.00000  Uiso   1.00
O1074  O     0.25520   0.58108   0.89721   0.00000  Uiso   1.00
O1075  O     0.18935   0.50488   0.88524   0.00000  Uiso   1.00
O1076  O     0.31064   0.49512   0.78143   0.00000  Uiso   1.00
O1077  O     0.18090   0.49510   0.78143   0.00000  Uiso   1.00
O1078  O     0.31910   0.50490   0.88523   0.00000  Uiso   1.00
C1079  C     0.39375   0.60237   0.88646   0.00000  Uiso   1.00
C1080  C     0.37124   0.62994   0.84877   0.00000  Uiso   1.00
C1081  C     0.35824   0.34704   0.87291   0.00000  Uiso   1.00
C1082  C     0.36661   0.36987   0.93527   0.00000  Uiso   1.00
C1083  C     0.38887   0.34261   0.97334   0.00000  Uiso   1.00
C1084  C     0.40302   0.62602   0.94904   0.00000  Uiso   1.00
H1085  H     0.36494   0.61280   0.80066   0.00000  Uiso   1.00
H1086  H     0.34144   0.36832   0.84330   0.00000  Uiso   1.00
H1087  H     0.35600   0.40868   0.95400   0.00000  Uiso   1.00
H1088  H     0.39519   0.36027   0.68824   0.00000  Uiso   1.00
H1089  H     0.42122   0.60582   0.97881   0.00000  Uiso   1.00
C1090  C     0.10664   0.39867   0.78346   0.00000  Uiso   1.00
C1091  C     0.09973   0.37512   0.72065   0.00000  Uiso   1.00
C1092  C     0.11456   0.65865   0.69775   0.00000  Uiso   1.00
C1093  C     0.13577   0.63190   0.73734   0.00000  Uiso   1.00
C1094  C     0.14206   0.65489   0.79987   0.00000  Uiso   1.00
C1095  C     0.12769   0.37148   0.82287   0.00000  Uiso   1.00
H1096  H     0.08282   0.39526   0.68968   0.00000  Uiso   1.00
H1097  H     0.10976   0.64085   0.98271   0.00000  Uiso   1.00
H1098  H     0.14727   0.59337   0.71964   0.00000  Uiso   1.00
H1099  H     0.15838   0.63421   0.83050   0.00000  Uiso   1.00
H1100  H     0.13189   0.38863   0.87137   0.00000  Uiso   1.00
O1101  O     0.20499   0.45470   0.97317   0.00000  Uiso   1.00
C1102  C     0.19699   0.40693   0.99059   0.00000  Uiso   1.00
H1103  H     0.17984   0.41327   0.69926   0.00000  Uiso   1.00
H1104  H     0.22832   0.38732   0.99457   0.00000  Uiso   1.00
H1105  H     0.17426   0.37927   0.95455   0.00000  Uiso   1.00
O1106  O     0.28623   0.55519   0.69453   0.00000  Uiso   1.00
C1107  C     0.32573   0.56835   0.67072   0.00000  Uiso   1.00
H1108  H     0.31902   0.58477   0.96388   0.00000  Uiso   1.00
H1109  H     0.34650   0.53422   0.99530   0.00000  Uiso   1.00
H1110  H     0.34542   0.60094   0.70457   0.00000  Uiso   1.00
C1111  C     0.74880   0.39998   0.81766   0.00000  Uiso   1.00
C1112  C     0.75149   0.60001   0.84894   0.00000  Uiso   1.00
C1113  C     0.51127   0.40414   0.79039   0.00000  Uiso   1.00
C1114  C     0.98903   0.59682   0.87834   0.00000  Uiso   1.00
C1115  C     0.74845   0.34381   0.80898   0.00000  Uiso   1.00
C1116  C     0.75239   0.65615   0.85735   0.00000  Uiso   1.00
C1117  C     0.66454   0.49768   0.83348   0.00000  Uiso   1.00
C1118  C     0.83549   0.50305   0.83338   0.00000  Uiso   1.00
C1119  C     0.91238   0.55187   0.85920   0.00000  Uiso   1.00
C1120  C     0.58775   0.44923   0.80895   0.00000  Uiso   1.00
C1121  C     0.88395   0.50494   0.83301   0.00000  Uiso   1.00
C1122  C     0.61616   0.49616   0.83432   0.00000  Uiso   1.00
C1123  C     0.90178   0.45747   0.80893   0.00000  Uiso   1.00
C1124  C     0.59845   0.54349   0.85923   0.00000  Uiso   1.00
C1125  C     0.94784   0.45508   0.81110   0.00000  Uiso   1.00
C1126  C     0.55240   0.54587   0.85751   0.00000  Uiso   1.00
C1127  C     0.97678   0.50168   0.83430   0.00000  Uiso   1.00
C1128  C     0.52341   0.49934   0.83403   0.00000  Uiso   1.00
C1129  C     0.95922   0.55052   0.85774   0.00000  Uiso   1.00
C1130  C     0.54097   0.45050   0.81059   0.00000  Uiso   1.00
C1131  C     0.96533   0.40652   0.79073   0.00000  Uiso   1.00
C1132  C     0.53499   0.59434   0.87857   0.00000  Uiso   1.00
Cu1133 Cu    0.75500   0.50579   0.89479   0.00000  Uiso   1.00
Cu1134 Cu    0.74499   0.49421   0.77187   0.00000  Uiso   1.00
H1135  H     0.87950   0.42192   0.78949   0.00000  Uiso   1.00
H1136  H     0.62078   0.57885   0.87912   0.00000  Uiso   1.00
H1137  H     0.94351   0.37008   0.77553   0.00000  Uiso   1.00
H1138  H     0.55693   0.63064   0.89470   0.00000  Uiso   1.00
H1139  H     0.52309   0.36554   0.77452   0.00000  Uiso   1.00
H1140  H     0.97732   0.63548   0.89409   0.00000  Uiso   1.00
H1141  H     0.74445   0.65297   0.76251   0.00000  Uiso   1.00
H1142  H     0.75685   0.34702   0.90366   0.00000  Uiso   1.00
N1143  N     0.73744   0.48547   0.67951   0.00000  Uiso   1.00
N1144  N     0.76255   0.51453   0.98716   0.00000  Uiso   1.00
O1145  O     0.75325   0.42871   0.87326   0.00000  Uiso   1.00
O1146  O     0.74674   0.57129   0.79341   0.00000  Uiso   1.00
O1147  O     0.74480   0.41892   0.76945   0.00000  Uiso   1.00
O1148  O     0.75520   0.58108   0.89721   0.00000  Uiso   1.00
O1149  O     0.68935   0.50488   0.88524   0.00000  Uiso   1.00
O1150  O     0.81064   0.49512   0.78143   0.00000  Uiso   1.00
O1151  O     0.68090   0.49510   0.78143   0.00000  Uiso   1.00
O1152  O     0.81910   0.50490   0.88523   0.00000  Uiso   1.00
C1153  C     0.89375   0.60237   0.88646   0.00000  Uiso   1.00
C1154  C     0.87124   0.62994   0.84877   0.00000  Uiso   1.00
C1155  C     0.85824   0.34704   0.87291   0.00000  Uiso   1.00
C1156  C     0.86661   0.36987   0.93527   0.00000  Uiso   1.00
C1157  C     0.88887   0.34261   0.97334   0.00000  Uiso   1.00
C1158  C     0.90302   0.62602   0.94904   0.00000  Uiso   1.00
H1159  H     0.86494   0.61280   0.80066   0.00000  Uiso   1.00
H1160  H     0.84144   0.36832   0.84330   0.00000  Uiso   1.00
H1161  H     0.85600   0.40868   0.95400   0.00000  Uiso   1.00
H1162  H     0.89519   0.36027   0.68824   0.00000  Uiso   1.00
H1163  H     0.92122   0.60582   0.97881   0.00000  Uiso   1.00
C1164  C     0.60664   0.39867   0.78346   0.00000  Uiso   1.00
C1165  C     0.59973   0.37512   0.72065   0.00000  Uiso   1.00
C1166  C     0.61456   0.65865   0.69775   0.00000  Uiso   1.00
C1167  C     0.63577   0.63190   0.73734   0.00000  Uiso   1.00
C1168  C     0.64206   0.65489   0.79987   0.00000  Uiso   1.00
C1169  C     0.62769   0.37148   0.82287   0.00000  Uiso   1.00
H1170  H     0.58282   0.39526   0.68968   0.00000  Uiso   1.00
H1171  H     0.60976   0.64085   0.98271   0.00000  Uiso   1.00
H1172  H     0.64727   0.59337   0.71964   0.00000  Uiso   1.00
H1173  H     0.65838   0.63421   0.83050   0.00000  Uiso   1.00
H1174  H     0.63189   0.38863   0.87137   0.00000  Uiso   1.00
O1175  O     0.70499   0.45470   0.97317   0.00000  Uiso   1.00
C1176  C     0.69699   0.40693   0.99059   0.00000  Uiso   1.00
H1177  H     0.67984   0.41327   0.69926   0.00000  Uiso   1.00
H1178  H     0.72832   0.38732   0.99457   0.00000  Uiso   1.00
H1179  H     0.67426   0.37927   0.95455   0.00000  Uiso   1.00
O1180  O     0.78623   0.55519   0.69453   0.00000  Uiso   1.00
C1181  C     0.82573   0.56835   0.67072   0.00000  Uiso   1.00
H1182  H     0.81902   0.58477   0.96388   0.00000  Uiso   1.00
H1183  H     0.84650   0.53422   0.99530   0.00000  Uiso   1.00
H1184  H     0.84542   0.60094   0.70457   0.00000  Uiso   1.00
C1185  C     0.24880   0.73332   0.81766   0.00000  Uiso   1.00
C1186  C     0.25149   0.93334   0.84894   0.00000  Uiso   1.00
C1187  C     0.01127   0.73747   0.79039   0.00000  Uiso   1.00
C1188  C     0.48903   0.93015   0.87834   0.00000  Uiso   1.00
C1189  C     0.24845   0.67715   0.80898   0.00000  Uiso   1.00
C1190  C     0.25239   0.98948   0.85735   0.00000  Uiso   1.00
C1191  C     0.16454   0.83101   0.83348   0.00000  Uiso   1.00
C1192  C     0.33549   0.83638   0.83338   0.00000  Uiso   1.00
C1193  C     0.41238   0.88520   0.85920   0.00000  Uiso   1.00
C1194  C     0.08775   0.78256   0.80895   0.00000  Uiso   1.00
C1195  C     0.38395   0.83827   0.83301   0.00000  Uiso   1.00
C1196  C     0.11616   0.82949   0.83432   0.00000  Uiso   1.00
C1197  C     0.40178   0.79080   0.80893   0.00000  Uiso   1.00
C1198  C     0.09845   0.87682   0.85923   0.00000  Uiso   1.00
C1199  C     0.44784   0.78841   0.81110   0.00000  Uiso   1.00
C1200  C     0.05240   0.87921   0.85751   0.00000  Uiso   1.00
C1201  C     0.47678   0.83501   0.83430   0.00000  Uiso   1.00
C1202  C     0.02341   0.83268   0.83403   0.00000  Uiso   1.00
C1203  C     0.45922   0.88386   0.85774   0.00000  Uiso   1.00
C1204  C     0.04097   0.78384   0.81059   0.00000  Uiso   1.00
C1205  C     0.46533   0.73985   0.79073   0.00000  Uiso   1.00
C1206  C     0.03499   0.92768   0.87857   0.00000  Uiso   1.00
Cu1207 Cu    0.25500   0.83913   0.89479   0.00000  Uiso   1.00
Cu1208 Cu    0.24499   0.82754   0.77187   0.00000  Uiso   1.00
H1209  H     0.37950   0.75526   0.78949   0.00000  Uiso   1.00
H1210  H     0.12078   0.91219   0.87912   0.00000  Uiso   1.00
H1211  H     0.44351   0.70341   0.77553   0.00000  Uiso   1.00
H1212  H     0.05693   0.96397   0.89470   0.00000  Uiso   1.00
H1213  H     0.02309   0.69887   0.77452   0.00000  Uiso   1.00
H1214  H     0.47732   0.96881   0.89409   0.00000  Uiso   1.00
H1215  H     0.24445   0.98630   0.76251   0.00000  Uiso   1.00
H1216  H     0.25685   0.68035   0.90366   0.00000  Uiso   1.00
N1217  N     0.23744   0.81881   0.67951   0.00000  Uiso   1.00
N1218  N     0.26255   0.84786   0.98716   0.00000  Uiso   1.00
O1219  O     0.25325   0.76204   0.87326   0.00000  Uiso   1.00
O1220  O     0.24674   0.90462   0.79341   0.00000  Uiso   1.00
O1221  O     0.24480   0.75226   0.76945   0.00000  Uiso   1.00
O1222  O     0.25520   0.91441   0.89721   0.00000  Uiso   1.00
O1223  O     0.18935   0.83821   0.88524   0.00000  Uiso   1.00
O1224  O     0.31064   0.82845   0.78143   0.00000  Uiso   1.00
O1225  O     0.18090   0.82843   0.78143   0.00000  Uiso   1.00
O1226  O     0.31910   0.83824   0.88523   0.00000  Uiso   1.00
C1227  C     0.39375   0.93570   0.88646   0.00000  Uiso   1.00
C1228  C     0.37124   0.96327   0.84877   0.00000  Uiso   1.00
C1229  C     0.35824   0.68037   0.87291   0.00000  Uiso   1.00
C1230  C     0.36661   0.70320   0.93527   0.00000  Uiso   1.00
C1231  C     0.38887   0.67594   0.97334   0.00000  Uiso   1.00
C1232  C     0.40302   0.95935   0.94904   0.00000  Uiso   1.00
H1233  H     0.36494   0.94614   0.80066   0.00000  Uiso   1.00
H1234  H     0.34144   0.70165   0.84330   0.00000  Uiso   1.00
H1235  H     0.35600   0.74201   0.95400   0.00000  Uiso   1.00
H1236  H     0.39519   0.69361   0.68824   0.00000  Uiso   1.00
H1237  H     0.42122   0.93915   0.97881   0.00000  Uiso   1.00
C1238  C     0.10664   0.73200   0.78346   0.00000  Uiso   1.00
C1239  C     0.09973   0.70846   0.72065   0.00000  Uiso   1.00
C1240  C     0.11456   0.99198   0.69775   0.00000  Uiso   1.00
C1241  C     0.13577   0.96523   0.73734   0.00000  Uiso   1.00
C1242  C     0.14206   0.98823   0.79987   0.00000  Uiso   1.00
C1243  C     0.12769   0.70481   0.82287   0.00000  Uiso   1.00
H1244  H     0.08282   0.72859   0.68968   0.00000  Uiso   1.00
H1245  H     0.10976   0.97418   0.98271   0.00000  Uiso   1.00
H1246  H     0.14727   0.92671   0.71964   0.00000  Uiso   1.00
H1247  H     0.15838   0.96754   0.83050   0.00000  Uiso   1.00
H1248  H     0.13189   0.72197   0.87137   0.00000  Uiso   1.00
O1249  O     0.20499   0.78804   0.97317   0.00000  Uiso   1.00
C1250  C     0.19699   0.74026   0.99059   0.00000  Uiso   1.00
H1251  H     0.17984   0.74661   0.69926   0.00000  Uiso   1.00
H1252  H     0.22832   0.72065   0.99457   0.00000  Uiso   1.00
H1253  H     0.17426   0.71260   0.95455   0.00000  Uiso   1.00
O1254  O     0.28623   0.88852   0.69453   0.00000  Uiso   1.00
C1255  C     0.32573   0.90168   0.67072   0.00000  Uiso   1.00
H1256  H     0.31902   0.91810   0.96388   0.00000  Uiso   1.00
H1257  H     0.34650   0.86755   0.99530   0.00000  Uiso   1.00
H1258  H     0.34542   0.93427   0.70457   0.00000  Uiso   1.00
C1259  C     0.74880   0.73332   0.81766   0.00000  Uiso   1.00
C1260  C     0.75149   0.93334   0.84894   0.00000  Uiso   1.00
C1261  C     0.51127   0.73747   0.79039   0.00000  Uiso   1.00
C1262  C     0.98903   0.93015   0.87834   0.00000  Uiso   1.00
C1263  C     0.74845   0.67715   0.80898   0.00000  Uiso   1.00
C1264  C     0.75239   0.98948   0.85735   0.00000  Uiso   1.00
C1265  C     0.66454   0.83101   0.83348   0.00000  Uiso   1.00
C1266  C     0.83549   0.83638   0.83338   0.00000  Uiso   1.00
C1267  C     0.91238   0.88520   0.85920   0.00000  Uiso   1.00
C1268  C     0.58775   0.78256   0.80895   0.00000  Uiso   1.00
C1269  C     0.88395   0.83827   0.83301   0.00000  Uiso   1.00
C1270  C     0.61616   0.82949   0.83432   0.00000  Uiso   1.00
C1271  C     0.90178   0.79080   0.80893   0.00000  Uiso   1.00
C1272  C     0.59845   0.87682   0.85923   0.00000  Uiso   1.00
C1273  C     0.94784   0.78841   0.81110   0.00000  Uiso   1.00
C1274  C     0.55240   0.87921   0.85751   0.00000  Uiso   1.00
C1275  C     0.97678   0.83501   0.83430   0.00000  Uiso   1.00
C1276  C     0.52341   0.83268   0.83403   0.00000  Uiso   1.00
C1277  C     0.95922   0.88386   0.85774   0.00000  Uiso   1.00
C1278  C     0.54097   0.78384   0.81059   0.00000  Uiso   1.00
C1279  C     0.96533   0.73985   0.79073   0.00000  Uiso   1.00
C1280  C     0.53499   0.92768   0.87857   0.00000  Uiso   1.00
Cu1281 Cu    0.75500   0.83913   0.89479   0.00000  Uiso   1.00
Cu1282 Cu    0.74499   0.82754   0.77187   0.00000  Uiso   1.00
H1283  H     0.87950   0.75526   0.78949   0.00000  Uiso   1.00
H1284  H     0.62078   0.91219   0.87912   0.00000  Uiso   1.00
H1285  H     0.94351   0.70341   0.77553   0.00000  Uiso   1.00
H1286  H     0.55693   0.96397   0.89470   0.00000  Uiso   1.00
H1287  H     0.52309   0.69887   0.77452   0.00000  Uiso   1.00
H1288  H     0.97732   0.96881   0.89409   0.00000  Uiso   1.00
H1289  H     0.74445   0.98630   0.76251   0.00000  Uiso   1.00
H1290  H     0.75685   0.68035   0.90366   0.00000  Uiso   1.00
N1291  N     0.73744   0.81881   0.67951   0.00000  Uiso   1.00
N1292  N     0.76255   0.84786   0.98716   0.00000  Uiso   1.00
O1293  O     0.75325   0.76204   0.87326   0.00000  Uiso   1.00
O1294  O     0.74674   0.90462   0.79341   0.00000  Uiso   1.00
O1295  O     0.74480   0.75226   0.76945   0.00000  Uiso   1.00
O1296  O     0.75520   0.91441   0.89721   0.00000  Uiso   1.00
O1297  O     0.68935   0.83821   0.88524   0.00000  Uiso   1.00
O1298  O     0.81064   0.82845   0.78143   0.00000  Uiso   1.00
O1299  O     0.68090   0.82843   0.78143   0.00000  Uiso   1.00
O1300  O     0.81910   0.83824   0.88523   0.00000  Uiso   1.00
C1301  C     0.89375   0.93570   0.88646   0.00000  Uiso   1.00
C1302  C     0.87124   0.96327   0.84877   0.00000  Uiso   1.00
C1303  C     0.85824   0.68037   0.87291   0.00000  Uiso   1.00
C1304  C     0.86661   0.70320   0.93527   0.00000  Uiso   1.00
C1305  C     0.88887   0.67594   0.97334   0.00000  Uiso   1.00
C1306  C     0.90302   0.95935   0.94904   0.00000  Uiso   1.00
H1307  H     0.86494   0.94614   0.80066   0.00000  Uiso   1.00
H1308  H     0.84144   0.70165   0.84330   0.00000  Uiso   1.00
H1309  H     0.85600   0.74201   0.95400   0.00000  Uiso   1.00
H1310  H     0.89519   0.69361   0.68824   0.00000  Uiso   1.00
H1311  H     0.92122   0.93915   0.97881   0.00000  Uiso   1.00
C1312  C     0.60664   0.73200   0.78346   0.00000  Uiso   1.00
C1313  C     0.59973   0.70846   0.72065   0.00000  Uiso   1.00
C1314  C     0.61456   0.99198   0.69775   0.00000  Uiso   1.00
C1315  C     0.63577   0.96523   0.73734   0.00000  Uiso   1.00
C1316  C     0.64206   0.98823   0.79987   0.00000  Uiso   1.00
C1317  C     0.62769   0.70481   0.82287   0.00000  Uiso   1.00
H1318  H     0.58282   0.72859   0.68968   0.00000  Uiso   1.00
H1319  H     0.60976   0.97418   0.98271   0.00000  Uiso   1.00
H1320  H     0.64727   0.92671   0.71964   0.00000  Uiso   1.00
H1321  H     0.65838   0.96754   0.83050   0.00000  Uiso   1.00
H1322  H     0.63189   0.72197   0.87137   0.00000  Uiso   1.00
O1323  O     0.70499   0.78804   0.97317   0.00000  Uiso   1.00
C1324  C     0.69699   0.74026   0.99059   0.00000  Uiso   1.00
H1325  H     0.67984   0.74661   0.69926   0.00000  Uiso   1.00
H1326  H     0.72832   0.72065   0.99457   0.00000  Uiso   1.00
H1327  H     0.67426   0.71260   0.95455   0.00000  Uiso   1.00
O1328  O     0.78623   0.88852   0.69453   0.00000  Uiso   1.00
C1329  C     0.82573   0.90168   0.67072   0.00000  Uiso   1.00
H1330  H     0.81902   0.91810   0.96388   0.00000  Uiso   1.00
H1331  H     0.84650   0.86755   0.99530   0.00000  Uiso   1.00
H1332  H     0.84542   0.93427   0.70457   0.00000  Uiso   1.00
loop_
_geom_bond_atom_site_label_1
_geom_bond_atom_site_label_2
_geom_bond_distance
_geom_bond_site_symmetry_2
_ccdc_geom_bond_type
C1     C5      1.427   .     S
C1     O37     1.296   .     A
C1     O35     1.299   .     A
C2     C6      1.426   .     S
C2     O38     1.297   .     A
C2     O36     1.298   .     A
C3     H29     1.082   .     S
C3     C20     1.410   .     A
C3     C95     1.389   1_455 S
C4     C19     1.411   .     A
C4     H30     1.081   .     S
C4     C96     1.389   .     S
C5     C302    1.331   1_545 S
C5     H327    1.087   1_545 S
C6     C153    1.331   .     S
C6     H180    1.085   .     S
C7     C12     1.455   .     S
C7     O41     1.302   .     A
C7     O39     1.306   .     A
C8     O42     1.301   .     A
C8     C11     1.456   .     S
C8     O40     1.308   .     A
C9     C19     1.415   .     A
C9     C43     1.486   .     S
C9     C11     1.418   .     A
C10    C20     1.414   .     A
C10    C12     1.415   .     A
C10    C54     1.482   .     S
C11    C13     1.394   .     A
C12    C14     1.393   .     A
C13    H25     1.084   .     S
C13    C15     1.389   .     A
C14    H26     1.083   .     S
C14    C16     1.389   .     A
C15    C17     1.409   .     A
C15    C21     1.397   .     A
C16    C22     1.396   .     A
C16    C18     1.410   .     A
C17    C19     1.417   .     A
C17    C92     1.409   .     S
C18    C20     1.416   .     A
C18    C91     1.409   1_455 S
C21    H27     1.083   .     S
C21    C77     1.389   .     S
C22    H28     1.084   .     S
C22    C78     1.389   1_455 S
Cu23   O42     1.959   .     S
Cu23   Cu24    2.718   .     S
Cu23   N34     2.043   .     S
Cu23   O35     1.947   .     S
Cu23   O38     1.945   .     S
Cu23   O39     1.968   .     S
Cu24   O36     1.947   .     S
Cu24   O40     1.968   .     S
Cu24   O41     1.959   .     S
Cu24   O37     1.945   .     S
Cu24   N33     2.043   .     S
H31    C153    1.087   .     S
H32    C302    1.085   1_545 S
N33    N922    1.291   1_554 S
N33    O953    1.349   1_554 S
N34    N477    1.291   .     S
N34    O514    1.347   .     S
C43    C48     1.406   .     A
C43    C44     1.399   .     A
C44    H49     1.074   .     S
C44    C193    1.397   .     S
C45    C46     1.395   .     A
C45    H50     1.080   .     S
C45    C340    1.397   1_545 S
C46    H51     1.083   .     S
C46    C47     1.396   .     A
C47    C344    1.400   1_545 S
C47    H496    1.079   .     S
C48    H53     1.083   .     S
C48    C195    1.400   .     S
H52    C935    1.079   1_554 S
C54    C55     1.405   .     A
C54    C59     1.399   .     A
C55    H60     1.083   .     S
C55    C352    1.399   1_545 S
C56    C57     1.397   .     A
C56    C203    1.399   .     S
C56    H949    1.080   1_554 S
C57    H62     1.083   .     S
C57    C58     1.396   .     A
C58    H63     1.079   .     S
C58    C207    1.397   .     S
C59    H64     1.080   .     S
C59    C354    1.397   1_545 S
H61    C500    1.080   .     S
O65    C66     1.397   .     S
O65    N477    1.349   .     S
C66    H68     1.111   .     S
C66    H69     1.106   .     S
C66    H511    1.103   .     S
H67    C954    1.103   1_554 S
O70    C71     1.396   .     S
O70    N922    1.347   1_554 S
C71    H74     1.102   .     S
C71    H960    1.100   1_554 S
C71    H961    1.112   1_554 S
H72    C515    1.100   .     S
H73    C515    1.112   .     S
C75    C79     1.427   .     S
C75    O111    1.296   .     A
C75    O109    1.299   .     A
C76    C80     1.426   .     S
C76    O112    1.297   .     A
C76    O110    1.298   .     A
C77    H103    1.082   .     S
C77    C94     1.410   .     A
C78    C93     1.411   .     A
C78    H104    1.081   .     S
C78    C22     1.389   1_655 S
C79    C376    1.331   1_545 S
C79    H401    1.087   1_545 S
C80    C227    1.331   .     S
C80    H254    1.085   .     S
C81    C86     1.455   .     S
C81    O115    1.302   .     A
C81    O113    1.306   .     A
C82    O116    1.301   .     A
C82    C85     1.456   .     S
C82    O114    1.308   .     A
C83    C93     1.415   .     A
C83    C117    1.486   .     S
C83    C85     1.418   .     A
C84    C94     1.414   .     A
C84    C86     1.415   .     A
C84    C128    1.482   .     S
C85    C87     1.394   .     A
C86    C88     1.393   .     A
C87    H99     1.084   .     S
C87    C89     1.389   .     A
C88    H100    1.083   .     S
C88    C90     1.389   .     A
C89    C91     1.409   .     A
C89    C95     1.397   .     A
C90    C96     1.396   .     A
C90    C92     1.410   .     A
C91    C93     1.417   .     A
C91    C18     1.409   1_655 S
C92    C94     1.416   .     A
C95    H101    1.083   .     S
C95    C3      1.389   1_655 S
C96    H102    1.084   .     S
Cu97   O116    1.959   .     S
Cu97   Cu98    2.718   .     S
Cu97   N108    2.043   .     S
Cu97   O109    1.947   .     S
Cu97   O112    1.945   .     S
Cu97   O113    1.968   .     S
Cu98   O110    1.947   .     S
Cu98   O114    1.968   .     S
Cu98   O115    1.959   .     S
Cu98   O111    1.945   .     S
Cu98   N107    2.043   .     S
H105   C227    1.087   .     S
H106   C376    1.085   1_545 S
N107   N996    1.291   1_554 S
N107   O1027   1.349   1_554 S
N108   N551    1.291   .     S
N108   O588    1.347   .     S
C117   C122    1.406   .     A
C117   C118    1.399   .     A
C118   H123    1.074   .     S
C118   C267    1.397   .     S
C119   C120    1.395   .     A
C119   H124    1.080   .     S
C119   C414    1.397   1_545 S
C120   H125    1.083   .     S
C120   C121    1.396   .     A
C121   C418    1.400   1_545 S
C121   H570    1.079   .     S
C122   H127    1.083   .     S
C122   C269    1.400   .     S
H126   C1009   1.079   1_554 S
C128   C129    1.405   .     A
C128   C133    1.399   .     A
C129   H134    1.083   .     S
C129   C426    1.399   1_545 S
C130   C131    1.397   .     A
C130   C277    1.399   .     S
C130   H1023   1.080   1_554 S
C131   H136    1.083   .     S
C131   C132    1.396   .     A
C132   H137    1.079   .     S
C132   C281    1.397   .     S
C133   H138    1.080   .     S
C133   C428    1.397   1_545 S
H135   C574    1.080   .     S
O139   C140    1.397   .     S
O139   N551    1.349   .     S
C140   H142    1.111   .     S
C140   H143    1.106   .     S
C140   H585    1.103   .     S
H141   C1028   1.103   1_554 S
O144   C145    1.396   .     S
O144   N996    1.347   1_554 S
C145   H148    1.102   .     S
C145   H1034   1.100   1_554 S
C145   H1035   1.112   1_554 S
H146   C589    1.100   .     S
H147   C589    1.112   .     S
C149   C153    1.427   .     S
C149   O185    1.296   .     A
C149   O183    1.299   .     A
C150   C154    1.426   .     S
C150   O186    1.297   .     A
C150   O184    1.298   .     A
C151   H177    1.082   .     S
C151   C168    1.410   .     A
C151   C243    1.389   1_455 S
C152   C167    1.411   .     A
C152   H178    1.081   .     S
C152   C244    1.389   .     S
C154   C301    1.331   .     S
C154   H328    1.085   .     S
C155   C160    1.455   .     S
C155   O189    1.302   .     A
C155   O187    1.306   .     A
C156   O190    1.301   .     A
C156   C159    1.456   .     S
C156   O188    1.308   .     A
C157   C167    1.415   .     A
C157   C191    1.486   .     S
C157   C159    1.418   .     A
C158   C168    1.414   .     A
C158   C160    1.415   .     A
C158   C202    1.482   .     S
C159   C161    1.394   .     A
C160   C162    1.393   .     A
C161   H173    1.084   .     S
C161   C163    1.389   .     A
C162   H174    1.083   .     S
C162   C164    1.389   .     A
C163   C165    1.409   .     A
C163   C169    1.397   .     A
C164   C170    1.396   .     A
C164   C166    1.410   .     A
C165   C167    1.417   .     A
C165   C240    1.409   .     S
C166   C168    1.416   .     A
C166   C239    1.409   1_455 S
C169   H175    1.083   .     S
C169   C225    1.389   .     S
C170   H176    1.084   .     S
C170   C226    1.389   1_455 S
Cu171  O190    1.959   .     S
Cu171  Cu172   2.718   .     S
Cu171  N182    2.043   .     S
Cu171  O183    1.947   .     S
Cu171  O186    1.945   .     S
Cu171  O187    1.968   .     S
Cu172  O184    1.947   .     S
Cu172  O188    1.968   .     S
Cu172  O189    1.959   .     S
Cu172  O185    1.945   .     S
Cu172  N181    2.043   .     S
H179   C301    1.087   .     S
N181   N1070   1.291   1_554 S
N181   O1101   1.349   1_554 S
N182   N625    1.291   .     S
N182   O662    1.347   .     S
C191   C196    1.406   .     A
C191   C192    1.399   .     A
C192   H197    1.074   .     S
C192   C341    1.397   .     S
C193   C194    1.395   .     A
C193   H198    1.080   .     S
C194   H199    1.083   .     S
C194   C195    1.396   .     A
C195   H644    1.079   .     S
C196   H201    1.083   .     S
C196   C343    1.400   .     S
H200   C1083   1.079   1_554 S
C202   C203    1.405   .     A
C202   C207    1.399   .     A
C203   H208    1.083   .     S
C204   C205    1.397   .     A
C204   C351    1.399   .     S
C204   H1097   1.080   1_554 S
C205   H210    1.083   .     S
C205   C206    1.396   .     A
C206   H211    1.079   .     S
C206   C355    1.397   .     S
C207   H212    1.080   .     S
H209   C648    1.080   .     S
O213   C214    1.397   .     S
O213   N625    1.349   .     S
C214   H216    1.111   .     S
C214   H217    1.106   .     S
C214   H659    1.103   .     S
H215   C1102   1.103   1_554 S
O218   C219    1.396   .     S
O218   N1070   1.347   1_554 S
C219   H222    1.102   .     S
C219   H1108   1.100   1_554 S
C219   H1109   1.112   1_554 S
H220   C663    1.100   .     S
H221   C663    1.112   .     S
C223   C227    1.427   .     S
C223   O259    1.296   .     A
C223   O257    1.299   .     A
C224   C228    1.426   .     S
C224   O260    1.297   .     A
C224   O258    1.298   .     A
C225   H251    1.082   .     S
C225   C242    1.410   .     A
C226   C241    1.411   .     A
C226   H252    1.081   .     S
C226   C170    1.389   1_655 S
C228   C375    1.331   .     S
C228   H402    1.085   .     S
C229   C234    1.455   .     S
C229   O263    1.302   .     A
C229   O261    1.306   .     A
C230   O264    1.301   .     A
C230   C233    1.456   .     S
C230   O262    1.308   .     A
C231   C241    1.415   .     A
C231   C265    1.486   .     S
C231   C233    1.418   .     A
C232   C242    1.414   .     A
C232   C234    1.415   .     A
C232   C276    1.482   .     S
C233   C235    1.394   .     A
C234   C236    1.393   .     A
C235   H247    1.084   .     S
C235   C237    1.389   .     A
C236   H248    1.083   .     S
C236   C238    1.389   .     A
C237   C239    1.409   .     A
C237   C243    1.397   .     A
C238   C244    1.396   .     A
C238   C240    1.410   .     A
C239   C241    1.417   .     A
C239   C166    1.409   1_655 S
C240   C242    1.416   .     A
C243   H249    1.083   .     S
C243   C151    1.389   1_655 S
C244   H250    1.084   .     S
Cu245  O264    1.959   .     S
Cu245  Cu246   2.718   .     S
Cu245  N256    2.043   .     S
Cu245  O257    1.947   .     S
Cu245  O260    1.945   .     S
Cu245  O261    1.968   .     S
Cu246  O258    1.947   .     S
Cu246  O262    1.968   .     S
Cu246  O263    1.959   .     S
Cu246  O259    1.945   .     S
Cu246  N255    2.043   .     S
H253   C375    1.087   .     S
N255   N1144   1.291   1_554 S
N255   O1175   1.349   1_554 S
N256   N699    1.291   .     S
N256   O736    1.347   .     S
C265   C270    1.406   .     A
C265   C266    1.399   .     A
C266   H271    1.074   .     S
C266   C415    1.397   .     S
C267   C268    1.395   .     A
C267   H272    1.080   .     S
C268   H273    1.083   .     S
C268   C269    1.396   .     A
C269   H718    1.079   .     S
C270   H275    1.083   .     S
C270   C417    1.400   .     S
H274   C1157   1.079   1_554 S
C276   C277    1.405   .     A
C276   C281    1.399   .     A
C277   H282    1.083   .     S
C278   C279    1.397   .     A
C278   C425    1.399   .     S
C278   H1171   1.080   1_554 S
C279   H284    1.083   .     S
C279   C280    1.396   .     A
C280   H285    1.079   .     S
C280   C429    1.397   .     S
C281   H286    1.080   .     S
H283   C722    1.080   .     S
O287   C288    1.397   .     S
O287   N699    1.349   .     S
C288   H290    1.111   .     S
C288   H291    1.106   .     S
C288   H733    1.103   .     S
H289   C1176   1.103   1_554 S
O292   C293    1.396   .     S
O292   N1144   1.347   1_554 S
C293   H296    1.102   .     S
C293   H1182   1.100   1_554 S
C293   H1183   1.112   1_554 S
H294   C737    1.100   .     S
H295   C737    1.112   .     S
C297   C301    1.427   .     S
C297   O333    1.296   .     A
C297   O331    1.299   .     A
C298   C302    1.426   .     S
C298   O334    1.297   .     A
C298   O332    1.298   .     A
C299   H325    1.082   .     S
C299   C316    1.410   .     A
C299   C391    1.389   1_455 S
C300   C315    1.411   .     A
C300   H326    1.081   .     S
C300   C392    1.389   .     S
C302   C5      1.331   1_565 S
C302   H32     1.085   1_565 S
C303   C308    1.455   .     S
C303   O337    1.302   .     A
C303   O335    1.306   .     A
C304   O338    1.301   .     A
C304   C307    1.456   .     S
C304   O336    1.308   .     A
C305   C315    1.415   .     A
C305   C339    1.486   .     S
C305   C307    1.418   .     A
C306   C316    1.414   .     A
C306   C308    1.415   .     A
C306   C350    1.482   .     S
C307   C309    1.394   .     A
C308   C310    1.393   .     A
C309   H321    1.084   .     S
C309   C311    1.389   .     A
C310   H322    1.083   .     S
C310   C312    1.389   .     A
C311   C313    1.409   .     A
C311   C317    1.397   .     A
C312   C318    1.396   .     A
C312   C314    1.410   .     A
C313   C315    1.417   .     A
C313   C388    1.409   .     S
C314   C316    1.416   .     A
C314   C387    1.409   1_455 S
C317   H323    1.083   .     S
C317   C373    1.389   .     S
C318   H324    1.084   .     S
C318   C374    1.389   1_455 S
Cu319  O338    1.959   .     S
Cu319  Cu320   2.718   .     S
Cu319  N330    2.043   .     S
Cu319  O331    1.947   .     S
Cu319  O334    1.945   .     S
Cu319  O335    1.968   .     S
Cu320  O332    1.947   .     S
Cu320  O336    1.968   .     S
Cu320  O337    1.959   .     S
Cu320  O333    1.945   .     S
Cu320  N329    2.043   .     S
H327   C5      1.087   1_565 S
N329   N1218   1.291   1_554 S
N329   O1249   1.349   1_554 S
N330   N773    1.291   .     S
N330   O810    1.347   .     S
C339   C344    1.406   .     A
C339   C340    1.399   .     A
C340   H345    1.074   .     S
C340   C45     1.397   1_565 S
C341   C342    1.395   .     A
C341   H346    1.080   .     S
C342   H347    1.083   .     S
C342   C343    1.396   .     A
C343   H792    1.079   .     S
C344   H349    1.083   .     S
C344   C47     1.400   1_565 S
H348   C1231   1.079   1_554 S
C350   C351    1.405   .     A
C350   C355    1.399   .     A
C351   H356    1.083   .     S
C352   C353    1.397   .     A
C352   C55     1.399   1_565 S
C352   H1245   1.080   1_554 S
C353   H358    1.083   .     S
C353   C354    1.396   .     A
C354   H359    1.079   .     S
C354   C59     1.397   1_565 S
C355   H360    1.080   .     S
H357   C796    1.080   .     S
O361   C362    1.397   .     S
O361   N773    1.349   .     S
C362   H364    1.111   .     S
C362   H365    1.106   .     S
C362   H807    1.103   .     S
H363   C1250   1.103   1_554 S
O366   C367    1.396   .     S
O366   N1218   1.347   1_554 S
C367   H370    1.102   .     S
C367   H1256   1.100   1_554 S
C367   H1257   1.112   1_554 S
H368   C811    1.100   .     S
H369   C811    1.112   .     S
C371   C375    1.427   .     S
C371   O407    1.296   .     A
C371   O405    1.299   .     A
C372   C376    1.426   .     S
C372   O408    1.297   .     A
C372   O406    1.298   .     A
C373   H399    1.082   .     S
C373   C390    1.410   .     A
C374   C389    1.411   .     A
C374   H400    1.081   .     S
C374   C318    1.389   1_655 S
C376   C79     1.331   1_565 S
C376   H106    1.085   1_565 S
C377   C382    1.455   .     S
C377   O411    1.302   .     A
C377   O409    1.306   .     A
C378   O412    1.301   .     A
C378   C381    1.456   .     S
C378   O410    1.308   .     A
C379   C389    1.415   .     A
C379   C413    1.486   .     S
C379   C381    1.418   .     A
C380   C390    1.414   .     A
C380   C382    1.415   .     A
C380   C424    1.482   .     S
C381   C383    1.394   .     A
C382   C384    1.393   .     A
C383   H395    1.084   .     S
C383   C385    1.389   .     A
C384   H396    1.083   .     S
C384   C386    1.389   .     A
C385   C387    1.409   .     A
C385   C391    1.397   .     A
C386   C392    1.396   .     A
C386   C388    1.410   .     A
C387   C389    1.417   .     A
C387   C314    1.409   1_655 S
C388   C390    1.416   .     A
C391   H397    1.083   .     S
C391   C299    1.389   1_655 S
C392   H398    1.084   .     S
Cu393  O412    1.959   .     S
Cu393  Cu394   2.718   .     S
Cu393  N404    2.043   .     S
Cu393  O405    1.947   .     S
Cu393  O408    1.945   .     S
Cu393  O409    1.968   .     S
Cu394  O406    1.947   .     S
Cu394  O410    1.968   .     S
Cu394  O411    1.959   .     S
Cu394  O407    1.945   .     S
Cu394  N403    2.043   .     S
H401   C79     1.087   1_565 S
N403   N1292   1.291   1_554 S
N403   O1323   1.349   1_554 S
N404   N847    1.291   .     S
N404   O884    1.347   .     S
C413   C418    1.406   .     A
C413   C414    1.399   .     A
C414   H419    1.074   .     S
C414   C119    1.397   1_565 S
C415   C416    1.395   .     A
C415   H420    1.080   .     S
C416   H421    1.083   .     S
C416   C417    1.396   .     A
C417   H866    1.079   .     S
C418   H423    1.083   .     S
C418   C121    1.400   1_565 S
H422   C1305   1.079   1_554 S
C424   C425    1.405   .     A
C424   C429    1.399   .     A
C425   H430    1.083   .     S
C426   C427    1.397   .     A
C426   C129    1.399   1_565 S
C426   H1319   1.080   1_554 S
C427   H432    1.083   .     S
C427   C428    1.396   .     A
C428   H433    1.079   .     S
C428   C133    1.397   1_565 S
C429   H434    1.080   .     S
H431   C870    1.080   .     S
O435   C436    1.397   .     S
O435   N847    1.349   .     S
C436   H438    1.111   .     S
C436   H439    1.106   .     S
C436   H881    1.103   .     S
H437   C1324   1.103   1_554 S
O440   C441    1.396   .     S
O440   N1292   1.347   1_554 S
C441   H444    1.102   .     S
C441   H1330   1.100   1_554 S
C441   H1331   1.112   1_554 S
H442   C885    1.100   .     S
H443   C885    1.112   .     S
C445   C449    1.427   .     S
C445   O481    1.296   .     A
C445   O479    1.299   .     A
C446   C450    1.426   .     S
C446   O482    1.297   .     A
C446   O480    1.298   .     A
C447   H473    1.082   .     S
C447   C464    1.410   .     A
C447   C539    1.389   1_455 S
C448   C463    1.411   .     A
C448   H474    1.081   .     S
C448   C540    1.389   .     S
C449   C746    1.331   1_545 S
C449   H771    1.087   1_545 S
C450   C597    1.331   .     S
C450   H624    1.085   .     S
C451   C456    1.455   .     S
C451   O485    1.302   .     A
C451   O483    1.306   .     A
C452   O486    1.301   .     A
C452   C455    1.456   .     S
C452   O484    1.308   .     A
C453   C463    1.415   .     A
C453   C487    1.486   .     S
C453   C455    1.418   .     A
C454   C464    1.414   .     A
C454   C456    1.415   .     A
C454   C498    1.482   .     S
C455   C457    1.394   .     A
C456   C458    1.393   .     A
C457   H469    1.084   .     S
C457   C459    1.389   .     A
C458   H470    1.083   .     S
C458   C460    1.389   .     A
C459   C461    1.409   .     A
C459   C465    1.397   .     A
C460   C466    1.396   .     A
C460   C462    1.410   .     A
C461   C463    1.417   .     A
C461   C536    1.409   .     S
C462   C464    1.416   .     A
C462   C535    1.409   1_455 S
C465   H471    1.083   .     S
C465   C521    1.389   .     S
C466   H472    1.084   .     S
C466   C522    1.389   1_455 S
Cu467  O486    1.959   .     S
Cu467  Cu468   2.718   .     S
Cu467  N478    2.043   .     S
Cu467  O479    1.947   .     S
Cu467  O482    1.945   .     S
Cu467  O483    1.968   .     S
Cu468  O480    1.947   .     S
Cu468  O484    1.968   .     S
Cu468  O485    1.959   .     S
Cu468  O481    1.945   .     S
Cu468  N477    2.043   .     S
H475   C597    1.087   .     S
H476   C746    1.085   1_545 S
N478   N921    1.291   .     S
N478   O958    1.347   .     S
C487   C492    1.406   .     A
C487   C488    1.399   .     A
C488   H493    1.074   .     S
C488   C637    1.397   .     S
C489   C490    1.395   .     A
C489   H494    1.080   .     S
C489   C784    1.397   1_545 S
C490   H495    1.083   .     S
C490   C491    1.396   .     A
C491   C788    1.400   1_545 S
C491   H940    1.079   .     S
C492   H497    1.083   .     S
C492   C639    1.400   .     S
C498   C499    1.405   .     A
C498   C503    1.399   .     A
C499   H504    1.083   .     S
C499   C796    1.399   1_545 S
C500   C501    1.397   .     A
C500   C647    1.399   .     S
C501   H506    1.083   .     S
C501   C502    1.396   .     A
C502   H507    1.079   .     S
C502   C651    1.397   .     S
C503   H508    1.080   .     S
C503   C798    1.397   1_545 S
H505   C944    1.080   .     S
O509   C510    1.397   .     S
O509   N921    1.349   .     S
C510   H512    1.111   .     S
C510   H513    1.106   .     S
C510   H955    1.103   .     S
O514   C515    1.396   .     S
C515   H518    1.102   .     S
H516   C959    1.100   .     S
H517   C959    1.112   .     S
C519   C523    1.427   .     S
C519   O555    1.296   .     A
C519   O553    1.299   .     A
C520   C524    1.426   .     S
C520   O556    1.297   .     A
C520   O554    1.298   .     A
C521   H547    1.082   .     S
C521   C538    1.410   .     A
C522   C537    1.411   .     A
C522   H548    1.081   .     S
C522   C466    1.389   1_655 S
C523   C820    1.331   1_545 S
C523   H845    1.087   1_545 S
C524   C671    1.331   .     S
C524   H698    1.085   .     S
C525   C530    1.455   .     S
C525   O559    1.302   .     A
C525   O557    1.306   .     A
C526   O560    1.301   .     A
C526   C529    1.456   .     S
C526   O558    1.308   .     A
C527   C537    1.415   .     A
C527   C561    1.486   .     S
C527   C529    1.418   .     A
C528   C538    1.414   .     A
C528   C530    1.415   .     A
C528   C572    1.482   .     S
C529   C531    1.394   .     A
C530   C532    1.393   .     A
C531   H543    1.084   .     S
C531   C533    1.389   .     A
C532   H544    1.083   .     S
C532   C534    1.389   .     A
C533   C535    1.409   .     A
C533   C539    1.397   .     A
C534   C540    1.396   .     A
C534   C536    1.410   .     A
C535   C537    1.417   .     A
C535   C462    1.409   1_655 S
C536   C538    1.416   .     A
C539   H545    1.083   .     S
C539   C447    1.389   1_655 S
C540   H546    1.084   .     S
Cu541  O560    1.959   .     S
Cu541  Cu542   2.718   .     S
Cu541  N552    2.043   .     S
Cu541  O553    1.947   .     S
Cu541  O556    1.945   .     S
Cu541  O557    1.968   .     S
Cu542  O554    1.947   .     S
Cu542  O558    1.968   .     S
Cu542  O559    1.959   .     S
Cu542  O555    1.945   .     S
Cu542  N551    2.043   .     S
H549   C671    1.087   .     S
H550   C820    1.085   1_545 S
N552   N995    1.291   .     S
N552   O1032   1.347   .     S
C561   C566    1.406   .     A
C561   C562    1.399   .     A
C562   H567    1.074   .     S
C562   C711    1.397   .     S
C563   C564    1.395   .     A
C563   H568    1.080   .     S
C563   C858    1.397   1_545 S
C564   H569    1.083   .     S
C564   C565    1.396   .     A
C565   C862    1.400   1_545 S
C565   H1014   1.079   .     S
C566   H571    1.083   .     S
C566   C713    1.400   .     S
C572   C573    1.405   .     A
C572   C577    1.399   .     A
C573   H578    1.083   .     S
C573   C870    1.399   1_545 S
C574   C575    1.397   .     A
C574   C721    1.399   .     S
C575   H580    1.083   .     S
C575   C576    1.396   .     A
C576   H581    1.079   .     S
C576   C725    1.397   .     S
C577   H582    1.080   .     S
C577   C872    1.397   1_545 S
H579   C1018   1.080   .     S
O583   C584    1.397   .     S
O583   N995    1.349   .     S
C584   H586    1.111   .     S
C584   H587    1.106   .     S
C584   H1029   1.103   .     S
O588   C589    1.396   .     S
C589   H592    1.102   .     S
H590   C1033   1.100   .     S
H591   C1033   1.112   .     S
C593   C597    1.427   .     S
C593   O629    1.296   .     A
C593   O627    1.299   .     A
C594   C598    1.426   .     S
C594   O630    1.297   .     A
C594   O628    1.298   .     A
C595   H621    1.082   .     S
C595   C612    1.410   .     A
C595   C687    1.389   1_455 S
C596   C611    1.411   .     A
C596   H622    1.081   .     S
C596   C688    1.389   .     S
C598   C745    1.331   .     S
C598   H772    1.085   .     S
C599   C604    1.455   .     S
C599   O633    1.302   .     A
C599   O631    1.306   .     A
C600   O634    1.301   .     A
C600   C603    1.456   .     S
C600   O632    1.308   .     A
C601   C611    1.415   .     A
C601   C635    1.486   .     S
C601   C603    1.418   .     A
C602   C612    1.414   .     A
C602   C604    1.415   .     A
C602   C646    1.482   .     S
C603   C605    1.394   .     A
C604   C606    1.393   .     A
C605   H617    1.084   .     S
C605   C607    1.389   .     A
C606   H618    1.083   .     S
C606   C608    1.389   .     A
C607   C609    1.409   .     A
C607   C613    1.397   .     A
C608   C614    1.396   .     A
C608   C610    1.410   .     A
C609   C611    1.417   .     A
C609   C684    1.409   .     S
C610   C612    1.416   .     A
C610   C683    1.409   1_455 S
C613   H619    1.083   .     S
C613   C669    1.389   .     S
C614   H620    1.084   .     S
C614   C670    1.389   1_455 S
Cu615  O634    1.959   .     S
Cu615  Cu616   2.718   .     S
Cu615  N626    2.043   .     S
Cu615  O627    1.947   .     S
Cu615  O630    1.945   .     S
Cu615  O631    1.968   .     S
Cu616  O628    1.947   .     S
Cu616  O632    1.968   .     S
Cu616  O633    1.959   .     S
Cu616  O629    1.945   .     S
Cu616  N625    2.043   .     S
H623   C745    1.087   .     S
N626   N1069   1.291   .     S
N626   O1106   1.347   .     S
C635   C640    1.406   .     A
C635   C636    1.399   .     A
C636   H641    1.074   .     S
C636   C785    1.397   .     S
C637   C638    1.395   .     A
C637   H642    1.080   .     S
C638   H643    1.083   .     S
C638   C639    1.396   .     A
C639   H1088   1.079   .     S
C640   H645    1.083   .     S
C640   C787    1.400   .     S
C646   C647    1.405   .     A
C646   C651    1.399   .     A
C647   H652    1.083   .     S
C648   C649    1.397   .     A
C648   C795    1.399   .     S
C649   H654    1.083   .     S
C649   C650    1.396   .     A
C650   H655    1.079   .     S
C650   C799    1.397   .     S
C651   H656    1.080   .     S
H653   C1092   1.080   .     S
O657   C658    1.397   .     S
O657   N1069   1.349   .     S
C658   H660    1.111   .     S
C658   H661    1.106   .     S
C658   H1103   1.103   .     S
O662   C663    1.396   .     S
C663   H666    1.102   .     S
H664   C1107   1.100   .     S
H665   C1107   1.112   .     S
C667   C671    1.427   .     S
C667   O703    1.296   .     A
C667   O701    1.299   .     A
C668   C672    1.426   .     S
C668   O704    1.297   .     A
C668   O702    1.298   .     A
C669   H695    1.082   .     S
C669   C686    1.410   .     A
C670   C685    1.411   .     A
C670   H696    1.081   .     S
C670   C614    1.389   1_655 S
C672   C819    1.331   .     S
C672   H846    1.085   .     S
C673   C678    1.455   .     S
C673   O707    1.302   .     A
C673   O705    1.306   .     A
C674   O708    1.301   .     A
C674   C677    1.456   .     S
C674   O706    1.308   .     A
C675   C685    1.415   .     A
C675   C709    1.486   .     S
C675   C677    1.418   .     A
C676   C686    1.414   .     A
C676   C678    1.415   .     A
C676   C720    1.482   .     S
C677   C679    1.394   .     A
C678   C680    1.393   .     A
C679   H691    1.084   .     S
C679   C681    1.389   .     A
C680   H692    1.083   .     S
C680   C682    1.389   .     A
C681   C683    1.409   .     A
C681   C687    1.397   .     A
C682   C688    1.396   .     A
C682   C684    1.410   .     A
C683   C685    1.417   .     A
C683   C610    1.409   1_655 S
C684   C686    1.416   .     A
C687   H693    1.083   .     S
C687   C595    1.389   1_655 S
C688   H694    1.084   .     S
Cu689  O708    1.959   .     S
Cu689  Cu690   2.718   .     S
Cu689  N700    2.043   .     S
Cu689  O701    1.947   .     S
Cu689  O704    1.945   .     S
Cu689  O705    1.968   .     S
Cu690  O702    1.947   .     S
Cu690  O706    1.968   .     S
Cu690  O707    1.959   .     S
Cu690  O703    1.945   .     S
Cu690  N699    2.043   .     S
H697   C819    1.087   .     S
N700   N1143   1.291   .     S
N700   O1180   1.347   .     S
C709   C714    1.406   .     A
C709   C710    1.399   .     A
C710   H715    1.074   .     S
C710   C859    1.397   .     S
C711   C712    1.395   .     A
C711   H716    1.080   .     S
C712   H717    1.083   .     S
C712   C713    1.396   .     A
C713   H1162   1.079   .     S
C714   H719    1.083   .     S
C714   C861    1.400   .     S
C720   C721    1.405   .     A
C720   C725    1.399   .     A
C721   H726    1.083   .     S
C722   C723    1.397   .     A
C722   C869    1.399   .     S
C723   H728    1.083   .     S
C723   C724    1.396   .     A
C724   H729    1.079   .     S
C724   C873    1.397   .     S
C725   H730    1.080   .     S
H727   C1166   1.080   .     S
O731   C732    1.397   .     S
O731   N1143   1.349   .     S
C732   H734    1.111   .     S
C732   H735    1.106   .     S
C732   H1177   1.103   .     S
O736   C737    1.396   .     S
C737   H740    1.102   .     S
H738   C1181   1.100   .     S
H739   C1181   1.112   .     S
C741   C745    1.427   .     S
C741   O777    1.296   .     A
C741   O775    1.299   .     A
C742   C746    1.426   .     S
C742   O778    1.297   .     A
C742   O776    1.298   .     A
C743   H769    1.082   .     S
C743   C760    1.410   .     A
C743   C835    1.389   1_455 S
C744   C759    1.411   .     A
C744   H770    1.081   .     S
C744   C836    1.389   .     S
C746   C449    1.331   1_565 S
C746   H476    1.085   1_565 S
C747   C752    1.455   .     S
C747   O781    1.302   .     A
C747   O779    1.306   .     A
C748   O782    1.301   .     A
C748   C751    1.456   .     S
C748   O780    1.308   .     A
C749   C759    1.415   .     A
C749   C783    1.486   .     S
C749   C751    1.418   .     A
C750   C760    1.414   .     A
C750   C752    1.415   .     A
C750   C794    1.482   .     S
C751   C753    1.394   .     A
C752   C754    1.393   .     A
C753   H765    1.084   .     S
C753   C755    1.389   .     A
C754   H766    1.083   .     S
C754   C756    1.389   .     A
C755   C757    1.409   .     A
C755   C761    1.397   .     A
C756   C762    1.396   .     A
C756   C758    1.410   .     A
C757   C759    1.417   .     A
C757   C832    1.409   .     S
C758   C760    1.416   .     A
C758   C831    1.409   1_455 S
C761   H767    1.083   .     S
C761   C817    1.389   .     S
C762   H768    1.084   .     S
C762   C818    1.389   1_455 S
Cu763  O782    1.959   .     S
Cu763  Cu764   2.718   .     S
Cu763  N774    2.043   .     S
Cu763  O775    1.947   .     S
Cu763  O778    1.945   .     S
Cu763  O779    1.968   .     S
Cu764  O776    1.947   .     S
Cu764  O780    1.968   .     S
Cu764  O781    1.959   .     S
Cu764  O777    1.945   .     S
Cu764  N773    2.043   .     S
H771   C449    1.087   1_565 S
N774   N1217   1.291   .     S
N774   O1254   1.347   .     S
C783   C788    1.406   .     A
C783   C784    1.399   .     A
C784   H789    1.074   .     S
C784   C489    1.397   1_565 S
C785   C786    1.395   .     A
C785   H790    1.080   .     S
C786   H791    1.083   .     S
C786   C787    1.396   .     A
C787   H1236   1.079   .     S
C788   H793    1.083   .     S
C788   C491    1.400   1_565 S
C794   C795    1.405   .     A
C794   C799    1.399   .     A
C795   H800    1.083   .     S
C796   C797    1.397   .     A
C796   C499    1.399   1_565 S
C797   H802    1.083   .     S
C797   C798    1.396   .     A
C798   H803    1.079   .     S
C798   C503    1.397   1_565 S
C799   H804    1.080   .     S
H801   C1240   1.080   .     S
O805   C806    1.397   .     S
O805   N1217   1.349   .     S
C806   H808    1.111   .     S
C806   H809    1.106   .     S
C806   H1251   1.103   .     S
O810   C811    1.396   .     S
C811   H814    1.102   .     S
H812   C1255   1.100   .     S
H813   C1255   1.112   .     S
C815   C819    1.427   .     S
C815   O851    1.296   .     A
C815   O849    1.299   .     A
C816   C820    1.426   .     S
C816   O852    1.297   .     A
C816   O850    1.298   .     A
C817   H843    1.082   .     S
C817   C834    1.410   .     A
C818   C833    1.411   .     A
C818   H844    1.081   .     S
C818   C762    1.389   1_655 S
C820   C523    1.331   1_565 S
C820   H550    1.085   1_565 S
C821   C826    1.455   .     S
C821   O855    1.302   .     A
C821   O853    1.306   .     A
C822   O856    1.301   .     A
C822   C825    1.456   .     S
C822   O854    1.308   .     A
C823   C833    1.415   .     A
C823   C857    1.486   .     S
C823   C825    1.418   .     A
C824   C834    1.414   .     A
C824   C826    1.415   .     A
C824   C868    1.482   .     S
C825   C827    1.394   .     A
C826   C828    1.393   .     A
C827   H839    1.084   .     S
C827   C829    1.389   .     A
C828   H840    1.083   .     S
C828   C830    1.389   .     A
C829   C831    1.409   .     A
C829   C835    1.397   .     A
C830   C836    1.396   .     A
C830   C832    1.410   .     A
C831   C833    1.417   .     A
C831   C758    1.409   1_655 S
C832   C834    1.416   .     A
C835   H841    1.083   .     S
C835   C743    1.389   1_655 S
C836   H842    1.084   .     S
Cu837  O856    1.959   .     S
Cu837  Cu838   2.718   .     S
Cu837  N848    2.043   .     S
Cu837  O849    1.947   .     S
Cu837  O852    1.945   .     S
Cu837  O853    1.968   .     S
Cu838  O850    1.947   .     S
Cu838  O854    1.968   .     S
Cu838  O855    1.959   .     S
Cu838  O851    1.945   .     S
Cu838  N847    2.043   .     S
H845   C523    1.087   1_565 S
N848   N1291   1.291   .     S
N848   O1328   1.347   .     S
C857   C862    1.406   .     A
C857   C858    1.399   .     A
C858   H863    1.074   .     S
C858   C563    1.397   1_565 S
C859   C860    1.395   .     A
C859   H864    1.080   .     S
C860   H865    1.083   .     S
C860   C861    1.396   .     A
C861   H1310   1.079   .     S
C862   H867    1.083   .     S
C862   C565    1.400   1_565 S
C868   C869    1.405   .     A
C868   C873    1.399   .     A
C869   H874    1.083   .     S
C870   C871    1.397   .     A
C870   C573    1.399   1_565 S
C871   H876    1.083   .     S
C871   C872    1.396   .     A
C872   H877    1.079   .     S
C872   C577    1.397   1_565 S
C873   H878    1.080   .     S
H875   C1314   1.080   .     S
O879   C880    1.397   .     S
O879   N1291   1.349   .     S
C880   H882    1.111   .     S
C880   H883    1.106   .     S
C880   H1325   1.103   .     S
O884   C885    1.396   .     S
C885   H888    1.102   .     S
H886   C1329   1.100   .     S
H887   C1329   1.112   .     S
C889   C893    1.427   .     S
C889   O925    1.296   .     A
C889   O923    1.299   .     A
C890   C894    1.426   .     S
C890   O926    1.297   .     A
C890   O924    1.298   .     A
C891   H917    1.082   .     S
C891   C908    1.410   .     A
C891   C983    1.389   1_455 S
C892   C907    1.411   .     A
C892   H918    1.081   .     S
C892   C984    1.389   .     S
C893   C1190   1.331   1_545 S
C893   H1215   1.087   1_545 S
C894   C1041   1.331   .     S
C894   H1068   1.085   .     S
C895   C900    1.455   .     S
C895   O929    1.302   .     A
C895   O927    1.306   .     A
C896   O930    1.301   .     A
C896   C899    1.456   .     S
C896   O928    1.308   .     A
C897   C907    1.415   .     A
C897   C931    1.486   .     S
C897   C899    1.418   .     A
C898   C908    1.414   .     A
C898   C900    1.415   .     A
C898   C942    1.482   .     S
C899   C901    1.394   .     A
C900   C902    1.393   .     A
C901   H913    1.084   .     S
C901   C903    1.389   .     A
C902   H914    1.083   .     S
C902   C904    1.389   .     A
C903   C905    1.409   .     A
C903   C909    1.397   .     A
C904   C910    1.396   .     A
C904   C906    1.410   .     A
C905   C907    1.417   .     A
C905   C980    1.409   .     S
C906   C908    1.416   .     A
C906   C979    1.409   1_455 S
C909   H915    1.083   .     S
C909   C965    1.389   .     S
C910   H916    1.084   .     S
C910   C966    1.389   1_455 S
Cu911  O930    1.959   .     S
Cu911  Cu912   2.718   .     S
Cu911  N922    2.043   .     S
Cu911  O923    1.947   .     S
Cu911  O926    1.945   .     S
Cu911  O927    1.968   .     S
Cu912  O924    1.947   .     S
Cu912  O928    1.968   .     S
Cu912  O929    1.959   .     S
Cu912  O925    1.945   .     S
Cu912  N921    2.043   .     S
H919   C1041   1.087   .     S
H920   C1190   1.085   1_545 S
N922   N33     1.291   1_556 S
N922   O70     1.347   1_556 S
C931   C936    1.406   .     A
C931   C932    1.399   .     A
C932   H937    1.074   .     S
C932   C1081   1.397   .     S
C933   C934    1.395   .     A
C933   H938    1.080   .     S
C933   C1228   1.397   1_545 S
C934   H939    1.083   .     S
C934   C935    1.396   .     A
C935   C1232   1.400   1_545 S
C935   H52     1.079   1_556 S
C936   H941    1.083   .     S
C936   C1083   1.400   .     S
C942   C943    1.405   .     A
C942   C947    1.399   .     A
C943   H948    1.083   .     S
C943   C1240   1.399   1_545 S
C944   C945    1.397   .     A
C944   C1091   1.399   .     S
C945   H950    1.083   .     S
C945   C946    1.396   .     A
C946   H951    1.079   .     S
C946   C1095   1.397   .     S
C947   H952    1.080   .     S
C947   C1242   1.397   1_545 S
H949   C56     1.080   1_556 S
O953   C954    1.397   .     S
O953   N33     1.349   1_556 S
C954   H956    1.111   .     S
C954   H957    1.106   .     S
C954   H67     1.103   1_556 S
O958   C959    1.396   .     S
C959   H962    1.102   .     S
H960   C71     1.100   1_556 S
H961   C71     1.112   1_556 S
C963   C967    1.427   .     S
C963   O999    1.296   .     A
C963   O997    1.299   .     A
C964   C968    1.426   .     S
C964   O1000   1.297   .     A
C964   O998    1.298   .     A
C965   H991    1.082   .     S
C965   C982    1.410   .     A
C966   C981    1.411   .     A
C966   H992    1.081   .     S
C966   C910    1.389   1_655 S
C967   C1264   1.331   1_545 S
C967   H1289   1.087   1_545 S
C968   C1115   1.331   .     S
C968   H1142   1.085   .     S
C969   C974    1.455   .     S
C969   O1003   1.302   .     A
C969   O1001   1.306   .     A
C970   O1004   1.301   .     A
C970   C973    1.456   .     S
C970   O1002   1.308   .     A
C971   C981    1.415   .     A
C971   C1005   1.486   .     S
C971   C973    1.418   .     A
C972   C982    1.414   .     A
C972   C974    1.415   .     A
C972   C1016   1.482   .     S
C973   C975    1.394   .     A
C974   C976    1.393   .     A
C975   H987    1.084   .     S
C975   C977    1.389   .     A
C976   H988    1.083   .     S
C976   C978    1.389   .     A
C977   C979    1.409   .     A
C977   C983    1.397   .     A
C978   C984    1.396   .     A
C978   C980    1.410   .     A
C979   C981    1.417   .     A
C979   C906    1.409   1_655 S
C980   C982    1.416   .     A
C983   H989    1.083   .     S
C983   C891    1.389   1_655 S
C984   H990    1.084   .     S
Cu985  O1004   1.959   .     S
Cu985  Cu986   2.718   .     S
Cu985  N996    2.043   .     S
Cu985  O997    1.947   .     S
Cu985  O1000   1.945   .     S
Cu985  O1001   1.968   .     S
Cu986  O998    1.947   .     S
Cu986  O1002   1.968   .     S
Cu986  O1003   1.959   .     S
Cu986  O999    1.945   .     S
Cu986  N995    2.043   .     S
H993   C1115   1.087   .     S
H994   C1264   1.085   1_545 S
N996   N107    1.291   1_556 S
N996   O144    1.347   1_556 S
C1005  C1010   1.406   .     A
C1005  C1006   1.399   .     A
C1006  H1011   1.074   .     S
C1006  C1155   1.397   .     S
C1007  C1008   1.395   .     A
C1007  H1012   1.080   .     S
C1007  C1302   1.397   1_545 S
C1008  H1013   1.083   .     S
C1008  C1009   1.396   .     A
C1009  C1306   1.400   1_545 S
C1009  H126    1.079   1_556 S
C1010  H1015   1.083   .     S
C1010  C1157   1.400   .     S
C1016  C1017   1.405   .     A
C1016  C1021   1.399   .     A
C1017  H1022   1.083   .     S
C1017  C1314   1.399   1_545 S
C1018  C1019   1.397   .     A
C1018  C1165   1.399   .     S
C1019  H1024   1.083   .     S
C1019  C1020   1.396   .     A
C1020  H1025   1.079   .     S
C1020  C1169   1.397   .     S
C1021  H1026   1.080   .     S
C1021  C1316   1.397   1_545 S
H1023  C130    1.080   1_556 S
O1027  C1028   1.397   .     S
O1027  N107    1.349   1_556 S
C1028  H1030   1.111   .     S
C1028  H1031   1.106   .     S
C1028  H141    1.103   1_556 S
O1032  C1033   1.396   .     S
C1033  H1036   1.102   .     S
H1034  C145    1.100   1_556 S
H1035  C145    1.112   1_556 S
C1037  C1041   1.427   .     S
C1037  O1073   1.296   .     A
C1037  O1071   1.299   .     A
C1038  C1042   1.426   .     S
C1038  O1074   1.297   .     A
C1038  O1072   1.298   .     A
C1039  H1065   1.082   .     S
C1039  C1056   1.410   .     A
C1039  C1131   1.389   1_455 S
C1040  C1055   1.411   .     A
C1040  H1066   1.081   .     S
C1040  C1132   1.389   .     S
C1042  C1189   1.331   .     S
C1042  H1216   1.085   .     S
C1043  C1048   1.455   .     S
C1043  O1077   1.302   .     A
C1043  O1075   1.306   .     A
C1044  O1078   1.301   .     A
C1044  C1047   1.456   .     S
C1044  O1076   1.308   .     A
C1045  C1055   1.415   .     A
C1045  C1079   1.486   .     S
C1045  C1047   1.418   .     A
C1046  C1056   1.414   .     A
C1046  C1048   1.415   .     A
C1046  C1090   1.482   .     S
C1047  C1049   1.394   .     A
C1048  C1050   1.393   .     A
C1049  H1061   1.084   .     S
C1049  C1051   1.389   .     A
C1050  H1062   1.083   .     S
C1050  C1052   1.389   .     A
C1051  C1053   1.409   .     A
C1051  C1057   1.397   .     A
C1052  C1058   1.396   .     A
C1052  C1054   1.410   .     A
C1053  C1055   1.417   .     A
C1053  C1128   1.409   .     S
C1054  C1056   1.416   .     A
C1054  C1127   1.409   1_455 S
C1057  H1063   1.083   .     S
C1057  C1113   1.389   .     S
C1058  H1064   1.084   .     S
C1058  C1114   1.389   1_455 S
Cu1059 O1078   1.959   .     S
Cu1059 Cu1060  2.718   .     S
Cu1059 N1070   2.043   .     S
Cu1059 O1071   1.947   .     S
Cu1059 O1074   1.945   .     S
Cu1059 O1075   1.968   .     S
Cu1060 O1072   1.947   .     S
Cu1060 O1076   1.968   .     S
Cu1060 O1077   1.959   .     S
Cu1060 O1073   1.945   .     S
Cu1060 N1069   2.043   .     S
H1067  C1189   1.087   .     S
N1070  N181    1.291   1_556 S
N1070  O218    1.347   1_556 S
C1079  C1084   1.406   .     A
C1079  C1080   1.399   .     A
C1080  H1085   1.074   .     S
C1080  C1229   1.397   .     S
C1081  C1082   1.395   .     A
C1081  H1086   1.080   .     S
C1082  H1087   1.083   .     S
C1082  C1083   1.396   .     A
C1083  H200    1.079   1_556 S
C1084  H1089   1.083   .     S
C1084  C1231   1.400   .     S
C1090  C1091   1.405   .     A
C1090  C1095   1.399   .     A
C1091  H1096   1.083   .     S
C1092  C1093   1.397   .     A
C1092  C1239   1.399   .     S
C1093  H1098   1.083   .     S
C1093  C1094   1.396   .     A
C1094  H1099   1.079   .     S
C1094  C1243   1.397   .     S
C1095  H1100   1.080   .     S
H1097  C204    1.080   1_556 S
O1101  C1102   1.397   .     S
O1101  N181    1.349   1_556 S
C1102  H1104   1.111   .     S
C1102  H1105   1.106   .     S
C1102  H215    1.103   1_556 S
O1106  C1107   1.396   .     S
C1107  H1110   1.102   .     S
H1108  C219    1.100   1_556 S
H1109  C219    1.112   1_556 S
C1111  C1115   1.427   .     S
C1111  O1147   1.296   .     A
C1111  O1145   1.299   .     A
C1112  C1116   1.426   .     S
C1112  O1148   1.297   .     A
C1112  O1146   1.298   .     A
C1113  H1139   1.082   .     S
C1113  C1130   1.410   .     A
C1114  C1129   1.411   .     A
C1114  H1140   1.081   .     S
C1114  C1058   1.389   1_655 S
C1116  C1263   1.331   .     S
C1116  H1290   1.085   .     S
C1117  C1122   1.455   .     S
C1117  O1151   1.302   .     A
C1117  O1149   1.306   .     A
C1118  O1152   1.301   .     A
C1118  C1121   1.456   .     S
C1118  O1150   1.308   .     A
C1119  C1129   1.415   .     A
C1119  C1153   1.486   .     S
C1119  C1121   1.418   .     A
C1120  C1130   1.414   .     A
C1120  C1122   1.415   .     A
C1120  C1164   1.482   .     S
C1121  C1123   1.394   .     A
C1122  C1124   1.393   .     A
C1123  H1135   1.084   .     S
C1123  C1125   1.389   .     A
C1124  H1136   1.083   .     S
C1124  C1126   1.389   .     A
C1125  C1127   1.409   .     A
C1125  C1131   1.397   .     A
C1126  C1132   1.396   .     A
C1126  C1128   1.410   .     A
C1127  C1129   1.417   .     A
C1127  C1054   1.409   1_655 S
C1128  C1130   1.416   .     A
C1131  H1137   1.083   .     S
C1131  C1039   1.389   1_655 S
C1132  H1138   1.084   .     S
Cu1133 O1152   1.959   .     S
Cu1133 Cu1134  2.718   .     S
Cu1133 N1144   2.043   .     S
Cu1133 O1145   1.947   .     S
Cu1133 O1148   1.945   .     S
Cu1133 O1149   1.968   .     S
Cu1134 O1146   1.947   .     S
Cu1134 O1150   1.968   .     S
Cu1134 O1151   1.959   .     S
Cu1134 O1147   1.945   .     S
Cu1134 N1143   2.043   .     S
H1141  C1263   1.087   .     S
N1144  N255    1.291   1_556 S
N1144  O292    1.347   1_556 S
C1153  C1158   1.406   .     A
C1153  C1154   1.399   .     A
C1154  H1159   1.074   .     S
C1154  C1303   1.397   .     S
C1155  C1156   1.395   .     A
C1155  H1160   1.080   .     S
C1156  H1161   1.083   .     S
C1156  C1157   1.396   .     A
C1157  H274    1.079   1_556 S
C1158  H1163   1.083   .     S
C1158  C1305   1.400   .     S
C1164  C1165   1.405   .     A
C1164  C1169   1.399   .     A
C1165  H1170   1.083   .     S
C1166  C1167   1.397   .     A
C1166  C1313   1.399   .     S
C1167  H1172   1.083   .     S
C1167  C1168   1.396   .     A
C1168  H1173   1.079   .     S
C1168  C1317   1.397   .     S
C1169  H1174   1.080   .     S
H1171  C278    1.080   1_556 S
O1175  C1176   1.397   .     S
O1175  N255    1.349   1_556 S
C1176  H1178   1.111   .     S
C1176  H1179   1.106   .     S
C1176  H289    1.103   1_556 S
O1180  C1181   1.396   .     S
C1181  H1184   1.102   .     S
H1182  C293    1.100   1_556 S
H1183  C293    1.112   1_556 S
C1185  C1189   1.427   .     S
C1185  O1221   1.296   .     A
C1185  O1219   1.299   .     A
C1186  C1190   1.426   .     S
C1186  O1222   1.297   .     A
C1186  O1220   1.298   .     A
C1187  H1213   1.082   .     S
C1187  C1204   1.410   .     A
C1187  C1279   1.389   1_455 S
C1188  C1203   1.411   .     A
C1188  H1214   1.081   .     S
C1188  C1280   1.389   .     S
C1190  C893    1.331   1_565 S
C1190  H920    1.085   1_565 S
C1191  C1196   1.455   .     S
C1191  O1225   1.302   .     A
C1191  O1223   1.306   .     A
C1192  O1226   1.301   .     A
C1192  C1195   1.456   .     S
C1192  O1224   1.308   .     A
C1193  C1203   1.415   .     A
C1193  C1227   1.486   .     S
C1193  C1195   1.418   .     A
C1194  C1204   1.414   .     A
C1194  C1196   1.415   .     A
C1194  C1238   1.482   .     S
C1195  C1197   1.394   .     A
C1196  C1198   1.393   .     A
C1197  H1209   1.084   .     S
C1197  C1199   1.389   .     A
C1198  H1210   1.083   .     S
C1198  C1200   1.389   .     A
C1199  C1201   1.409   .     A
C1199  C1205   1.397   .     A
C1200  C1206   1.396   .     A
C1200  C1202   1.410   .     A
C1201  C1203   1.417   .     A
C1201  C1276   1.409   .     S
C1202  C1204   1.416   .     A
C1202  C1275   1.409   1_455 S
C1205  H1211   1.083   .     S
C1205  C1261   1.389   .     S
C1206  H1212   1.084   .     S
C1206  C1262   1.389   1_455 S
Cu1207 O1226   1.959   .     S
Cu1207 Cu1208  2.718   .     S
Cu1207 N1218   2.043   .     S
Cu1207 O1219   1.947   .     S
Cu1207 O1222   1.945   .     S
Cu1207 O1223   1.968   .     S
Cu1208 O1220   1.947   .     S
Cu1208 O1224   1.968   .     S
Cu1208 O1225   1.959   .     S
Cu1208 O1221   1.945   .     S
Cu1208 N1217   2.043   .     S
H1215  C893    1.087   1_565 S
N1218  N329    1.291   1_556 S
N1218  O366    1.347   1_556 S
C1227  C1232   1.406   .     A
C1227  C1228   1.399   .     A
C1228  H1233   1.074   .     S
C1228  C933    1.397   1_565 S
C1229  C1230   1.395   .     A
C1229  H1234   1.080   .     S
C1230  H1235   1.083   .     S
C1230  C1231   1.396   .     A
C1231  H348    1.079   1_556 S
C1232  H1237   1.083   .     S
C1232  C935    1.400   1_565 S
C1238  C1239   1.405   .     A
C1238  C1243   1.399   .     A
C1239  H1244   1.083   .     S
C1240  C1241   1.397   .     A
C1240  C943    1.399   1_565 S
C1241  H1246   1.083   .     S
C1241  C1242   1.396   .     A
C1242  H1247   1.079   .     S
C1242  C947    1.397   1_565 S
C1243  H1248   1.080   .     S
H1245  C352    1.080   1_556 S
O1249  C1250   1.397   .     S
O1249  N329    1.349   1_556 S
C1250  H1252   1.111   .     S
C1250  H1253   1.106   .     S
C1250  H363    1.103   1_556 S
O1254  C1255   1.396   .     S
C1255  H1258   1.102   .     S
H1256  C367    1.100   1_556 S
H1257  C367    1.112   1_556 S
C1259  C1263   1.427   .     S
C1259  O1295   1.296   .     A
C1259  O1293   1.299   .     A
C1260  C1264   1.426   .     S
C1260  O1296   1.297   .     A
C1260  O1294   1.298   .     A
C1261  H1287   1.082   .     S
C1261  C1278   1.410   .     A
C1262  C1277   1.411   .     A
C1262  H1288   1.081   .     S
C1262  C1206   1.389   1_655 S
C1264  C967    1.331   1_565 S
C1264  H994    1.085   1_565 S
C1265  C1270   1.455   .     S
C1265  O1299   1.302   .     A
C1265  O1297   1.306   .     A
C1266  O1300   1.301   .     A
C1266  C1269   1.456   .     S
C1266  O1298   1.308   .     A
C1267  C1277   1.415   .     A
C1267  C1301   1.486   .     S
C1267  C1269   1.418   .     A
C1268  C1278   1.414   .     A
C1268  C1270   1.415   .     A
C1268  C1312   1.482   .     S
C1269  C1271   1.394   .     A
C1270  C1272   1.393   .     A
C1271  H1283   1.084   .     S
C1271  C1273   1.389   .     A
C1272  H1284   1.083   .     S
C1272  C1274   1.389   .     A
C1273  C1275   1.409   .     A
C1273  C1279   1.397   .     A
C1274  C1280   1.396   .     A
C1274  C1276   1.410   .     A
C1275  C1277   1.417   .     A
C1275  C1202   1.409   1_655 S
C1276  C1278   1.416   .     A
C1279  H1285   1.083   .     S
C1279  C1187   1.389   1_655 S
C1280  H1286   1.084   .     S
Cu1281 O1300   1.959   .     S
Cu1281 Cu1282  2.718   .     S
Cu1281 N1292   2.043   .     S
Cu1281 O1293   1.947   .     S
Cu1281 O1296   1.945   .     S
Cu1281 O1297   1.968   .     S
Cu1282 O1294   1.947   .     S
Cu1282 O1298   1.968   .     S
Cu1282 O1299   1.959   .     S
Cu1282 O1295   1.945   .     S
Cu1282 N1291   2.043   .     S
H1289  C967    1.087   1_565 S
N1292  N403    1.291   1_556 S
N1292  O440    1.347   1_556 S
C1301  C1306   1.406   .     A
C1301  C1302   1.399   .     A
C1302  H1307   1.074   .     S
C1302  C1007   1.397   1_565 S
C1303  C1304   1.395   .     A
C1303  H1308   1.080   .     S
C1304  H1309   1.083   .     S
C1304  C1305   1.396   .     A
C1305  H422    1.079   1_556 S
C1306  H1311   1.083   .     S
C1306  C1009   1.400   1_565 S
C1312  C1313   1.405   .     A
C1312  C1317   1.399   .     A
C1313  H1318   1.083   .     S
C1314  C1315   1.397   .     A
C1314  C1017   1.399   1_565 S
C1315  H1320   1.083   .     S
C1315  C1316   1.396   .     A
C1316  H1321   1.079   .     S
C1316  C1021   1.397   1_565 S
C1317  H1322   1.080   .     S
H1319  C426    1.080   1_556 S
O1323  C1324   1.397   .     S
O1323  N403    1.349   1_556 S
C1324  H1326   1.111   .     S
C1324  H1327   1.106   .     S
C1324  H437    1.103   1_556 S
O1328  C1329   1.396   .     S
C1329  H1332   1.102   .     S
H1330  C441    1.100   1_556 S
H1331  C441    1.112   1_556 S
