data_str_m2_o1_o10_pcu_sym.172
_audit_creation_date              2020-01-03
_audit_creation_method            'Materials Studio'
_symmetry_space_group_name_H-M    'P1'
_symmetry_Int_Tables_number       1
_symmetry_cell_setting            triclinic
loop_
_symmetry_equiv_pos_as_xyz
  x,y,z
_cell_length_a                    26.1925
_cell_length_b                    32.4936
_cell_length_c                    29.0623
_cell_angle_alpha                 90.0084
_cell_angle_beta                  97.8790
_cell_angle_gamma                 94.9428
loop_
_atom_site_label
_atom_site_type_symbol
_atom_site_fract_x
_atom_site_fract_y
_atom_site_fract_z
_atom_site_U_iso_or_equiv
_atom_site_adp_type
_atom_site_occupancy
C1     C     0.16647   0.08751   0.16663   0.00000  Uiso   1.00
C2     C     0.16686   0.24582   0.16670   0.00000  Uiso   1.00
C3     C     0.06810   0.16651   0.15469   0.00000  Uiso   1.00
C4     C     0.26524   0.16683   0.17865   0.00000  Uiso   1.00
C5     C     0.01269   0.16645   0.14823   0.00000  Uiso   1.00
C6     C     0.32064   0.16688   0.18510   0.00000  Uiso   1.00
C7     C     0.16657   0.02128   0.12485   0.00000  Uiso   1.00
C8     C     0.16676   0.31205   0.20848   0.00000  Uiso   1.00
C9     C     0.16674   0.31203   0.12488   0.00000  Uiso   1.00
C10    C     0.16659   0.02130   0.20845   0.00000  Uiso   1.00
C11    C     0.16683   0.29053   0.16669   0.00000  Uiso   1.00
C12    C     0.16650   0.04280   0.16664   0.00000  Uiso   1.00
C13    C     0.13279   0.13980   0.02051   0.00000  Uiso   1.00
C14    C     0.20055   0.19354   0.31282   0.00000  Uiso   1.00
C15    C     0.13281   0.13979   0.30443   0.00000  Uiso   1.00
C16    C     0.20052   0.19354   0.02890   0.00000  Uiso   1.00
Cu17   Cu    0.16667   0.16667   0.21355   0.00000  Uiso   1.00
Cu18   Cu    0.16667   0.16666   0.11978   0.00000  Uiso   1.00
H19    H     0.32606   0.16604   0.11287   0.00000  Uiso   1.00
H20    H     0.00728   0.16729   0.22047   0.00000  Uiso   1.00
H21    H     0.16654   0.03724   0.09213   0.00000  Uiso   1.00
H22    H     0.16680   0.29609   0.24120   0.00000  Uiso   1.00
H23    H     0.16677   0.29605   0.09217   0.00000  Uiso   1.00
H24    H     0.16657   0.03728   0.24116   0.00000  Uiso   1.00
N25    N     0.16668   0.16668   0.28403   0.00000  Uiso   1.00
N26    N     0.16665   0.16666   0.04931   0.00000  Uiso   1.00
O27    O     0.16666   0.10655   0.20625   0.00000  Uiso   1.00
O28    O     0.16667   0.22678   0.12709   0.00000  Uiso   1.00
O29    O     0.16666   0.10654   0.12706   0.00000  Uiso   1.00
O30    O     0.16667   0.22679   0.20628   0.00000  Uiso   1.00
O31    O     0.09161   0.16667   0.19712   0.00000  Uiso   1.00
O32    O     0.24172   0.16666   0.13621   0.00000  Uiso   1.00
O33    O     0.09161   0.16666   0.11793   0.00000  Uiso   1.00
O34    O     0.24172   0.16667   0.21540   0.00000  Uiso   1.00
C35    C     0.09408   0.10910   0.03961   0.00000  Uiso   1.00
H36    H     0.05409   0.11525   0.02507   0.00000  Uiso   1.00
H37    H     0.10117   0.07710   0.03061   0.00000  Uiso   1.00
H38    H     0.09442   0.10906   0.07688   0.00000  Uiso   1.00
C39    C     0.23925   0.22423   0.29373   0.00000  Uiso   1.00
H40    H     0.23215   0.25622   0.30272   0.00000  Uiso   1.00
H41    H     0.27924   0.21809   0.30826   0.00000  Uiso   1.00
H42    H     0.23891   0.22428   0.25646   0.00000  Uiso   1.00
C43    C     0.09424   0.10897   0.27580   0.00000  Uiso   1.00
H44    H     0.09442   0.10896   0.23859   0.00000  Uiso   1.00
H45    H     0.10161   0.07702   0.28652   0.00000  Uiso   1.00
H46    H     0.05420   0.11489   0.28057   0.00000  Uiso   1.00
C47    C     0.23910   0.22436   0.05753   0.00000  Uiso   1.00
H48    H     0.23891   0.22437   0.09474   0.00000  Uiso   1.00
H49    H     0.27914   0.21843   0.05277   0.00000  Uiso   1.00
H50    H     0.23174   0.25631   0.04681   0.00000  Uiso   1.00
C51    C     0.49980   0.08751   0.16663   0.00000  Uiso   1.00
C52    C     0.50020   0.24582   0.16670   0.00000  Uiso   1.00
C53    C     0.40143   0.16651   0.15469   0.00000  Uiso   1.00
C54    C     0.59857   0.16683   0.17865   0.00000  Uiso   1.00
C55    C     0.34603   0.16645   0.14823   0.00000  Uiso   1.00
C56    C     0.65397   0.16688   0.18510   0.00000  Uiso   1.00
C57    C     0.49991   0.02128   0.12485   0.00000  Uiso   1.00
C58    C     0.50009   0.31205   0.20848   0.00000  Uiso   1.00
C59    C     0.50008   0.31203   0.12488   0.00000  Uiso   1.00
C60    C     0.49992   0.02130   0.20845   0.00000  Uiso   1.00
C61    C     0.50016   0.29053   0.16669   0.00000  Uiso   1.00
C62    C     0.49984   0.04280   0.16664   0.00000  Uiso   1.00
C63    C     0.46612   0.13980   0.02051   0.00000  Uiso   1.00
C64    C     0.53388   0.19354   0.31282   0.00000  Uiso   1.00
C65    C     0.46614   0.13979   0.30443   0.00000  Uiso   1.00
C66    C     0.53386   0.19354   0.02890   0.00000  Uiso   1.00
Cu67   Cu    0.50000   0.16667   0.21355   0.00000  Uiso   1.00
Cu68   Cu    0.50000   0.16666   0.11978   0.00000  Uiso   1.00
H69    H     0.65939   0.16604   0.11287   0.00000  Uiso   1.00
H70    H     0.34061   0.16729   0.22047   0.00000  Uiso   1.00
H71    H     0.49987   0.03724   0.09213   0.00000  Uiso   1.00
H72    H     0.50013   0.29609   0.24120   0.00000  Uiso   1.00
H73    H     0.50010   0.29605   0.09217   0.00000  Uiso   1.00
H74    H     0.49990   0.03728   0.24116   0.00000  Uiso   1.00
N75    N     0.50001   0.16668   0.28403   0.00000  Uiso   1.00
N76    N     0.49999   0.16666   0.04931   0.00000  Uiso   1.00
O77    O     0.50000   0.10655   0.20625   0.00000  Uiso   1.00
O78    O     0.50000   0.22678   0.12709   0.00000  Uiso   1.00
O79    O     0.50000   0.10654   0.12706   0.00000  Uiso   1.00
O80    O     0.50000   0.22679   0.20628   0.00000  Uiso   1.00
O81    O     0.42495   0.16667   0.19712   0.00000  Uiso   1.00
O82    O     0.57505   0.16666   0.13621   0.00000  Uiso   1.00
O83    O     0.42494   0.16666   0.11793   0.00000  Uiso   1.00
O84    O     0.57506   0.16667   0.21540   0.00000  Uiso   1.00
C85    C     0.42742   0.10910   0.03961   0.00000  Uiso   1.00
H86    H     0.38742   0.11525   0.02507   0.00000  Uiso   1.00
H87    H     0.43451   0.07710   0.03061   0.00000  Uiso   1.00
H88    H     0.42776   0.10906   0.07688   0.00000  Uiso   1.00
C89    C     0.57258   0.22423   0.29373   0.00000  Uiso   1.00
H90    H     0.56548   0.25622   0.30272   0.00000  Uiso   1.00
H91    H     0.61258   0.21809   0.30826   0.00000  Uiso   1.00
H92    H     0.57225   0.22428   0.25646   0.00000  Uiso   1.00
C93    C     0.42757   0.10897   0.27580   0.00000  Uiso   1.00
H94    H     0.42776   0.10896   0.23859   0.00000  Uiso   1.00
H95    H     0.43494   0.07702   0.28652   0.00000  Uiso   1.00
H96    H     0.38754   0.11489   0.28057   0.00000  Uiso   1.00
C97    C     0.57243   0.22436   0.05753   0.00000  Uiso   1.00
H98    H     0.57224   0.22437   0.09474   0.00000  Uiso   1.00
H99    H     0.61247   0.21843   0.05277   0.00000  Uiso   1.00
H100   H     0.56508   0.25631   0.04681   0.00000  Uiso   1.00
C101   C     0.83314   0.08751   0.16663   0.00000  Uiso   1.00
C102   C     0.83353   0.24582   0.16670   0.00000  Uiso   1.00
C103   C     0.73476   0.16651   0.15469   0.00000  Uiso   1.00
C104   C     0.93190   0.16683   0.17865   0.00000  Uiso   1.00
C105   C     0.67936   0.16645   0.14823   0.00000  Uiso   1.00
C106   C     0.98730   0.16688   0.18510   0.00000  Uiso   1.00
C107   C     0.83324   0.02128   0.12485   0.00000  Uiso   1.00
C108   C     0.83342   0.31205   0.20848   0.00000  Uiso   1.00
C109   C     0.83341   0.31203   0.12488   0.00000  Uiso   1.00
C110   C     0.83325   0.02130   0.20845   0.00000  Uiso   1.00
C111   C     0.83350   0.29053   0.16669   0.00000  Uiso   1.00
C112   C     0.83317   0.04280   0.16664   0.00000  Uiso   1.00
C113   C     0.79945   0.13980   0.02051   0.00000  Uiso   1.00
C114   C     0.86721   0.19354   0.31282   0.00000  Uiso   1.00
C115   C     0.79948   0.13979   0.30443   0.00000  Uiso   1.00
C116   C     0.86719   0.19354   0.02890   0.00000  Uiso   1.00
Cu117  Cu    0.83333   0.16667   0.21355   0.00000  Uiso   1.00
Cu118  Cu    0.83333   0.16666   0.11978   0.00000  Uiso   1.00
H119   H     0.99272   0.16604   0.11287   0.00000  Uiso   1.00
H120   H     0.67394   0.16729   0.22047   0.00000  Uiso   1.00
H121   H     0.83321   0.03724   0.09213   0.00000  Uiso   1.00
H122   H     0.83346   0.29609   0.24120   0.00000  Uiso   1.00
H123   H     0.83343   0.29605   0.09217   0.00000  Uiso   1.00
H124   H     0.83323   0.03728   0.24116   0.00000  Uiso   1.00
N125   N     0.83335   0.16668   0.28403   0.00000  Uiso   1.00
N126   N     0.83332   0.16666   0.04931   0.00000  Uiso   1.00
O127   O     0.83333   0.10655   0.20625   0.00000  Uiso   1.00
O128   O     0.83334   0.22678   0.12709   0.00000  Uiso   1.00
O129   O     0.83333   0.10654   0.12706   0.00000  Uiso   1.00
O130   O     0.83334   0.22679   0.20628   0.00000  Uiso   1.00
O131   O     0.75828   0.16667   0.19712   0.00000  Uiso   1.00
O132   O     0.90839   0.16666   0.13621   0.00000  Uiso   1.00
O133   O     0.75828   0.16666   0.11793   0.00000  Uiso   1.00
O134   O     0.90839   0.16667   0.21540   0.00000  Uiso   1.00
C135   C     0.76075   0.10910   0.03961   0.00000  Uiso   1.00
H136   H     0.72075   0.11525   0.02507   0.00000  Uiso   1.00
H137   H     0.76784   0.07710   0.03061   0.00000  Uiso   1.00
H138   H     0.76109   0.10906   0.07688   0.00000  Uiso   1.00
C139   C     0.90592   0.22423   0.29373   0.00000  Uiso   1.00
H140   H     0.89882   0.25622   0.30272   0.00000  Uiso   1.00
H141   H     0.94591   0.21809   0.30826   0.00000  Uiso   1.00
H142   H     0.90558   0.22428   0.25646   0.00000  Uiso   1.00
C143   C     0.76090   0.10897   0.27580   0.00000  Uiso   1.00
H144   H     0.76109   0.10896   0.23859   0.00000  Uiso   1.00
H145   H     0.76828   0.07702   0.28652   0.00000  Uiso   1.00
H146   H     0.72087   0.11489   0.28057   0.00000  Uiso   1.00
C147   C     0.90577   0.22436   0.05753   0.00000  Uiso   1.00
H148   H     0.90558   0.22437   0.09474   0.00000  Uiso   1.00
H149   H     0.94580   0.21843   0.05277   0.00000  Uiso   1.00
H150   H     0.89841   0.25631   0.04681   0.00000  Uiso   1.00
C151   C     0.16647   0.42084   0.16663   0.00000  Uiso   1.00
C152   C     0.16686   0.57916   0.16670   0.00000  Uiso   1.00
C153   C     0.06810   0.49984   0.15469   0.00000  Uiso   1.00
C154   C     0.26524   0.50016   0.17865   0.00000  Uiso   1.00
C155   C     0.01269   0.49979   0.14823   0.00000  Uiso   1.00
C156   C     0.32064   0.50021   0.18510   0.00000  Uiso   1.00
C157   C     0.16657   0.35462   0.12485   0.00000  Uiso   1.00
C158   C     0.16676   0.64538   0.20848   0.00000  Uiso   1.00
C159   C     0.16674   0.64536   0.12488   0.00000  Uiso   1.00
C160   C     0.16659   0.35464   0.20845   0.00000  Uiso   1.00
C161   C     0.16683   0.62386   0.16669   0.00000  Uiso   1.00
C162   C     0.16650   0.37614   0.16664   0.00000  Uiso   1.00
C163   C     0.13279   0.47313   0.02051   0.00000  Uiso   1.00
C164   C     0.20055   0.52687   0.31282   0.00000  Uiso   1.00
C165   C     0.13281   0.47312   0.30443   0.00000  Uiso   1.00
C166   C     0.20052   0.52688   0.02890   0.00000  Uiso   1.00
Cu167  Cu    0.16667   0.50001   0.21355   0.00000  Uiso   1.00
Cu168  Cu    0.16667   0.49999   0.11978   0.00000  Uiso   1.00
H169   H     0.32606   0.49938   0.11287   0.00000  Uiso   1.00
H170   H     0.00728   0.50062   0.22047   0.00000  Uiso   1.00
H171   H     0.16654   0.37058   0.09213   0.00000  Uiso   1.00
H172   H     0.16680   0.62942   0.24120   0.00000  Uiso   1.00
H173   H     0.16677   0.62938   0.09217   0.00000  Uiso   1.00
H174   H     0.16657   0.37062   0.24116   0.00000  Uiso   1.00
N175   N     0.16668   0.50001   0.28403   0.00000  Uiso   1.00
N176   N     0.16665   0.49999   0.04931   0.00000  Uiso   1.00
O177   O     0.16666   0.43989   0.20625   0.00000  Uiso   1.00
O178   O     0.16667   0.56011   0.12709   0.00000  Uiso   1.00
O179   O     0.16666   0.43988   0.12706   0.00000  Uiso   1.00
O180   O     0.16667   0.56012   0.20628   0.00000  Uiso   1.00
O181   O     0.09161   0.50000   0.19712   0.00000  Uiso   1.00
O182   O     0.24172   0.50000   0.13621   0.00000  Uiso   1.00
O183   O     0.09161   0.49999   0.11793   0.00000  Uiso   1.00
O184   O     0.24172   0.50001   0.21540   0.00000  Uiso   1.00
C185   C     0.09408   0.44243   0.03961   0.00000  Uiso   1.00
H186   H     0.05409   0.44859   0.02507   0.00000  Uiso   1.00
H187   H     0.10117   0.41044   0.03061   0.00000  Uiso   1.00
H188   H     0.09442   0.44239   0.07688   0.00000  Uiso   1.00
C189   C     0.23925   0.55757   0.29373   0.00000  Uiso   1.00
H190   H     0.23215   0.58956   0.30272   0.00000  Uiso   1.00
H191   H     0.27924   0.55142   0.30826   0.00000  Uiso   1.00
H192   H     0.23891   0.55761   0.25646   0.00000  Uiso   1.00
C193   C     0.09424   0.44230   0.27580   0.00000  Uiso   1.00
H194   H     0.09442   0.44229   0.23859   0.00000  Uiso   1.00
H195   H     0.10161   0.41035   0.28652   0.00000  Uiso   1.00
H196   H     0.05420   0.44822   0.28057   0.00000  Uiso   1.00
C197   C     0.23910   0.55770   0.05753   0.00000  Uiso   1.00
H198   H     0.23891   0.55771   0.09474   0.00000  Uiso   1.00
H199   H     0.27914   0.55177   0.05277   0.00000  Uiso   1.00
H200   H     0.23174   0.58965   0.04681   0.00000  Uiso   1.00
C201   C     0.49980   0.42084   0.16663   0.00000  Uiso   1.00
C202   C     0.50020   0.57916   0.16670   0.00000  Uiso   1.00
C203   C     0.40143   0.49984   0.15469   0.00000  Uiso   1.00
C204   C     0.59857   0.50016   0.17865   0.00000  Uiso   1.00
C205   C     0.34603   0.49979   0.14823   0.00000  Uiso   1.00
C206   C     0.65397   0.50021   0.18510   0.00000  Uiso   1.00
C207   C     0.49991   0.35462   0.12485   0.00000  Uiso   1.00
C208   C     0.50009   0.64538   0.20848   0.00000  Uiso   1.00
C209   C     0.50008   0.64536   0.12488   0.00000  Uiso   1.00
C210   C     0.49992   0.35464   0.20845   0.00000  Uiso   1.00
C211   C     0.50016   0.62386   0.16669   0.00000  Uiso   1.00
C212   C     0.49984   0.37614   0.16664   0.00000  Uiso   1.00
C213   C     0.46612   0.47313   0.02051   0.00000  Uiso   1.00
C214   C     0.53388   0.52687   0.31282   0.00000  Uiso   1.00
C215   C     0.46614   0.47312   0.30443   0.00000  Uiso   1.00
C216   C     0.53386   0.52688   0.02890   0.00000  Uiso   1.00
Cu217  Cu    0.50000   0.50001   0.21355   0.00000  Uiso   1.00
Cu218  Cu    0.50000   0.49999   0.11978   0.00000  Uiso   1.00
H219   H     0.65939   0.49938   0.11287   0.00000  Uiso   1.00
H220   H     0.34061   0.50062   0.22047   0.00000  Uiso   1.00
H221   H     0.49987   0.37058   0.09213   0.00000  Uiso   1.00
H222   H     0.50013   0.62942   0.24120   0.00000  Uiso   1.00
H223   H     0.50010   0.62938   0.09217   0.00000  Uiso   1.00
H224   H     0.49990   0.37062   0.24116   0.00000  Uiso   1.00
N225   N     0.50001   0.50001   0.28403   0.00000  Uiso   1.00
N226   N     0.49999   0.49999   0.04931   0.00000  Uiso   1.00
O227   O     0.50000   0.43989   0.20625   0.00000  Uiso   1.00
O228   O     0.50000   0.56011   0.12709   0.00000  Uiso   1.00
O229   O     0.50000   0.43988   0.12706   0.00000  Uiso   1.00
O230   O     0.50000   0.56012   0.20628   0.00000  Uiso   1.00
O231   O     0.42495   0.50000   0.19712   0.00000  Uiso   1.00
O232   O     0.57505   0.50000   0.13621   0.00000  Uiso   1.00
O233   O     0.42494   0.49999   0.11793   0.00000  Uiso   1.00
O234   O     0.57506   0.50001   0.21540   0.00000  Uiso   1.00
C235   C     0.42742   0.44243   0.03961   0.00000  Uiso   1.00
H236   H     0.38742   0.44859   0.02507   0.00000  Uiso   1.00
H237   H     0.43451   0.41044   0.03061   0.00000  Uiso   1.00
H238   H     0.42776   0.44239   0.07688   0.00000  Uiso   1.00
C239   C     0.57258   0.55757   0.29373   0.00000  Uiso   1.00
H240   H     0.56548   0.58956   0.30272   0.00000  Uiso   1.00
H241   H     0.61258   0.55142   0.30826   0.00000  Uiso   1.00
H242   H     0.57225   0.55761   0.25646   0.00000  Uiso   1.00
C243   C     0.42757   0.44230   0.27580   0.00000  Uiso   1.00
H244   H     0.42776   0.44229   0.23859   0.00000  Uiso   1.00
H245   H     0.43494   0.41035   0.28652   0.00000  Uiso   1.00
H246   H     0.38754   0.44822   0.28057   0.00000  Uiso   1.00
C247   C     0.57243   0.55770   0.05753   0.00000  Uiso   1.00
H248   H     0.57224   0.55771   0.09474   0.00000  Uiso   1.00
H249   H     0.61247   0.55177   0.05277   0.00000  Uiso   1.00
H250   H     0.56508   0.58965   0.04681   0.00000  Uiso   1.00
C251   C     0.83314   0.42084   0.16663   0.00000  Uiso   1.00
C252   C     0.83353   0.57916   0.16670   0.00000  Uiso   1.00
C253   C     0.73476   0.49984   0.15469   0.00000  Uiso   1.00
C254   C     0.93190   0.50016   0.17865   0.00000  Uiso   1.00
C255   C     0.67936   0.49979   0.14823   0.00000  Uiso   1.00
C256   C     0.98730   0.50021   0.18510   0.00000  Uiso   1.00
C257   C     0.83324   0.35462   0.12485   0.00000  Uiso   1.00
C258   C     0.83342   0.64538   0.20848   0.00000  Uiso   1.00
C259   C     0.83341   0.64536   0.12488   0.00000  Uiso   1.00
C260   C     0.83325   0.35464   0.20845   0.00000  Uiso   1.00
C261   C     0.83350   0.62386   0.16669   0.00000  Uiso   1.00
C262   C     0.83317   0.37614   0.16664   0.00000  Uiso   1.00
C263   C     0.79945   0.47313   0.02051   0.00000  Uiso   1.00
C264   C     0.86721   0.52687   0.31282   0.00000  Uiso   1.00
C265   C     0.79948   0.47312   0.30443   0.00000  Uiso   1.00
C266   C     0.86719   0.52688   0.02890   0.00000  Uiso   1.00
Cu267  Cu    0.83333   0.50001   0.21355   0.00000  Uiso   1.00
Cu268  Cu    0.83333   0.49999   0.11978   0.00000  Uiso   1.00
H269   H     0.99272   0.49938   0.11287   0.00000  Uiso   1.00
H270   H     0.67394   0.50062   0.22047   0.00000  Uiso   1.00
H271   H     0.83321   0.37058   0.09213   0.00000  Uiso   1.00
H272   H     0.83346   0.62942   0.24120   0.00000  Uiso   1.00
H273   H     0.83343   0.62938   0.09217   0.00000  Uiso   1.00
H274   H     0.83323   0.37062   0.24116   0.00000  Uiso   1.00
N275   N     0.83335   0.50001   0.28403   0.00000  Uiso   1.00
N276   N     0.83332   0.49999   0.04931   0.00000  Uiso   1.00
O277   O     0.83333   0.43989   0.20625   0.00000  Uiso   1.00
O278   O     0.83334   0.56011   0.12709   0.00000  Uiso   1.00
O279   O     0.83333   0.43988   0.12706   0.00000  Uiso   1.00
O280   O     0.83334   0.56012   0.20628   0.00000  Uiso   1.00
O281   O     0.75828   0.50000   0.19712   0.00000  Uiso   1.00
O282   O     0.90839   0.50000   0.13621   0.00000  Uiso   1.00
O283   O     0.75828   0.49999   0.11793   0.00000  Uiso   1.00
O284   O     0.90839   0.50001   0.21540   0.00000  Uiso   1.00
C285   C     0.76075   0.44243   0.03961   0.00000  Uiso   1.00
H286   H     0.72075   0.44859   0.02507   0.00000  Uiso   1.00
H287   H     0.76784   0.41044   0.03061   0.00000  Uiso   1.00
H288   H     0.76109   0.44239   0.07688   0.00000  Uiso   1.00
C289   C     0.90592   0.55757   0.29373   0.00000  Uiso   1.00
H290   H     0.89882   0.58956   0.30272   0.00000  Uiso   1.00
H291   H     0.94591   0.55142   0.30826   0.00000  Uiso   1.00
H292   H     0.90558   0.55761   0.25646   0.00000  Uiso   1.00
C293   C     0.76090   0.44230   0.27580   0.00000  Uiso   1.00
H294   H     0.76109   0.44229   0.23859   0.00000  Uiso   1.00
H295   H     0.76828   0.41035   0.28652   0.00000  Uiso   1.00
H296   H     0.72087   0.44822   0.28057   0.00000  Uiso   1.00
C297   C     0.90577   0.55770   0.05753   0.00000  Uiso   1.00
H298   H     0.90558   0.55771   0.09474   0.00000  Uiso   1.00
H299   H     0.94580   0.55177   0.05277   0.00000  Uiso   1.00
H300   H     0.89841   0.58965   0.04681   0.00000  Uiso   1.00
C301   C     0.16647   0.75418   0.16663   0.00000  Uiso   1.00
C302   C     0.16686   0.91249   0.16670   0.00000  Uiso   1.00
C303   C     0.06810   0.83317   0.15469   0.00000  Uiso   1.00
C304   C     0.26524   0.83349   0.17865   0.00000  Uiso   1.00
C305   C     0.01269   0.83312   0.14823   0.00000  Uiso   1.00
C306   C     0.32064   0.83355   0.18510   0.00000  Uiso   1.00
C307   C     0.16657   0.68795   0.12485   0.00000  Uiso   1.00
C308   C     0.16676   0.97872   0.20848   0.00000  Uiso   1.00
C309   C     0.16674   0.97869   0.12488   0.00000  Uiso   1.00
C310   C     0.16659   0.68797   0.20845   0.00000  Uiso   1.00
C311   C     0.16683   0.95720   0.16669   0.00000  Uiso   1.00
C312   C     0.16650   0.70947   0.16664   0.00000  Uiso   1.00
C313   C     0.13279   0.80646   0.02051   0.00000  Uiso   1.00
C314   C     0.20055   0.86020   0.31282   0.00000  Uiso   1.00
C315   C     0.13281   0.80646   0.30443   0.00000  Uiso   1.00
C316   C     0.20052   0.86021   0.02890   0.00000  Uiso   1.00
Cu317  Cu    0.16667   0.83334   0.21355   0.00000  Uiso   1.00
Cu318  Cu    0.16667   0.83333   0.11978   0.00000  Uiso   1.00
H319   H     0.32606   0.83271   0.11287   0.00000  Uiso   1.00
H320   H     0.00728   0.83395   0.22047   0.00000  Uiso   1.00
H321   H     0.16654   0.70391   0.09213   0.00000  Uiso   1.00
H322   H     0.16680   0.96276   0.24120   0.00000  Uiso   1.00
H323   H     0.16677   0.96272   0.09217   0.00000  Uiso   1.00
H324   H     0.16657   0.70395   0.24116   0.00000  Uiso   1.00
N325   N     0.16668   0.83334   0.28403   0.00000  Uiso   1.00
N326   N     0.16665   0.83332   0.04931   0.00000  Uiso   1.00
O327   O     0.16666   0.77322   0.20625   0.00000  Uiso   1.00
O328   O     0.16667   0.89345   0.12709   0.00000  Uiso   1.00
O329   O     0.16666   0.77321   0.12706   0.00000  Uiso   1.00
O330   O     0.16667   0.89346   0.20628   0.00000  Uiso   1.00
O331   O     0.09161   0.83334   0.19712   0.00000  Uiso   1.00
O332   O     0.24172   0.83333   0.13621   0.00000  Uiso   1.00
O333   O     0.09161   0.83333   0.11793   0.00000  Uiso   1.00
O334   O     0.24172   0.83334   0.21540   0.00000  Uiso   1.00
C335   C     0.09408   0.77577   0.03961   0.00000  Uiso   1.00
H336   H     0.05409   0.78192   0.02507   0.00000  Uiso   1.00
H337   H     0.10117   0.74377   0.03061   0.00000  Uiso   1.00
H338   H     0.09442   0.77572   0.07688   0.00000  Uiso   1.00
C339   C     0.23925   0.89090   0.29373   0.00000  Uiso   1.00
H340   H     0.23215   0.92289   0.30272   0.00000  Uiso   1.00
H341   H     0.27924   0.88476   0.30826   0.00000  Uiso   1.00
H342   H     0.23891   0.89094   0.25646   0.00000  Uiso   1.00
C343   C     0.09424   0.77563   0.27580   0.00000  Uiso   1.00
H344   H     0.09442   0.77563   0.23859   0.00000  Uiso   1.00
H345   H     0.10161   0.74368   0.28652   0.00000  Uiso   1.00
H346   H     0.05420   0.78155   0.28057   0.00000  Uiso   1.00
C347   C     0.23910   0.89103   0.05753   0.00000  Uiso   1.00
H348   H     0.23891   0.89104   0.09474   0.00000  Uiso   1.00
H349   H     0.27914   0.88510   0.05277   0.00000  Uiso   1.00
H350   H     0.23174   0.92298   0.04681   0.00000  Uiso   1.00
C351   C     0.49980   0.75418   0.16663   0.00000  Uiso   1.00
C352   C     0.50020   0.91249   0.16670   0.00000  Uiso   1.00
C353   C     0.40143   0.83317   0.15469   0.00000  Uiso   1.00
C354   C     0.59857   0.83349   0.17865   0.00000  Uiso   1.00
C355   C     0.34603   0.83312   0.14823   0.00000  Uiso   1.00
C356   C     0.65397   0.83355   0.18510   0.00000  Uiso   1.00
C357   C     0.49991   0.68795   0.12485   0.00000  Uiso   1.00
C358   C     0.50009   0.97872   0.20848   0.00000  Uiso   1.00
C359   C     0.50008   0.97869   0.12488   0.00000  Uiso   1.00
C360   C     0.49992   0.68797   0.20845   0.00000  Uiso   1.00
C361   C     0.50016   0.95720   0.16669   0.00000  Uiso   1.00
C362   C     0.49984   0.70947   0.16664   0.00000  Uiso   1.00
C363   C     0.46612   0.80646   0.02051   0.00000  Uiso   1.00
C364   C     0.53388   0.86020   0.31282   0.00000  Uiso   1.00
C365   C     0.46614   0.80646   0.30443   0.00000  Uiso   1.00
C366   C     0.53386   0.86021   0.02890   0.00000  Uiso   1.00
Cu367  Cu    0.50000   0.83334   0.21355   0.00000  Uiso   1.00
Cu368  Cu    0.50000   0.83333   0.11978   0.00000  Uiso   1.00
H369   H     0.65939   0.83271   0.11287   0.00000  Uiso   1.00
H370   H     0.34061   0.83395   0.22047   0.00000  Uiso   1.00
H371   H     0.49987   0.70391   0.09213   0.00000  Uiso   1.00
H372   H     0.50013   0.96276   0.24120   0.00000  Uiso   1.00
H373   H     0.50010   0.96272   0.09217   0.00000  Uiso   1.00
H374   H     0.49990   0.70395   0.24116   0.00000  Uiso   1.00
N375   N     0.50001   0.83334   0.28403   0.00000  Uiso   1.00
N376   N     0.49999   0.83332   0.04931   0.00000  Uiso   1.00
O377   O     0.50000   0.77322   0.20625   0.00000  Uiso   1.00
O378   O     0.50000   0.89345   0.12709   0.00000  Uiso   1.00
O379   O     0.50000   0.77321   0.12706   0.00000  Uiso   1.00
O380   O     0.50000   0.89346   0.20628   0.00000  Uiso   1.00
O381   O     0.42495   0.83334   0.19712   0.00000  Uiso   1.00
O382   O     0.57505   0.83333   0.13621   0.00000  Uiso   1.00
O383   O     0.42494   0.83333   0.11793   0.00000  Uiso   1.00
O384   O     0.57506   0.83334   0.21540   0.00000  Uiso   1.00
C385   C     0.42742   0.77577   0.03961   0.00000  Uiso   1.00
H386   H     0.38742   0.78192   0.02507   0.00000  Uiso   1.00
H387   H     0.43451   0.74377   0.03061   0.00000  Uiso   1.00
H388   H     0.42776   0.77572   0.07688   0.00000  Uiso   1.00
C389   C     0.57258   0.89090   0.29373   0.00000  Uiso   1.00
H390   H     0.56548   0.92289   0.30272   0.00000  Uiso   1.00
H391   H     0.61258   0.88476   0.30826   0.00000  Uiso   1.00
H392   H     0.57225   0.89094   0.25646   0.00000  Uiso   1.00
C393   C     0.42757   0.77563   0.27580   0.00000  Uiso   1.00
H394   H     0.42776   0.77563   0.23859   0.00000  Uiso   1.00
H395   H     0.43494   0.74368   0.28652   0.00000  Uiso   1.00
H396   H     0.38754   0.78155   0.28057   0.00000  Uiso   1.00
C397   C     0.57243   0.89103   0.05753   0.00000  Uiso   1.00
H398   H     0.57224   0.89104   0.09474   0.00000  Uiso   1.00
H399   H     0.61247   0.88510   0.05277   0.00000  Uiso   1.00
H400   H     0.56508   0.92298   0.04681   0.00000  Uiso   1.00
C401   C     0.83314   0.75418   0.16663   0.00000  Uiso   1.00
C402   C     0.83353   0.91249   0.16670   0.00000  Uiso   1.00
C403   C     0.73476   0.83317   0.15469   0.00000  Uiso   1.00
C404   C     0.93190   0.83349   0.17865   0.00000  Uiso   1.00
C405   C     0.67936   0.83312   0.14823   0.00000  Uiso   1.00
C406   C     0.98730   0.83355   0.18510   0.00000  Uiso   1.00
C407   C     0.83324   0.68795   0.12485   0.00000  Uiso   1.00
C408   C     0.83342   0.97872   0.20848   0.00000  Uiso   1.00
C409   C     0.83341   0.97869   0.12488   0.00000  Uiso   1.00
C410   C     0.83325   0.68797   0.20845   0.00000  Uiso   1.00
C411   C     0.83350   0.95720   0.16669   0.00000  Uiso   1.00
C412   C     0.83317   0.70947   0.16664   0.00000  Uiso   1.00
C413   C     0.79945   0.80646   0.02051   0.00000  Uiso   1.00
C414   C     0.86721   0.86020   0.31282   0.00000  Uiso   1.00
C415   C     0.79948   0.80646   0.30443   0.00000  Uiso   1.00
C416   C     0.86719   0.86021   0.02890   0.00000  Uiso   1.00
Cu417  Cu    0.83333   0.83334   0.21355   0.00000  Uiso   1.00
Cu418  Cu    0.83333   0.83333   0.11978   0.00000  Uiso   1.00
H419   H     0.99272   0.83271   0.11287   0.00000  Uiso   1.00
H420   H     0.67394   0.83395   0.22047   0.00000  Uiso   1.00
H421   H     0.83321   0.70391   0.09213   0.00000  Uiso   1.00
H422   H     0.83346   0.96276   0.24120   0.00000  Uiso   1.00
H423   H     0.83343   0.96272   0.09217   0.00000  Uiso   1.00
H424   H     0.83323   0.70395   0.24116   0.00000  Uiso   1.00
N425   N     0.83335   0.83334   0.28403   0.00000  Uiso   1.00
N426   N     0.83332   0.83332   0.04931   0.00000  Uiso   1.00
O427   O     0.83333   0.77322   0.20625   0.00000  Uiso   1.00
O428   O     0.83334   0.89345   0.12709   0.00000  Uiso   1.00
O429   O     0.83333   0.77321   0.12706   0.00000  Uiso   1.00
O430   O     0.83334   0.89346   0.20628   0.00000  Uiso   1.00
O431   O     0.75828   0.83334   0.19712   0.00000  Uiso   1.00
O432   O     0.90839   0.83333   0.13621   0.00000  Uiso   1.00
O433   O     0.75828   0.83333   0.11793   0.00000  Uiso   1.00
O434   O     0.90839   0.83334   0.21540   0.00000  Uiso   1.00
C435   C     0.76075   0.77577   0.03961   0.00000  Uiso   1.00
H436   H     0.72075   0.78192   0.02507   0.00000  Uiso   1.00
H437   H     0.76784   0.74377   0.03061   0.00000  Uiso   1.00
H438   H     0.76109   0.77572   0.07688   0.00000  Uiso   1.00
C439   C     0.90592   0.89090   0.29373   0.00000  Uiso   1.00
H440   H     0.89882   0.92289   0.30272   0.00000  Uiso   1.00
H441   H     0.94591   0.88476   0.30826   0.00000  Uiso   1.00
H442   H     0.90558   0.89094   0.25646   0.00000  Uiso   1.00
C443   C     0.76090   0.77563   0.27580   0.00000  Uiso   1.00
H444   H     0.76109   0.77563   0.23859   0.00000  Uiso   1.00
H445   H     0.76828   0.74368   0.28652   0.00000  Uiso   1.00
H446   H     0.72087   0.78155   0.28057   0.00000  Uiso   1.00
C447   C     0.90577   0.89103   0.05753   0.00000  Uiso   1.00
H448   H     0.90558   0.89104   0.09474   0.00000  Uiso   1.00
H449   H     0.94580   0.88510   0.05277   0.00000  Uiso   1.00
H450   H     0.89841   0.92298   0.04681   0.00000  Uiso   1.00
C451   C     0.16647   0.08751   0.49996   0.00000  Uiso   1.00
C452   C     0.16686   0.24582   0.50004   0.00000  Uiso   1.00
C453   C     0.06810   0.16651   0.48802   0.00000  Uiso   1.00
C454   C     0.26524   0.16683   0.51198   0.00000  Uiso   1.00
C455   C     0.01269   0.16645   0.48156   0.00000  Uiso   1.00
C456   C     0.32064   0.16688   0.51843   0.00000  Uiso   1.00
C457   C     0.16657   0.02128   0.45818   0.00000  Uiso   1.00
C458   C     0.16676   0.31205   0.54182   0.00000  Uiso   1.00
C459   C     0.16674   0.31203   0.45821   0.00000  Uiso   1.00
C460   C     0.16659   0.02130   0.54179   0.00000  Uiso   1.00
C461   C     0.16683   0.29053   0.50003   0.00000  Uiso   1.00
C462   C     0.16650   0.04280   0.49997   0.00000  Uiso   1.00
C463   C     0.13279   0.13980   0.35385   0.00000  Uiso   1.00
C464   C     0.20055   0.19354   0.64615   0.00000  Uiso   1.00
C465   C     0.13281   0.13979   0.63777   0.00000  Uiso   1.00
C466   C     0.20052   0.19354   0.36223   0.00000  Uiso   1.00
Cu467  Cu    0.16667   0.16667   0.54689   0.00000  Uiso   1.00
Cu468  Cu    0.16667   0.16666   0.45311   0.00000  Uiso   1.00
H469   H     0.32606   0.16604   0.44620   0.00000  Uiso   1.00
H470   H     0.00728   0.16729   0.55380   0.00000  Uiso   1.00
H471   H     0.16654   0.03724   0.42547   0.00000  Uiso   1.00
H472   H     0.16680   0.29609   0.57453   0.00000  Uiso   1.00
H473   H     0.16677   0.29605   0.42551   0.00000  Uiso   1.00
H474   H     0.16657   0.03728   0.57449   0.00000  Uiso   1.00
N475   N     0.16668   0.16668   0.61736   0.00000  Uiso   1.00
N476   N     0.16665   0.16666   0.38264   0.00000  Uiso   1.00
O477   O     0.16666   0.10655   0.53958   0.00000  Uiso   1.00
O478   O     0.16667   0.22678   0.46042   0.00000  Uiso   1.00
O479   O     0.16666   0.10654   0.46039   0.00000  Uiso   1.00
O480   O     0.16667   0.22679   0.53961   0.00000  Uiso   1.00
O481   O     0.09161   0.16667   0.53046   0.00000  Uiso   1.00
O482   O     0.24172   0.16666   0.46954   0.00000  Uiso   1.00
O483   O     0.09161   0.16666   0.45127   0.00000  Uiso   1.00
O484   O     0.24172   0.16667   0.54873   0.00000  Uiso   1.00
C485   C     0.09408   0.10910   0.37294   0.00000  Uiso   1.00
H486   H     0.05409   0.11525   0.35840   0.00000  Uiso   1.00
H487   H     0.10117   0.07710   0.36394   0.00000  Uiso   1.00
H488   H     0.09442   0.10906   0.41021   0.00000  Uiso   1.00
C489   C     0.23925   0.22423   0.62706   0.00000  Uiso   1.00
H490   H     0.23215   0.25622   0.63606   0.00000  Uiso   1.00
H491   H     0.27924   0.21809   0.64160   0.00000  Uiso   1.00
H492   H     0.23891   0.22428   0.58979   0.00000  Uiso   1.00
C493   C     0.09424   0.10897   0.60913   0.00000  Uiso   1.00
H494   H     0.09442   0.10896   0.57193   0.00000  Uiso   1.00
H495   H     0.10161   0.07702   0.61985   0.00000  Uiso   1.00
H496   H     0.05420   0.11489   0.61391   0.00000  Uiso   1.00
C497   C     0.23910   0.22436   0.39087   0.00000  Uiso   1.00
H498   H     0.23891   0.22437   0.42807   0.00000  Uiso   1.00
H499   H     0.27914   0.21843   0.38610   0.00000  Uiso   1.00
H500   H     0.23174   0.25631   0.38015   0.00000  Uiso   1.00
C501   C     0.49980   0.08751   0.49996   0.00000  Uiso   1.00
C502   C     0.50020   0.24582   0.50004   0.00000  Uiso   1.00
C503   C     0.40143   0.16651   0.48802   0.00000  Uiso   1.00
C504   C     0.59857   0.16683   0.51198   0.00000  Uiso   1.00
C505   C     0.34603   0.16645   0.48156   0.00000  Uiso   1.00
C506   C     0.65397   0.16688   0.51843   0.00000  Uiso   1.00
C507   C     0.49991   0.02128   0.45818   0.00000  Uiso   1.00
C508   C     0.50009   0.31205   0.54182   0.00000  Uiso   1.00
C509   C     0.50008   0.31203   0.45821   0.00000  Uiso   1.00
C510   C     0.49992   0.02130   0.54179   0.00000  Uiso   1.00
C511   C     0.50016   0.29053   0.50003   0.00000  Uiso   1.00
C512   C     0.49984   0.04280   0.49997   0.00000  Uiso   1.00
C513   C     0.46612   0.13980   0.35385   0.00000  Uiso   1.00
C514   C     0.53388   0.19354   0.64615   0.00000  Uiso   1.00
C515   C     0.46614   0.13979   0.63777   0.00000  Uiso   1.00
C516   C     0.53386   0.19354   0.36223   0.00000  Uiso   1.00
Cu517  Cu    0.50000   0.16667   0.54689   0.00000  Uiso   1.00
Cu518  Cu    0.50000   0.16666   0.45311   0.00000  Uiso   1.00
H519   H     0.65939   0.16604   0.44620   0.00000  Uiso   1.00
H520   H     0.34061   0.16729   0.55380   0.00000  Uiso   1.00
H521   H     0.49987   0.03724   0.42547   0.00000  Uiso   1.00
H522   H     0.50013   0.29609   0.57453   0.00000  Uiso   1.00
H523   H     0.50010   0.29605   0.42551   0.00000  Uiso   1.00
H524   H     0.49990   0.03728   0.57449   0.00000  Uiso   1.00
N525   N     0.50001   0.16668   0.61736   0.00000  Uiso   1.00
N526   N     0.49999   0.16666   0.38264   0.00000  Uiso   1.00
O527   O     0.50000   0.10655   0.53958   0.00000  Uiso   1.00
O528   O     0.50000   0.22678   0.46042   0.00000  Uiso   1.00
O529   O     0.50000   0.10654   0.46039   0.00000  Uiso   1.00
O530   O     0.50000   0.22679   0.53961   0.00000  Uiso   1.00
O531   O     0.42495   0.16667   0.53046   0.00000  Uiso   1.00
O532   O     0.57505   0.16666   0.46954   0.00000  Uiso   1.00
O533   O     0.42494   0.16666   0.45127   0.00000  Uiso   1.00
O534   O     0.57506   0.16667   0.54873   0.00000  Uiso   1.00
C535   C     0.42742   0.10910   0.37294   0.00000  Uiso   1.00
H536   H     0.38742   0.11525   0.35840   0.00000  Uiso   1.00
H537   H     0.43451   0.07710   0.36394   0.00000  Uiso   1.00
H538   H     0.42776   0.10906   0.41021   0.00000  Uiso   1.00
C539   C     0.57258   0.22423   0.62706   0.00000  Uiso   1.00
H540   H     0.56548   0.25622   0.63606   0.00000  Uiso   1.00
H541   H     0.61258   0.21809   0.64160   0.00000  Uiso   1.00
H542   H     0.57225   0.22428   0.58979   0.00000  Uiso   1.00
C543   C     0.42757   0.10897   0.60913   0.00000  Uiso   1.00
H544   H     0.42776   0.10896   0.57193   0.00000  Uiso   1.00
H545   H     0.43494   0.07702   0.61985   0.00000  Uiso   1.00
H546   H     0.38754   0.11489   0.61391   0.00000  Uiso   1.00
C547   C     0.57243   0.22436   0.39087   0.00000  Uiso   1.00
H548   H     0.57224   0.22437   0.42807   0.00000  Uiso   1.00
H549   H     0.61247   0.21843   0.38610   0.00000  Uiso   1.00
H550   H     0.56508   0.25631   0.38015   0.00000  Uiso   1.00
C551   C     0.83314   0.08751   0.49996   0.00000  Uiso   1.00
C552   C     0.83353   0.24582   0.50004   0.00000  Uiso   1.00
C553   C     0.73476   0.16651   0.48802   0.00000  Uiso   1.00
C554   C     0.93190   0.16683   0.51198   0.00000  Uiso   1.00
C555   C     0.67936   0.16645   0.48156   0.00000  Uiso   1.00
C556   C     0.98730   0.16688   0.51843   0.00000  Uiso   1.00
C557   C     0.83324   0.02128   0.45818   0.00000  Uiso   1.00
C558   C     0.83342   0.31205   0.54182   0.00000  Uiso   1.00
C559   C     0.83341   0.31203   0.45821   0.00000  Uiso   1.00
C560   C     0.83325   0.02130   0.54179   0.00000  Uiso   1.00
C561   C     0.83350   0.29053   0.50003   0.00000  Uiso   1.00
C562   C     0.83317   0.04280   0.49997   0.00000  Uiso   1.00
C563   C     0.79945   0.13980   0.35385   0.00000  Uiso   1.00
C564   C     0.86721   0.19354   0.64615   0.00000  Uiso   1.00
C565   C     0.79948   0.13979   0.63777   0.00000  Uiso   1.00
C566   C     0.86719   0.19354   0.36223   0.00000  Uiso   1.00
Cu567  Cu    0.83333   0.16667   0.54689   0.00000  Uiso   1.00
Cu568  Cu    0.83333   0.16666   0.45311   0.00000  Uiso   1.00
H569   H     0.99272   0.16604   0.44620   0.00000  Uiso   1.00
H570   H     0.67394   0.16729   0.55380   0.00000  Uiso   1.00
H571   H     0.83321   0.03724   0.42547   0.00000  Uiso   1.00
H572   H     0.83346   0.29609   0.57453   0.00000  Uiso   1.00
H573   H     0.83343   0.29605   0.42551   0.00000  Uiso   1.00
H574   H     0.83323   0.03728   0.57449   0.00000  Uiso   1.00
N575   N     0.83335   0.16668   0.61736   0.00000  Uiso   1.00
N576   N     0.83332   0.16666   0.38264   0.00000  Uiso   1.00
O577   O     0.83333   0.10655   0.53958   0.00000  Uiso   1.00
O578   O     0.83334   0.22678   0.46042   0.00000  Uiso   1.00
O579   O     0.83333   0.10654   0.46039   0.00000  Uiso   1.00
O580   O     0.83334   0.22679   0.53961   0.00000  Uiso   1.00
O581   O     0.75828   0.16667   0.53046   0.00000  Uiso   1.00
O582   O     0.90839   0.16666   0.46954   0.00000  Uiso   1.00
O583   O     0.75828   0.16666   0.45127   0.00000  Uiso   1.00
O584   O     0.90839   0.16667   0.54873   0.00000  Uiso   1.00
C585   C     0.76075   0.10910   0.37294   0.00000  Uiso   1.00
H586   H     0.72075   0.11525   0.35840   0.00000  Uiso   1.00
H587   H     0.76784   0.07710   0.36394   0.00000  Uiso   1.00
H588   H     0.76109   0.10906   0.41021   0.00000  Uiso   1.00
C589   C     0.90592   0.22423   0.62706   0.00000  Uiso   1.00
H590   H     0.89882   0.25622   0.63606   0.00000  Uiso   1.00
H591   H     0.94591   0.21809   0.64160   0.00000  Uiso   1.00
H592   H     0.90558   0.22428   0.58979   0.00000  Uiso   1.00
C593   C     0.76090   0.10897   0.60913   0.00000  Uiso   1.00
H594   H     0.76109   0.10896   0.57193   0.00000  Uiso   1.00
H595   H     0.76828   0.07702   0.61985   0.00000  Uiso   1.00
H596   H     0.72087   0.11489   0.61391   0.00000  Uiso   1.00
C597   C     0.90577   0.22436   0.39087   0.00000  Uiso   1.00
H598   H     0.90558   0.22437   0.42807   0.00000  Uiso   1.00
H599   H     0.94580   0.21843   0.38610   0.00000  Uiso   1.00
H600   H     0.89841   0.25631   0.38015   0.00000  Uiso   1.00
C601   C     0.16647   0.42084   0.49996   0.00000  Uiso   1.00
C602   C     0.16686   0.57916   0.50004   0.00000  Uiso   1.00
C603   C     0.06810   0.49984   0.48802   0.00000  Uiso   1.00
C604   C     0.26524   0.50016   0.51198   0.00000  Uiso   1.00
C605   C     0.01269   0.49979   0.48156   0.00000  Uiso   1.00
C606   C     0.32064   0.50021   0.51843   0.00000  Uiso   1.00
C607   C     0.16657   0.35462   0.45818   0.00000  Uiso   1.00
C608   C     0.16676   0.64538   0.54182   0.00000  Uiso   1.00
C609   C     0.16674   0.64536   0.45821   0.00000  Uiso   1.00
C610   C     0.16659   0.35464   0.54179   0.00000  Uiso   1.00
C611   C     0.16683   0.62386   0.50003   0.00000  Uiso   1.00
C612   C     0.16650   0.37614   0.49997   0.00000  Uiso   1.00
C613   C     0.13279   0.47313   0.35385   0.00000  Uiso   1.00
C614   C     0.20055   0.52687   0.64615   0.00000  Uiso   1.00
C615   C     0.13281   0.47312   0.63777   0.00000  Uiso   1.00
C616   C     0.20052   0.52688   0.36223   0.00000  Uiso   1.00
Cu617  Cu    0.16667   0.50001   0.54689   0.00000  Uiso   1.00
Cu618  Cu    0.16667   0.49999   0.45311   0.00000  Uiso   1.00
H619   H     0.32606   0.49938   0.44620   0.00000  Uiso   1.00
H620   H     0.00728   0.50062   0.55380   0.00000  Uiso   1.00
H621   H     0.16654   0.37058   0.42547   0.00000  Uiso   1.00
H622   H     0.16680   0.62942   0.57453   0.00000  Uiso   1.00
H623   H     0.16677   0.62938   0.42551   0.00000  Uiso   1.00
H624   H     0.16657   0.37062   0.57449   0.00000  Uiso   1.00
N625   N     0.16668   0.50001   0.61736   0.00000  Uiso   1.00
N626   N     0.16665   0.49999   0.38264   0.00000  Uiso   1.00
O627   O     0.16666   0.43989   0.53958   0.00000  Uiso   1.00
O628   O     0.16667   0.56011   0.46042   0.00000  Uiso   1.00
O629   O     0.16666   0.43988   0.46039   0.00000  Uiso   1.00
O630   O     0.16667   0.56012   0.53961   0.00000  Uiso   1.00
O631   O     0.09161   0.50000   0.53046   0.00000  Uiso   1.00
O632   O     0.24172   0.50000   0.46954   0.00000  Uiso   1.00
O633   O     0.09161   0.49999   0.45127   0.00000  Uiso   1.00
O634   O     0.24172   0.50001   0.54873   0.00000  Uiso   1.00
C635   C     0.09408   0.44243   0.37294   0.00000  Uiso   1.00
H636   H     0.05409   0.44859   0.35840   0.00000  Uiso   1.00
H637   H     0.10117   0.41044   0.36394   0.00000  Uiso   1.00
H638   H     0.09442   0.44239   0.41021   0.00000  Uiso   1.00
C639   C     0.23925   0.55757   0.62706   0.00000  Uiso   1.00
H640   H     0.23215   0.58956   0.63606   0.00000  Uiso   1.00
H641   H     0.27924   0.55142   0.64160   0.00000  Uiso   1.00
H642   H     0.23891   0.55761   0.58979   0.00000  Uiso   1.00
C643   C     0.09424   0.44230   0.60913   0.00000  Uiso   1.00
H644   H     0.09442   0.44229   0.57193   0.00000  Uiso   1.00
H645   H     0.10161   0.41035   0.61985   0.00000  Uiso   1.00
H646   H     0.05420   0.44822   0.61391   0.00000  Uiso   1.00
C647   C     0.23910   0.55770   0.39087   0.00000  Uiso   1.00
H648   H     0.23891   0.55771   0.42807   0.00000  Uiso   1.00
H649   H     0.27914   0.55177   0.38610   0.00000  Uiso   1.00
H650   H     0.23174   0.58965   0.38015   0.00000  Uiso   1.00
C651   C     0.49980   0.42084   0.49996   0.00000  Uiso   1.00
C652   C     0.50020   0.57916   0.50004   0.00000  Uiso   1.00
C653   C     0.40143   0.49984   0.48802   0.00000  Uiso   1.00
C654   C     0.59857   0.50016   0.51198   0.00000  Uiso   1.00
C655   C     0.34603   0.49979   0.48156   0.00000  Uiso   1.00
C656   C     0.65397   0.50021   0.51843   0.00000  Uiso   1.00
C657   C     0.49991   0.35462   0.45818   0.00000  Uiso   1.00
C658   C     0.50009   0.64538   0.54182   0.00000  Uiso   1.00
C659   C     0.50008   0.64536   0.45821   0.00000  Uiso   1.00
C660   C     0.49992   0.35464   0.54179   0.00000  Uiso   1.00
C661   C     0.50016   0.62386   0.50003   0.00000  Uiso   1.00
C662   C     0.49984   0.37614   0.49997   0.00000  Uiso   1.00
C663   C     0.46612   0.47313   0.35385   0.00000  Uiso   1.00
C664   C     0.53388   0.52687   0.64615   0.00000  Uiso   1.00
C665   C     0.46614   0.47312   0.63777   0.00000  Uiso   1.00
C666   C     0.53386   0.52688   0.36223   0.00000  Uiso   1.00
Cu667  Cu    0.50000   0.50001   0.54689   0.00000  Uiso   1.00
Cu668  Cu    0.50000   0.49999   0.45311   0.00000  Uiso   1.00
H669   H     0.65939   0.49938   0.44620   0.00000  Uiso   1.00
H670   H     0.34061   0.50062   0.55380   0.00000  Uiso   1.00
H671   H     0.49987   0.37058   0.42547   0.00000  Uiso   1.00
H672   H     0.50013   0.62942   0.57453   0.00000  Uiso   1.00
H673   H     0.50010   0.62938   0.42551   0.00000  Uiso   1.00
H674   H     0.49990   0.37062   0.57449   0.00000  Uiso   1.00
N675   N     0.50001   0.50001   0.61736   0.00000  Uiso   1.00
N676   N     0.49999   0.49999   0.38264   0.00000  Uiso   1.00
O677   O     0.50000   0.43989   0.53958   0.00000  Uiso   1.00
O678   O     0.50000   0.56011   0.46042   0.00000  Uiso   1.00
O679   O     0.50000   0.43988   0.46039   0.00000  Uiso   1.00
O680   O     0.50000   0.56012   0.53961   0.00000  Uiso   1.00
O681   O     0.42495   0.50000   0.53046   0.00000  Uiso   1.00
O682   O     0.57505   0.50000   0.46954   0.00000  Uiso   1.00
O683   O     0.42494   0.49999   0.45127   0.00000  Uiso   1.00
O684   O     0.57506   0.50001   0.54873   0.00000  Uiso   1.00
C685   C     0.42742   0.44243   0.37294   0.00000  Uiso   1.00
H686   H     0.38742   0.44859   0.35840   0.00000  Uiso   1.00
H687   H     0.43451   0.41044   0.36394   0.00000  Uiso   1.00
H688   H     0.42776   0.44239   0.41021   0.00000  Uiso   1.00
C689   C     0.57258   0.55757   0.62706   0.00000  Uiso   1.00
H690   H     0.56548   0.58956   0.63606   0.00000  Uiso   1.00
H691   H     0.61258   0.55142   0.64160   0.00000  Uiso   1.00
H692   H     0.57225   0.55761   0.58979   0.00000  Uiso   1.00
C693   C     0.42757   0.44230   0.60913   0.00000  Uiso   1.00
H694   H     0.42776   0.44229   0.57193   0.00000  Uiso   1.00
H695   H     0.43494   0.41035   0.61985   0.00000  Uiso   1.00
H696   H     0.38754   0.44822   0.61391   0.00000  Uiso   1.00
C697   C     0.57243   0.55770   0.39087   0.00000  Uiso   1.00
H698   H     0.57224   0.55771   0.42807   0.00000  Uiso   1.00
H699   H     0.61247   0.55177   0.38610   0.00000  Uiso   1.00
H700   H     0.56508   0.58965   0.38015   0.00000  Uiso   1.00
C701   C     0.83314   0.42084   0.49996   0.00000  Uiso   1.00
C702   C     0.83353   0.57916   0.50004   0.00000  Uiso   1.00
C703   C     0.73476   0.49984   0.48802   0.00000  Uiso   1.00
C704   C     0.93190   0.50016   0.51198   0.00000  Uiso   1.00
C705   C     0.67936   0.49979   0.48156   0.00000  Uiso   1.00
C706   C     0.98730   0.50021   0.51843   0.00000  Uiso   1.00
C707   C     0.83324   0.35462   0.45818   0.00000  Uiso   1.00
C708   C     0.83342   0.64538   0.54182   0.00000  Uiso   1.00
C709   C     0.83341   0.64536   0.45821   0.00000  Uiso   1.00
C710   C     0.83325   0.35464   0.54179   0.00000  Uiso   1.00
C711   C     0.83350   0.62386   0.50003   0.00000  Uiso   1.00
C712   C     0.83317   0.37614   0.49997   0.00000  Uiso   1.00
C713   C     0.79945   0.47313   0.35385   0.00000  Uiso   1.00
C714   C     0.86721   0.52687   0.64615   0.00000  Uiso   1.00
C715   C     0.79948   0.47312   0.63777   0.00000  Uiso   1.00
C716   C     0.86719   0.52688   0.36223   0.00000  Uiso   1.00
Cu717  Cu    0.83333   0.50001   0.54689   0.00000  Uiso   1.00
Cu718  Cu    0.83333   0.49999   0.45311   0.00000  Uiso   1.00
H719   H     0.99272   0.49938   0.44620   0.00000  Uiso   1.00
H720   H     0.67394   0.50062   0.55380   0.00000  Uiso   1.00
H721   H     0.83321   0.37058   0.42547   0.00000  Uiso   1.00
H722   H     0.83346   0.62942   0.57453   0.00000  Uiso   1.00
H723   H     0.83343   0.62938   0.42551   0.00000  Uiso   1.00
H724   H     0.83323   0.37062   0.57449   0.00000  Uiso   1.00
N725   N     0.83335   0.50001   0.61736   0.00000  Uiso   1.00
N726   N     0.83332   0.49999   0.38264   0.00000  Uiso   1.00
O727   O     0.83333   0.43989   0.53958   0.00000  Uiso   1.00
O728   O     0.83334   0.56011   0.46042   0.00000  Uiso   1.00
O729   O     0.83333   0.43988   0.46039   0.00000  Uiso   1.00
O730   O     0.83334   0.56012   0.53961   0.00000  Uiso   1.00
O731   O     0.75828   0.50000   0.53046   0.00000  Uiso   1.00
O732   O     0.90839   0.50000   0.46954   0.00000  Uiso   1.00
O733   O     0.75828   0.49999   0.45127   0.00000  Uiso   1.00
O734   O     0.90839   0.50001   0.54873   0.00000  Uiso   1.00
C735   C     0.76075   0.44243   0.37294   0.00000  Uiso   1.00
H736   H     0.72075   0.44859   0.35840   0.00000  Uiso   1.00
H737   H     0.76784   0.41044   0.36394   0.00000  Uiso   1.00
H738   H     0.76109   0.44239   0.41021   0.00000  Uiso   1.00
C739   C     0.90592   0.55757   0.62706   0.00000  Uiso   1.00
H740   H     0.89882   0.58956   0.63606   0.00000  Uiso   1.00
H741   H     0.94591   0.55142   0.64160   0.00000  Uiso   1.00
H742   H     0.90558   0.55761   0.58979   0.00000  Uiso   1.00
C743   C     0.76090   0.44230   0.60913   0.00000  Uiso   1.00
H744   H     0.76109   0.44229   0.57193   0.00000  Uiso   1.00
H745   H     0.76828   0.41035   0.61985   0.00000  Uiso   1.00
H746   H     0.72087   0.44822   0.61391   0.00000  Uiso   1.00
C747   C     0.90577   0.55770   0.39087   0.00000  Uiso   1.00
H748   H     0.90558   0.55771   0.42807   0.00000  Uiso   1.00
H749   H     0.94580   0.55177   0.38610   0.00000  Uiso   1.00
H750   H     0.89841   0.58965   0.38015   0.00000  Uiso   1.00
C751   C     0.16647   0.75418   0.49996   0.00000  Uiso   1.00
C752   C     0.16686   0.91249   0.50004   0.00000  Uiso   1.00
C753   C     0.06810   0.83317   0.48802   0.00000  Uiso   1.00
C754   C     0.26524   0.83349   0.51198   0.00000  Uiso   1.00
C755   C     0.01269   0.83312   0.48156   0.00000  Uiso   1.00
C756   C     0.32064   0.83355   0.51843   0.00000  Uiso   1.00
C757   C     0.16657   0.68795   0.45818   0.00000  Uiso   1.00
C758   C     0.16676   0.97872   0.54182   0.00000  Uiso   1.00
C759   C     0.16674   0.97869   0.45821   0.00000  Uiso   1.00
C760   C     0.16659   0.68797   0.54179   0.00000  Uiso   1.00
C761   C     0.16683   0.95720   0.50003   0.00000  Uiso   1.00
C762   C     0.16650   0.70947   0.49997   0.00000  Uiso   1.00
C763   C     0.13279   0.80646   0.35385   0.00000  Uiso   1.00
C764   C     0.20055   0.86020   0.64615   0.00000  Uiso   1.00
C765   C     0.13281   0.80646   0.63777   0.00000  Uiso   1.00
C766   C     0.20052   0.86021   0.36223   0.00000  Uiso   1.00
Cu767  Cu    0.16667   0.83334   0.54689   0.00000  Uiso   1.00
Cu768  Cu    0.16667   0.83333   0.45311   0.00000  Uiso   1.00
H769   H     0.32606   0.83271   0.44620   0.00000  Uiso   1.00
H770   H     0.00728   0.83395   0.55380   0.00000  Uiso   1.00
H771   H     0.16654   0.70391   0.42547   0.00000  Uiso   1.00
H772   H     0.16680   0.96276   0.57453   0.00000  Uiso   1.00
H773   H     0.16677   0.96272   0.42551   0.00000  Uiso   1.00
H774   H     0.16657   0.70395   0.57449   0.00000  Uiso   1.00
N775   N     0.16668   0.83334   0.61736   0.00000  Uiso   1.00
N776   N     0.16665   0.83332   0.38264   0.00000  Uiso   1.00
O777   O     0.16666   0.77322   0.53958   0.00000  Uiso   1.00
O778   O     0.16667   0.89345   0.46042   0.00000  Uiso   1.00
O779   O     0.16666   0.77321   0.46039   0.00000  Uiso   1.00
O780   O     0.16667   0.89346   0.53961   0.00000  Uiso   1.00
O781   O     0.09161   0.83334   0.53046   0.00000  Uiso   1.00
O782   O     0.24172   0.83333   0.46954   0.00000  Uiso   1.00
O783   O     0.09161   0.83333   0.45127   0.00000  Uiso   1.00
O784   O     0.24172   0.83334   0.54873   0.00000  Uiso   1.00
C785   C     0.09408   0.77577   0.37294   0.00000  Uiso   1.00
H786   H     0.05409   0.78192   0.35840   0.00000  Uiso   1.00
H787   H     0.10117   0.74377   0.36394   0.00000  Uiso   1.00
H788   H     0.09442   0.77572   0.41021   0.00000  Uiso   1.00
C789   C     0.23925   0.89090   0.62706   0.00000  Uiso   1.00
H790   H     0.23215   0.92289   0.63606   0.00000  Uiso   1.00
H791   H     0.27924   0.88476   0.64160   0.00000  Uiso   1.00
H792   H     0.23891   0.89094   0.58979   0.00000  Uiso   1.00
C793   C     0.09424   0.77563   0.60913   0.00000  Uiso   1.00
H794   H     0.09442   0.77563   0.57193   0.00000  Uiso   1.00
H795   H     0.10161   0.74368   0.61985   0.00000  Uiso   1.00
H796   H     0.05420   0.78155   0.61391   0.00000  Uiso   1.00
C797   C     0.23910   0.89103   0.39087   0.00000  Uiso   1.00
H798   H     0.23891   0.89104   0.42807   0.00000  Uiso   1.00
H799   H     0.27914   0.88510   0.38610   0.00000  Uiso   1.00
H800   H     0.23174   0.92298   0.38015   0.00000  Uiso   1.00
C801   C     0.49980   0.75418   0.49996   0.00000  Uiso   1.00
C802   C     0.50020   0.91249   0.50004   0.00000  Uiso   1.00
C803   C     0.40143   0.83317   0.48802   0.00000  Uiso   1.00
C804   C     0.59857   0.83349   0.51198   0.00000  Uiso   1.00
C805   C     0.34603   0.83312   0.48156   0.00000  Uiso   1.00
C806   C     0.65397   0.83355   0.51843   0.00000  Uiso   1.00
C807   C     0.49991   0.68795   0.45818   0.00000  Uiso   1.00
C808   C     0.50009   0.97872   0.54182   0.00000  Uiso   1.00
C809   C     0.50008   0.97869   0.45821   0.00000  Uiso   1.00
C810   C     0.49992   0.68797   0.54179   0.00000  Uiso   1.00
C811   C     0.50016   0.95720   0.50003   0.00000  Uiso   1.00
C812   C     0.49984   0.70947   0.49997   0.00000  Uiso   1.00
C813   C     0.46612   0.80646   0.35385   0.00000  Uiso   1.00
C814   C     0.53388   0.86020   0.64615   0.00000  Uiso   1.00
C815   C     0.46614   0.80646   0.63777   0.00000  Uiso   1.00
C816   C     0.53386   0.86021   0.36223   0.00000  Uiso   1.00
Cu817  Cu    0.50000   0.83334   0.54689   0.00000  Uiso   1.00
Cu818  Cu    0.50000   0.83333   0.45311   0.00000  Uiso   1.00
H819   H     0.65939   0.83271   0.44620   0.00000  Uiso   1.00
H820   H     0.34061   0.83395   0.55380   0.00000  Uiso   1.00
H821   H     0.49987   0.70391   0.42547   0.00000  Uiso   1.00
H822   H     0.50013   0.96276   0.57453   0.00000  Uiso   1.00
H823   H     0.50010   0.96272   0.42551   0.00000  Uiso   1.00
H824   H     0.49990   0.70395   0.57449   0.00000  Uiso   1.00
N825   N     0.50001   0.83334   0.61736   0.00000  Uiso   1.00
N826   N     0.49999   0.83332   0.38264   0.00000  Uiso   1.00
O827   O     0.50000   0.77322   0.53958   0.00000  Uiso   1.00
O828   O     0.50000   0.89345   0.46042   0.00000  Uiso   1.00
O829   O     0.50000   0.77321   0.46039   0.00000  Uiso   1.00
O830   O     0.50000   0.89346   0.53961   0.00000  Uiso   1.00
O831   O     0.42495   0.83334   0.53046   0.00000  Uiso   1.00
O832   O     0.57505   0.83333   0.46954   0.00000  Uiso   1.00
O833   O     0.42494   0.83333   0.45127   0.00000  Uiso   1.00
O834   O     0.57506   0.83334   0.54873   0.00000  Uiso   1.00
C835   C     0.42742   0.77577   0.37294   0.00000  Uiso   1.00
H836   H     0.38742   0.78192   0.35840   0.00000  Uiso   1.00
H837   H     0.43451   0.74377   0.36394   0.00000  Uiso   1.00
H838   H     0.42776   0.77572   0.41021   0.00000  Uiso   1.00
C839   C     0.57258   0.89090   0.62706   0.00000  Uiso   1.00
H840   H     0.56548   0.92289   0.63606   0.00000  Uiso   1.00
H841   H     0.61258   0.88476   0.64160   0.00000  Uiso   1.00
H842   H     0.57225   0.89094   0.58979   0.00000  Uiso   1.00
C843   C     0.42757   0.77563   0.60913   0.00000  Uiso   1.00
H844   H     0.42776   0.77563   0.57193   0.00000  Uiso   1.00
H845   H     0.43494   0.74368   0.61985   0.00000  Uiso   1.00
H846   H     0.38754   0.78155   0.61391   0.00000  Uiso   1.00
C847   C     0.57243   0.89103   0.39087   0.00000  Uiso   1.00
H848   H     0.57224   0.89104   0.42807   0.00000  Uiso   1.00
H849   H     0.61247   0.88510   0.38610   0.00000  Uiso   1.00
H850   H     0.56508   0.92298   0.38015   0.00000  Uiso   1.00
C851   C     0.83314   0.75418   0.49996   0.00000  Uiso   1.00
C852   C     0.83353   0.91249   0.50004   0.00000  Uiso   1.00
C853   C     0.73476   0.83317   0.48802   0.00000  Uiso   1.00
C854   C     0.93190   0.83349   0.51198   0.00000  Uiso   1.00
C855   C     0.67936   0.83312   0.48156   0.00000  Uiso   1.00
C856   C     0.98730   0.83355   0.51843   0.00000  Uiso   1.00
C857   C     0.83324   0.68795   0.45818   0.00000  Uiso   1.00
C858   C     0.83342   0.97872   0.54182   0.00000  Uiso   1.00
C859   C     0.83341   0.97869   0.45821   0.00000  Uiso   1.00
C860   C     0.83325   0.68797   0.54179   0.00000  Uiso   1.00
C861   C     0.83350   0.95720   0.50003   0.00000  Uiso   1.00
C862   C     0.83317   0.70947   0.49997   0.00000  Uiso   1.00
C863   C     0.79945   0.80646   0.35385   0.00000  Uiso   1.00
C864   C     0.86721   0.86020   0.64615   0.00000  Uiso   1.00
C865   C     0.79948   0.80646   0.63777   0.00000  Uiso   1.00
C866   C     0.86719   0.86021   0.36223   0.00000  Uiso   1.00
Cu867  Cu    0.83333   0.83334   0.54689   0.00000  Uiso   1.00
Cu868  Cu    0.83333   0.83333   0.45311   0.00000  Uiso   1.00
H869   H     0.99272   0.83271   0.44620   0.00000  Uiso   1.00
H870   H     0.67394   0.83395   0.55380   0.00000  Uiso   1.00
H871   H     0.83321   0.70391   0.42547   0.00000  Uiso   1.00
H872   H     0.83346   0.96276   0.57453   0.00000  Uiso   1.00
H873   H     0.83343   0.96272   0.42551   0.00000  Uiso   1.00
H874   H     0.83323   0.70395   0.57449   0.00000  Uiso   1.00
N875   N     0.83335   0.83334   0.61736   0.00000  Uiso   1.00
N876   N     0.83332   0.83332   0.38264   0.00000  Uiso   1.00
O877   O     0.83333   0.77322   0.53958   0.00000  Uiso   1.00
O878   O     0.83334   0.89345   0.46042   0.00000  Uiso   1.00
O879   O     0.83333   0.77321   0.46039   0.00000  Uiso   1.00
O880   O     0.83334   0.89346   0.53961   0.00000  Uiso   1.00
O881   O     0.75828   0.83334   0.53046   0.00000  Uiso   1.00
O882   O     0.90839   0.83333   0.46954   0.00000  Uiso   1.00
O883   O     0.75828   0.83333   0.45127   0.00000  Uiso   1.00
O884   O     0.90839   0.83334   0.54873   0.00000  Uiso   1.00
C885   C     0.76075   0.77577   0.37294   0.00000  Uiso   1.00
H886   H     0.72075   0.78192   0.35840   0.00000  Uiso   1.00
H887   H     0.76784   0.74377   0.36394   0.00000  Uiso   1.00
H888   H     0.76109   0.77572   0.41021   0.00000  Uiso   1.00
C889   C     0.90592   0.89090   0.62706   0.00000  Uiso   1.00
H890   H     0.89882   0.92289   0.63606   0.00000  Uiso   1.00
H891   H     0.94591   0.88476   0.64160   0.00000  Uiso   1.00
H892   H     0.90558   0.89094   0.58979   0.00000  Uiso   1.00
C893   C     0.76090   0.77563   0.60913   0.00000  Uiso   1.00
H894   H     0.76109   0.77563   0.57193   0.00000  Uiso   1.00
H895   H     0.76828   0.74368   0.61985   0.00000  Uiso   1.00
H896   H     0.72087   0.78155   0.61391   0.00000  Uiso   1.00
C897   C     0.90577   0.89103   0.39087   0.00000  Uiso   1.00
H898   H     0.90558   0.89104   0.42807   0.00000  Uiso   1.00
H899   H     0.94580   0.88510   0.38610   0.00000  Uiso   1.00
H900   H     0.89841   0.92298   0.38015   0.00000  Uiso   1.00
C901   C     0.16647   0.08751   0.83329   0.00000  Uiso   1.00
C902   C     0.16686   0.24582   0.83337   0.00000  Uiso   1.00
C903   C     0.06810   0.16651   0.82135   0.00000  Uiso   1.00
C904   C     0.26524   0.16683   0.84531   0.00000  Uiso   1.00
C905   C     0.01269   0.16645   0.81490   0.00000  Uiso   1.00
C906   C     0.32064   0.16688   0.85177   0.00000  Uiso   1.00
C907   C     0.16657   0.02128   0.79152   0.00000  Uiso   1.00
C908   C     0.16676   0.31205   0.87515   0.00000  Uiso   1.00
C909   C     0.16674   0.31203   0.79155   0.00000  Uiso   1.00
C910   C     0.16659   0.02130   0.87512   0.00000  Uiso   1.00
C911   C     0.16683   0.29053   0.83336   0.00000  Uiso   1.00
C912   C     0.16650   0.04280   0.83330   0.00000  Uiso   1.00
C913   C     0.13279   0.13980   0.68718   0.00000  Uiso   1.00
C914   C     0.20055   0.19354   0.97949   0.00000  Uiso   1.00
C915   C     0.13281   0.13979   0.97110   0.00000  Uiso   1.00
C916   C     0.20052   0.19354   0.69557   0.00000  Uiso   1.00
Cu917  Cu    0.16667   0.16667   0.88022   0.00000  Uiso   1.00
Cu918  Cu    0.16667   0.16666   0.78645   0.00000  Uiso   1.00
H919   H     0.32606   0.16604   0.77953   0.00000  Uiso   1.00
H920   H     0.00728   0.16729   0.88713   0.00000  Uiso   1.00
H921   H     0.16654   0.03724   0.75880   0.00000  Uiso   1.00
H922   H     0.16680   0.29609   0.90787   0.00000  Uiso   1.00
H923   H     0.16677   0.29605   0.75884   0.00000  Uiso   1.00
H924   H     0.16657   0.03728   0.90783   0.00000  Uiso   1.00
N925   N     0.16668   0.16668   0.95069   0.00000  Uiso   1.00
N926   N     0.16665   0.16666   0.71597   0.00000  Uiso   1.00
O927   O     0.16666   0.10655   0.87291   0.00000  Uiso   1.00
O928   O     0.16667   0.22678   0.79375   0.00000  Uiso   1.00
O929   O     0.16666   0.10654   0.79372   0.00000  Uiso   1.00
O930   O     0.16667   0.22679   0.87294   0.00000  Uiso   1.00
O931   O     0.09161   0.16667   0.86379   0.00000  Uiso   1.00
O932   O     0.24172   0.16666   0.80288   0.00000  Uiso   1.00
O933   O     0.09161   0.16666   0.78460   0.00000  Uiso   1.00
O934   O     0.24172   0.16667   0.88207   0.00000  Uiso   1.00
C935   C     0.09408   0.10910   0.70627   0.00000  Uiso   1.00
H936   H     0.05409   0.11525   0.69174   0.00000  Uiso   1.00
H937   H     0.10117   0.07710   0.69727   0.00000  Uiso   1.00
H938   H     0.09442   0.10906   0.74354   0.00000  Uiso   1.00
C939   C     0.23925   0.22423   0.96039   0.00000  Uiso   1.00
H940   H     0.23215   0.25622   0.96939   0.00000  Uiso   1.00
H941   H     0.27924   0.21809   0.97493   0.00000  Uiso   1.00
H942   H     0.23891   0.22428   0.92312   0.00000  Uiso   1.00
C943   C     0.09424   0.10897   0.94247   0.00000  Uiso   1.00
H944   H     0.09442   0.10896   0.90526   0.00000  Uiso   1.00
H945   H     0.10161   0.07702   0.95318   0.00000  Uiso   1.00
H946   H     0.05420   0.11489   0.94724   0.00000  Uiso   1.00
C947   C     0.23910   0.22436   0.72420   0.00000  Uiso   1.00
H948   H     0.23891   0.22437   0.76141   0.00000  Uiso   1.00
H949   H     0.27914   0.21843   0.71944   0.00000  Uiso   1.00
H950   H     0.23174   0.25631   0.71348   0.00000  Uiso   1.00
C951   C     0.49980   0.08751   0.83329   0.00000  Uiso   1.00
C952   C     0.50020   0.24582   0.83337   0.00000  Uiso   1.00
C953   C     0.40143   0.16651   0.82135   0.00000  Uiso   1.00
C954   C     0.59857   0.16683   0.84531   0.00000  Uiso   1.00
C955   C     0.34603   0.16645   0.81490   0.00000  Uiso   1.00
C956   C     0.65397   0.16688   0.85177   0.00000  Uiso   1.00
C957   C     0.49991   0.02128   0.79152   0.00000  Uiso   1.00
C958   C     0.50009   0.31205   0.87515   0.00000  Uiso   1.00
C959   C     0.50008   0.31203   0.79155   0.00000  Uiso   1.00
C960   C     0.49992   0.02130   0.87512   0.00000  Uiso   1.00
C961   C     0.50016   0.29053   0.83336   0.00000  Uiso   1.00
C962   C     0.49984   0.04280   0.83330   0.00000  Uiso   1.00
C963   C     0.46612   0.13980   0.68718   0.00000  Uiso   1.00
C964   C     0.53388   0.19354   0.97949   0.00000  Uiso   1.00
C965   C     0.46614   0.13979   0.97110   0.00000  Uiso   1.00
C966   C     0.53386   0.19354   0.69557   0.00000  Uiso   1.00
Cu967  Cu    0.50000   0.16667   0.88022   0.00000  Uiso   1.00
Cu968  Cu    0.50000   0.16666   0.78645   0.00000  Uiso   1.00
H969   H     0.65939   0.16604   0.77953   0.00000  Uiso   1.00
H970   H     0.34061   0.16729   0.88713   0.00000  Uiso   1.00
H971   H     0.49987   0.03724   0.75880   0.00000  Uiso   1.00
H972   H     0.50013   0.29609   0.90787   0.00000  Uiso   1.00
H973   H     0.50010   0.29605   0.75884   0.00000  Uiso   1.00
H974   H     0.49990   0.03728   0.90783   0.00000  Uiso   1.00
N975   N     0.50001   0.16668   0.95069   0.00000  Uiso   1.00
N976   N     0.49999   0.16666   0.71597   0.00000  Uiso   1.00
O977   O     0.50000   0.10655   0.87291   0.00000  Uiso   1.00
O978   O     0.50000   0.22678   0.79375   0.00000  Uiso   1.00
O979   O     0.50000   0.10654   0.79372   0.00000  Uiso   1.00
O980   O     0.50000   0.22679   0.87294   0.00000  Uiso   1.00
O981   O     0.42495   0.16667   0.86379   0.00000  Uiso   1.00
O982   O     0.57505   0.16666   0.80288   0.00000  Uiso   1.00
O983   O     0.42494   0.16666   0.78460   0.00000  Uiso   1.00
O984   O     0.57506   0.16667   0.88207   0.00000  Uiso   1.00
C985   C     0.42742   0.10910   0.70627   0.00000  Uiso   1.00
H986   H     0.38742   0.11525   0.69174   0.00000  Uiso   1.00
H987   H     0.43451   0.07710   0.69727   0.00000  Uiso   1.00
H988   H     0.42776   0.10906   0.74354   0.00000  Uiso   1.00
C989   C     0.57258   0.22423   0.96039   0.00000  Uiso   1.00
H990   H     0.56548   0.25622   0.96939   0.00000  Uiso   1.00
H991   H     0.61258   0.21809   0.97493   0.00000  Uiso   1.00
H992   H     0.57225   0.22428   0.92312   0.00000  Uiso   1.00
C993   C     0.42757   0.10897   0.94247   0.00000  Uiso   1.00
H994   H     0.42776   0.10896   0.90526   0.00000  Uiso   1.00
H995   H     0.43494   0.07702   0.95318   0.00000  Uiso   1.00
H996   H     0.38754   0.11489   0.94724   0.00000  Uiso   1.00
C997   C     0.57243   0.22436   0.72420   0.00000  Uiso   1.00
H998   H     0.57224   0.22437   0.76141   0.00000  Uiso   1.00
H999   H     0.61247   0.21843   0.71944   0.00000  Uiso   1.00
H1000  H     0.56508   0.25631   0.71348   0.00000  Uiso   1.00
C1001  C     0.83314   0.08751   0.83329   0.00000  Uiso   1.00
C1002  C     0.83353   0.24582   0.83337   0.00000  Uiso   1.00
C1003  C     0.73476   0.16651   0.82135   0.00000  Uiso   1.00
C1004  C     0.93190   0.16683   0.84531   0.00000  Uiso   1.00
C1005  C     0.67936   0.16645   0.81490   0.00000  Uiso   1.00
C1006  C     0.98730   0.16688   0.85177   0.00000  Uiso   1.00
C1007  C     0.83324   0.02128   0.79152   0.00000  Uiso   1.00
C1008  C     0.83342   0.31205   0.87515   0.00000  Uiso   1.00
C1009  C     0.83341   0.31203   0.79155   0.00000  Uiso   1.00
C1010  C     0.83325   0.02130   0.87512   0.00000  Uiso   1.00
C1011  C     0.83350   0.29053   0.83336   0.00000  Uiso   1.00
C1012  C     0.83317   0.04280   0.83330   0.00000  Uiso   1.00
C1013  C     0.79945   0.13980   0.68718   0.00000  Uiso   1.00
C1014  C     0.86721   0.19354   0.97949   0.00000  Uiso   1.00
C1015  C     0.79948   0.13979   0.97110   0.00000  Uiso   1.00
C1016  C     0.86719   0.19354   0.69557   0.00000  Uiso   1.00
Cu1017 Cu    0.83333   0.16667   0.88022   0.00000  Uiso   1.00
Cu1018 Cu    0.83333   0.16666   0.78645   0.00000  Uiso   1.00
H1019  H     0.99272   0.16604   0.77953   0.00000  Uiso   1.00
H1020  H     0.67394   0.16729   0.88713   0.00000  Uiso   1.00
H1021  H     0.83321   0.03724   0.75880   0.00000  Uiso   1.00
H1022  H     0.83346   0.29609   0.90787   0.00000  Uiso   1.00
H1023  H     0.83343   0.29605   0.75884   0.00000  Uiso   1.00
H1024  H     0.83323   0.03728   0.90783   0.00000  Uiso   1.00
N1025  N     0.83335   0.16668   0.95069   0.00000  Uiso   1.00
N1026  N     0.83332   0.16666   0.71597   0.00000  Uiso   1.00
O1027  O     0.83333   0.10655   0.87291   0.00000  Uiso   1.00
O1028  O     0.83334   0.22678   0.79375   0.00000  Uiso   1.00
O1029  O     0.83333   0.10654   0.79372   0.00000  Uiso   1.00
O1030  O     0.83334   0.22679   0.87294   0.00000  Uiso   1.00
O1031  O     0.75828   0.16667   0.86379   0.00000  Uiso   1.00
O1032  O     0.90839   0.16666   0.80288   0.00000  Uiso   1.00
O1033  O     0.75828   0.16666   0.78460   0.00000  Uiso   1.00
O1034  O     0.90839   0.16667   0.88207   0.00000  Uiso   1.00
C1035  C     0.76075   0.10910   0.70627   0.00000  Uiso   1.00
H1036  H     0.72075   0.11525   0.69174   0.00000  Uiso   1.00
H1037  H     0.76784   0.07710   0.69727   0.00000  Uiso   1.00
H1038  H     0.76109   0.10906   0.74354   0.00000  Uiso   1.00
C1039  C     0.90592   0.22423   0.96039   0.00000  Uiso   1.00
H1040  H     0.89882   0.25622   0.96939   0.00000  Uiso   1.00
H1041  H     0.94591   0.21809   0.97493   0.00000  Uiso   1.00
H1042  H     0.90558   0.22428   0.92312   0.00000  Uiso   1.00
C1043  C     0.76090   0.10897   0.94247   0.00000  Uiso   1.00
H1044  H     0.76109   0.10896   0.90526   0.00000  Uiso   1.00
H1045  H     0.76828   0.07702   0.95318   0.00000  Uiso   1.00
H1046  H     0.72087   0.11489   0.94724   0.00000  Uiso   1.00
C1047  C     0.90577   0.22436   0.72420   0.00000  Uiso   1.00
H1048  H     0.90558   0.22437   0.76141   0.00000  Uiso   1.00
H1049  H     0.94580   0.21843   0.71944   0.00000  Uiso   1.00
H1050  H     0.89841   0.25631   0.71348   0.00000  Uiso   1.00
C1051  C     0.16647   0.42084   0.83329   0.00000  Uiso   1.00
C1052  C     0.16686   0.57916   0.83337   0.00000  Uiso   1.00
C1053  C     0.06810   0.49984   0.82135   0.00000  Uiso   1.00
C1054  C     0.26524   0.50016   0.84531   0.00000  Uiso   1.00
C1055  C     0.01269   0.49979   0.81490   0.00000  Uiso   1.00
C1056  C     0.32064   0.50021   0.85177   0.00000  Uiso   1.00
C1057  C     0.16657   0.35462   0.79152   0.00000  Uiso   1.00
C1058  C     0.16676   0.64538   0.87515   0.00000  Uiso   1.00
C1059  C     0.16674   0.64536   0.79155   0.00000  Uiso   1.00
C1060  C     0.16659   0.35464   0.87512   0.00000  Uiso   1.00
C1061  C     0.16683   0.62386   0.83336   0.00000  Uiso   1.00
C1062  C     0.16650   0.37614   0.83330   0.00000  Uiso   1.00
C1063  C     0.13279   0.47313   0.68718   0.00000  Uiso   1.00
C1064  C     0.20055   0.52687   0.97949   0.00000  Uiso   1.00
C1065  C     0.13281   0.47312   0.97110   0.00000  Uiso   1.00
C1066  C     0.20052   0.52688   0.69557   0.00000  Uiso   1.00
Cu1067 Cu    0.16667   0.50001   0.88022   0.00000  Uiso   1.00
Cu1068 Cu    0.16667   0.49999   0.78645   0.00000  Uiso   1.00
H1069  H     0.32606   0.49938   0.77953   0.00000  Uiso   1.00
H1070  H     0.00728   0.50062   0.88713   0.00000  Uiso   1.00
H1071  H     0.16654   0.37058   0.75880   0.00000  Uiso   1.00
H1072  H     0.16680   0.62942   0.90787   0.00000  Uiso   1.00
H1073  H     0.16677   0.62938   0.75884   0.00000  Uiso   1.00
H1074  H     0.16657   0.37062   0.90783   0.00000  Uiso   1.00
N1075  N     0.16668   0.50001   0.95069   0.00000  Uiso   1.00
N1076  N     0.16665   0.49999   0.71597   0.00000  Uiso   1.00
O1077  O     0.16666   0.43989   0.87291   0.00000  Uiso   1.00
O1078  O     0.16667   0.56011   0.79375   0.00000  Uiso   1.00
O1079  O     0.16666   0.43988   0.79372   0.00000  Uiso   1.00
O1080  O     0.16667   0.56012   0.87294   0.00000  Uiso   1.00
O1081  O     0.09161   0.50000   0.86379   0.00000  Uiso   1.00
O1082  O     0.24172   0.50000   0.80288   0.00000  Uiso   1.00
O1083  O     0.09161   0.49999   0.78460   0.00000  Uiso   1.00
O1084  O     0.24172   0.50001   0.88207   0.00000  Uiso   1.00
C1085  C     0.09408   0.44243   0.70627   0.00000  Uiso   1.00
H1086  H     0.05409   0.44859   0.69174   0.00000  Uiso   1.00
H1087  H     0.10117   0.41044   0.69727   0.00000  Uiso   1.00
H1088  H     0.09442   0.44239   0.74354   0.00000  Uiso   1.00
C1089  C     0.23925   0.55757   0.96039   0.00000  Uiso   1.00
H1090  H     0.23215   0.58956   0.96939   0.00000  Uiso   1.00
H1091  H     0.27924   0.55142   0.97493   0.00000  Uiso   1.00
H1092  H     0.23891   0.55761   0.92312   0.00000  Uiso   1.00
C1093  C     0.09424   0.44230   0.94247   0.00000  Uiso   1.00
H1094  H     0.09442   0.44229   0.90526   0.00000  Uiso   1.00
H1095  H     0.10161   0.41035   0.95318   0.00000  Uiso   1.00
H1096  H     0.05420   0.44822   0.94724   0.00000  Uiso   1.00
C1097  C     0.23910   0.55770   0.72420   0.00000  Uiso   1.00
H1098  H     0.23891   0.55771   0.76141   0.00000  Uiso   1.00
H1099  H     0.27914   0.55177   0.71944   0.00000  Uiso   1.00
H1100  H     0.23174   0.58965   0.71348   0.00000  Uiso   1.00
C1101  C     0.49980   0.42084   0.83329   0.00000  Uiso   1.00
C1102  C     0.50020   0.57916   0.83337   0.00000  Uiso   1.00
C1103  C     0.40143   0.49984   0.82135   0.00000  Uiso   1.00
C1104  C     0.59857   0.50016   0.84531   0.00000  Uiso   1.00
C1105  C     0.34603   0.49979   0.81490   0.00000  Uiso   1.00
C1106  C     0.65397   0.50021   0.85177   0.00000  Uiso   1.00
C1107  C     0.49991   0.35462   0.79152   0.00000  Uiso   1.00
C1108  C     0.50009   0.64538   0.87515   0.00000  Uiso   1.00
C1109  C     0.50008   0.64536   0.79155   0.00000  Uiso   1.00
C1110  C     0.49992   0.35464   0.87512   0.00000  Uiso   1.00
C1111  C     0.50016   0.62386   0.83336   0.00000  Uiso   1.00
C1112  C     0.49984   0.37614   0.83330   0.00000  Uiso   1.00
C1113  C     0.46612   0.47313   0.68718   0.00000  Uiso   1.00
C1114  C     0.53388   0.52687   0.97949   0.00000  Uiso   1.00
C1115  C     0.46614   0.47312   0.97110   0.00000  Uiso   1.00
C1116  C     0.53386   0.52688   0.69557   0.00000  Uiso   1.00
Cu1117 Cu    0.50000   0.50001   0.88022   0.00000  Uiso   1.00
Cu1118 Cu    0.50000   0.49999   0.78645   0.00000  Uiso   1.00
H1119  H     0.65939   0.49938   0.77953   0.00000  Uiso   1.00
H1120  H     0.34061   0.50062   0.88713   0.00000  Uiso   1.00
H1121  H     0.49987   0.37058   0.75880   0.00000  Uiso   1.00
H1122  H     0.50013   0.62942   0.90787   0.00000  Uiso   1.00
H1123  H     0.50010   0.62938   0.75884   0.00000  Uiso   1.00
H1124  H     0.49990   0.37062   0.90783   0.00000  Uiso   1.00
N1125  N     0.50001   0.50001   0.95069   0.00000  Uiso   1.00
N1126  N     0.49999   0.49999   0.71597   0.00000  Uiso   1.00
O1127  O     0.50000   0.43989   0.87291   0.00000  Uiso   1.00
O1128  O     0.50000   0.56011   0.79375   0.00000  Uiso   1.00
O1129  O     0.50000   0.43988   0.79372   0.00000  Uiso   1.00
O1130  O     0.50000   0.56012   0.87294   0.00000  Uiso   1.00
O1131  O     0.42495   0.50000   0.86379   0.00000  Uiso   1.00
O1132  O     0.57505   0.50000   0.80288   0.00000  Uiso   1.00
O1133  O     0.42494   0.49999   0.78460   0.00000  Uiso   1.00
O1134  O     0.57506   0.50001   0.88207   0.00000  Uiso   1.00
C1135  C     0.42742   0.44243   0.70627   0.00000  Uiso   1.00
H1136  H     0.38742   0.44859   0.69174   0.00000  Uiso   1.00
H1137  H     0.43451   0.41044   0.69727   0.00000  Uiso   1.00
H1138  H     0.42776   0.44239   0.74354   0.00000  Uiso   1.00
C1139  C     0.57258   0.55757   0.96039   0.00000  Uiso   1.00
H1140  H     0.56548   0.58956   0.96939   0.00000  Uiso   1.00
H1141  H     0.61258   0.55142   0.97493   0.00000  Uiso   1.00
H1142  H     0.57225   0.55761   0.92312   0.00000  Uiso   1.00
C1143  C     0.42757   0.44230   0.94247   0.00000  Uiso   1.00
H1144  H     0.42776   0.44229   0.90526   0.00000  Uiso   1.00
H1145  H     0.43494   0.41035   0.95318   0.00000  Uiso   1.00
H1146  H     0.38754   0.44822   0.94724   0.00000  Uiso   1.00
C1147  C     0.57243   0.55770   0.72420   0.00000  Uiso   1.00
H1148  H     0.57224   0.55771   0.76141   0.00000  Uiso   1.00
H1149  H     0.61247   0.55177   0.71944   0.00000  Uiso   1.00
H1150  H     0.56508   0.58965   0.71348   0.00000  Uiso   1.00
C1151  C     0.83314   0.42084   0.83329   0.00000  Uiso   1.00
C1152  C     0.83353   0.57916   0.83337   0.00000  Uiso   1.00
C1153  C     0.73476   0.49984   0.82135   0.00000  Uiso   1.00
C1154  C     0.93190   0.50016   0.84531   0.00000  Uiso   1.00
C1155  C     0.67936   0.49979   0.81490   0.00000  Uiso   1.00
C1156  C     0.98730   0.50021   0.85177   0.00000  Uiso   1.00
C1157  C     0.83324   0.35462   0.79152   0.00000  Uiso   1.00
C1158  C     0.83342   0.64538   0.87515   0.00000  Uiso   1.00
C1159  C     0.83341   0.64536   0.79155   0.00000  Uiso   1.00
C1160  C     0.83325   0.35464   0.87512   0.00000  Uiso   1.00
C1161  C     0.83350   0.62386   0.83336   0.00000  Uiso   1.00
C1162  C     0.83317   0.37614   0.83330   0.00000  Uiso   1.00
C1163  C     0.79945   0.47313   0.68718   0.00000  Uiso   1.00
C1164  C     0.86721   0.52687   0.97949   0.00000  Uiso   1.00
C1165  C     0.79948   0.47312   0.97110   0.00000  Uiso   1.00
C1166  C     0.86719   0.52688   0.69557   0.00000  Uiso   1.00
Cu1167 Cu    0.83333   0.50001   0.88022   0.00000  Uiso   1.00
Cu1168 Cu    0.83333   0.49999   0.78645   0.00000  Uiso   1.00
H1169  H     0.99272   0.49938   0.77953   0.00000  Uiso   1.00
H1170  H     0.67394   0.50062   0.88713   0.00000  Uiso   1.00
H1171  H     0.83321   0.37058   0.75880   0.00000  Uiso   1.00
H1172  H     0.83346   0.62942   0.90787   0.00000  Uiso   1.00
H1173  H     0.83343   0.62938   0.75884   0.00000  Uiso   1.00
H1174  H     0.83323   0.37062   0.90783   0.00000  Uiso   1.00
N1175  N     0.83335   0.50001   0.95069   0.00000  Uiso   1.00
N1176  N     0.83332   0.49999   0.71597   0.00000  Uiso   1.00
O1177  O     0.83333   0.43989   0.87291   0.00000  Uiso   1.00
O1178  O     0.83334   0.56011   0.79375   0.00000  Uiso   1.00
O1179  O     0.83333   0.43988   0.79372   0.00000  Uiso   1.00
O1180  O     0.83334   0.56012   0.87294   0.00000  Uiso   1.00
O1181  O     0.75828   0.50000   0.86379   0.00000  Uiso   1.00
O1182  O     0.90839   0.50000   0.80288   0.00000  Uiso   1.00
O1183  O     0.75828   0.49999   0.78460   0.00000  Uiso   1.00
O1184  O     0.90839   0.50001   0.88207   0.00000  Uiso   1.00
C1185  C     0.76075   0.44243   0.70627   0.00000  Uiso   1.00
H1186  H     0.72075   0.44859   0.69174   0.00000  Uiso   1.00
H1187  H     0.76784   0.41044   0.69727   0.00000  Uiso   1.00
H1188  H     0.76109   0.44239   0.74354   0.00000  Uiso   1.00
C1189  C     0.90592   0.55757   0.96039   0.00000  Uiso   1.00
H1190  H     0.89882   0.58956   0.96939   0.00000  Uiso   1.00
H1191  H     0.94591   0.55142   0.97493   0.00000  Uiso   1.00
H1192  H     0.90558   0.55761   0.92312   0.00000  Uiso   1.00
C1193  C     0.76090   0.44230   0.94247   0.00000  Uiso   1.00
H1194  H     0.76109   0.44229   0.90526   0.00000  Uiso   1.00
H1195  H     0.76828   0.41035   0.95318   0.00000  Uiso   1.00
H1196  H     0.72087   0.44822   0.94724   0.00000  Uiso   1.00
C1197  C     0.90577   0.55770   0.72420   0.00000  Uiso   1.00
H1198  H     0.90558   0.55771   0.76141   0.00000  Uiso   1.00
H1199  H     0.94580   0.55177   0.71944   0.00000  Uiso   1.00
H1200  H     0.89841   0.58965   0.71348   0.00000  Uiso   1.00
C1201  C     0.16647   0.75418   0.83329   0.00000  Uiso   1.00
C1202  C     0.16686   0.91249   0.83337   0.00000  Uiso   1.00
C1203  C     0.06810   0.83317   0.82135   0.00000  Uiso   1.00
C1204  C     0.26524   0.83349   0.84531   0.00000  Uiso   1.00
C1205  C     0.01269   0.83312   0.81490   0.00000  Uiso   1.00
C1206  C     0.32064   0.83355   0.85177   0.00000  Uiso   1.00
C1207  C     0.16657   0.68795   0.79152   0.00000  Uiso   1.00
C1208  C     0.16676   0.97872   0.87515   0.00000  Uiso   1.00
C1209  C     0.16674   0.97869   0.79155   0.00000  Uiso   1.00
C1210  C     0.16659   0.68797   0.87512   0.00000  Uiso   1.00
C1211  C     0.16683   0.95720   0.83336   0.00000  Uiso   1.00
C1212  C     0.16650   0.70947   0.83330   0.00000  Uiso   1.00
C1213  C     0.13279   0.80646   0.68718   0.00000  Uiso   1.00
C1214  C     0.20055   0.86020   0.97949   0.00000  Uiso   1.00
C1215  C     0.13281   0.80646   0.97110   0.00000  Uiso   1.00
C1216  C     0.20052   0.86021   0.69557   0.00000  Uiso   1.00
Cu1217 Cu    0.16667   0.83334   0.88022   0.00000  Uiso   1.00
Cu1218 Cu    0.16667   0.83333   0.78645   0.00000  Uiso   1.00
H1219  H     0.32606   0.83271   0.77953   0.00000  Uiso   1.00
H1220  H     0.00728   0.83395   0.88713   0.00000  Uiso   1.00
H1221  H     0.16654   0.70391   0.75880   0.00000  Uiso   1.00
H1222  H     0.16680   0.96276   0.90787   0.00000  Uiso   1.00
H1223  H     0.16677   0.96272   0.75884   0.00000  Uiso   1.00
H1224  H     0.16657   0.70395   0.90783   0.00000  Uiso   1.00
N1225  N     0.16668   0.83334   0.95069   0.00000  Uiso   1.00
N1226  N     0.16665   0.83332   0.71597   0.00000  Uiso   1.00
O1227  O     0.16666   0.77322   0.87291   0.00000  Uiso   1.00
O1228  O     0.16667   0.89345   0.79375   0.00000  Uiso   1.00
O1229  O     0.16666   0.77321   0.79372   0.00000  Uiso   1.00
O1230  O     0.16667   0.89346   0.87294   0.00000  Uiso   1.00
O1231  O     0.09161   0.83334   0.86379   0.00000  Uiso   1.00
O1232  O     0.24172   0.83333   0.80288   0.00000  Uiso   1.00
O1233  O     0.09161   0.83333   0.78460   0.00000  Uiso   1.00
O1234  O     0.24172   0.83334   0.88207   0.00000  Uiso   1.00
C1235  C     0.09408   0.77577   0.70627   0.00000  Uiso   1.00
H1236  H     0.05409   0.78192   0.69174   0.00000  Uiso   1.00
H1237  H     0.10117   0.74377   0.69727   0.00000  Uiso   1.00
H1238  H     0.09442   0.77572   0.74354   0.00000  Uiso   1.00
C1239  C     0.23925   0.89090   0.96039   0.00000  Uiso   1.00
H1240  H     0.23215   0.92289   0.96939   0.00000  Uiso   1.00
H1241  H     0.27924   0.88476   0.97493   0.00000  Uiso   1.00
H1242  H     0.23891   0.89094   0.92312   0.00000  Uiso   1.00
C1243  C     0.09424   0.77563   0.94247   0.00000  Uiso   1.00
H1244  H     0.09442   0.77563   0.90526   0.00000  Uiso   1.00
H1245  H     0.10161   0.74368   0.95318   0.00000  Uiso   1.00
H1246  H     0.05420   0.78155   0.94724   0.00000  Uiso   1.00
C1247  C     0.23910   0.89103   0.72420   0.00000  Uiso   1.00
H1248  H     0.23891   0.89104   0.76141   0.00000  Uiso   1.00
H1249  H     0.27914   0.88510   0.71944   0.00000  Uiso   1.00
H1250  H     0.23174   0.92298   0.71348   0.00000  Uiso   1.00
C1251  C     0.49980   0.75418   0.83329   0.00000  Uiso   1.00
C1252  C     0.50020   0.91249   0.83337   0.00000  Uiso   1.00
C1253  C     0.40143   0.83317   0.82135   0.00000  Uiso   1.00
C1254  C     0.59857   0.83349   0.84531   0.00000  Uiso   1.00
C1255  C     0.34603   0.83312   0.81490   0.00000  Uiso   1.00
C1256  C     0.65397   0.83355   0.85177   0.00000  Uiso   1.00
C1257  C     0.49991   0.68795   0.79152   0.00000  Uiso   1.00
C1258  C     0.50009   0.97872   0.87515   0.00000  Uiso   1.00
C1259  C     0.50008   0.97869   0.79155   0.00000  Uiso   1.00
C1260  C     0.49992   0.68797   0.87512   0.00000  Uiso   1.00
C1261  C     0.50016   0.95720   0.83336   0.00000  Uiso   1.00
C1262  C     0.49984   0.70947   0.83330   0.00000  Uiso   1.00
C1263  C     0.46612   0.80646   0.68718   0.00000  Uiso   1.00
C1264  C     0.53388   0.86020   0.97949   0.00000  Uiso   1.00
C1265  C     0.46614   0.80646   0.97110   0.00000  Uiso   1.00
C1266  C     0.53386   0.86021   0.69557   0.00000  Uiso   1.00
Cu1267 Cu    0.50000   0.83334   0.88022   0.00000  Uiso   1.00
Cu1268 Cu    0.50000   0.83333   0.78645   0.00000  Uiso   1.00
H1269  H     0.65939   0.83271   0.77953   0.00000  Uiso   1.00
H1270  H     0.34061   0.83395   0.88713   0.00000  Uiso   1.00
H1271  H     0.49987   0.70391   0.75880   0.00000  Uiso   1.00
H1272  H     0.50013   0.96276   0.90787   0.00000  Uiso   1.00
H1273  H     0.50010   0.96272   0.75884   0.00000  Uiso   1.00
H1274  H     0.49990   0.70395   0.90783   0.00000  Uiso   1.00
N1275  N     0.50001   0.83334   0.95069   0.00000  Uiso   1.00
N1276  N     0.49999   0.83332   0.71597   0.00000  Uiso   1.00
O1277  O     0.50000   0.77322   0.87291   0.00000  Uiso   1.00
O1278  O     0.50000   0.89345   0.79375   0.00000  Uiso   1.00
O1279  O     0.50000   0.77321   0.79372   0.00000  Uiso   1.00
O1280  O     0.50000   0.89346   0.87294   0.00000  Uiso   1.00
O1281  O     0.42495   0.83334   0.86379   0.00000  Uiso   1.00
O1282  O     0.57505   0.83333   0.80288   0.00000  Uiso   1.00
O1283  O     0.42494   0.83333   0.78460   0.00000  Uiso   1.00
O1284  O     0.57506   0.83334   0.88207   0.00000  Uiso   1.00
C1285  C     0.42742   0.77577   0.70627   0.00000  Uiso   1.00
H1286  H     0.38742   0.78192   0.69174   0.00000  Uiso   1.00
H1287  H     0.43451   0.74377   0.69727   0.00000  Uiso   1.00
H1288  H     0.42776   0.77572   0.74354   0.00000  Uiso   1.00
C1289  C     0.57258   0.89090   0.96039   0.00000  Uiso   1.00
H1290  H     0.56548   0.92289   0.96939   0.00000  Uiso   1.00
H1291  H     0.61258   0.88476   0.97493   0.00000  Uiso   1.00
H1292  H     0.57225   0.89094   0.92312   0.00000  Uiso   1.00
C1293  C     0.42757   0.77563   0.94247   0.00000  Uiso   1.00
H1294  H     0.42776   0.77563   0.90526   0.00000  Uiso   1.00
H1295  H     0.43494   0.74368   0.95318   0.00000  Uiso   1.00
H1296  H     0.38754   0.78155   0.94724   0.00000  Uiso   1.00
C1297  C     0.57243   0.89103   0.72420   0.00000  Uiso   1.00
H1298  H     0.57224   0.89104   0.76141   0.00000  Uiso   1.00
H1299  H     0.61247   0.88510   0.71944   0.00000  Uiso   1.00
H1300  H     0.56508   0.92298   0.71348   0.00000  Uiso   1.00
C1301  C     0.83314   0.75418   0.83329   0.00000  Uiso   1.00
C1302  C     0.83353   0.91249   0.83337   0.00000  Uiso   1.00
C1303  C     0.73476   0.83317   0.82135   0.00000  Uiso   1.00
C1304  C     0.93190   0.83349   0.84531   0.00000  Uiso   1.00
C1305  C     0.67936   0.83312   0.81490   0.00000  Uiso   1.00
C1306  C     0.98730   0.83355   0.85177   0.00000  Uiso   1.00
C1307  C     0.83324   0.68795   0.79152   0.00000  Uiso   1.00
C1308  C     0.83342   0.97872   0.87515   0.00000  Uiso   1.00
C1309  C     0.83341   0.97869   0.79155   0.00000  Uiso   1.00
C1310  C     0.83325   0.68797   0.87512   0.00000  Uiso   1.00
C1311  C     0.83350   0.95720   0.83336   0.00000  Uiso   1.00
C1312  C     0.83317   0.70947   0.83330   0.00000  Uiso   1.00
C1313  C     0.79945   0.80646   0.68718   0.00000  Uiso   1.00
C1314  C     0.86721   0.86020   0.97949   0.00000  Uiso   1.00
C1315  C     0.79948   0.80646   0.97110   0.00000  Uiso   1.00
C1316  C     0.86719   0.86021   0.69557   0.00000  Uiso   1.00
Cu1317 Cu    0.83333   0.83334   0.88022   0.00000  Uiso   1.00
Cu1318 Cu    0.83333   0.83333   0.78645   0.00000  Uiso   1.00
H1319  H     0.99272   0.83271   0.77953   0.00000  Uiso   1.00
H1320  H     0.67394   0.83395   0.88713   0.00000  Uiso   1.00
H1321  H     0.83321   0.70391   0.75880   0.00000  Uiso   1.00
H1322  H     0.83346   0.96276   0.90787   0.00000  Uiso   1.00
H1323  H     0.83343   0.96272   0.75884   0.00000  Uiso   1.00
H1324  H     0.83323   0.70395   0.90783   0.00000  Uiso   1.00
N1325  N     0.83335   0.83334   0.95069   0.00000  Uiso   1.00
N1326  N     0.83332   0.83332   0.71597   0.00000  Uiso   1.00
O1327  O     0.83333   0.77322   0.87291   0.00000  Uiso   1.00
O1328  O     0.83334   0.89345   0.79375   0.00000  Uiso   1.00
O1329  O     0.83333   0.77321   0.79372   0.00000  Uiso   1.00
O1330  O     0.83334   0.89346   0.87294   0.00000  Uiso   1.00
O1331  O     0.75828   0.83334   0.86379   0.00000  Uiso   1.00
O1332  O     0.90839   0.83333   0.80288   0.00000  Uiso   1.00
O1333  O     0.75828   0.83333   0.78460   0.00000  Uiso   1.00
O1334  O     0.90839   0.83334   0.88207   0.00000  Uiso   1.00
C1335  C     0.76075   0.77577   0.70627   0.00000  Uiso   1.00
H1336  H     0.72075   0.78192   0.69174   0.00000  Uiso   1.00
H1337  H     0.76784   0.74377   0.69727   0.00000  Uiso   1.00
H1338  H     0.76109   0.77572   0.74354   0.00000  Uiso   1.00
C1339  C     0.90592   0.89090   0.96039   0.00000  Uiso   1.00
H1340  H     0.89882   0.92289   0.96939   0.00000  Uiso   1.00
H1341  H     0.94591   0.88476   0.97493   0.00000  Uiso   1.00
H1342  H     0.90558   0.89094   0.92312   0.00000  Uiso   1.00
C1343  C     0.76090   0.77563   0.94247   0.00000  Uiso   1.00
H1344  H     0.76109   0.77563   0.90526   0.00000  Uiso   1.00
H1345  H     0.76828   0.74368   0.95318   0.00000  Uiso   1.00
H1346  H     0.72087   0.78155   0.94724   0.00000  Uiso   1.00
C1347  C     0.90577   0.89103   0.72420   0.00000  Uiso   1.00
H1348  H     0.90558   0.89104   0.76141   0.00000  Uiso   1.00
H1349  H     0.94580   0.88510   0.71944   0.00000  Uiso   1.00
H1350  H     0.89841   0.92298   0.71348   0.00000  Uiso   1.00
loop_
_geom_bond_atom_site_label_1
_geom_bond_atom_site_label_2
_geom_bond_distance
_geom_bond_site_symmetry_2
_ccdc_geom_bond_type
C1     O29     1.306   .     A
C1     C12     1.453   .     S
C1     O27     1.306   .     A
C2     O30     1.306   .     A
C2     C11     1.453   .     S
C2     O28     1.306   .     A
C3     O31     1.301   .     A
C3     O33     1.304   .     A
C3     C5      1.437   .     S
C4     O32     1.301   .     A
C4     O34     1.304   .     A
C4     C6      1.437   .     S
C5     C106    1.337   1_455 S
C5     H119    1.087   1_455 S
C6     C55     1.337   .     S
C6     H70     1.087   .     S
C7     H21     1.083   .     S
C7     C12     1.402   .     A
C7     C309    1.384   1_545 S
C8     H22     1.083   .     S
C8     C11     1.402   .     A
C8     C160    1.384   .     S
C9     C11     1.402   .     A
C9     H23     1.083   .     S
C9     C157    1.384   .     S
C10    C12     1.402   .     A
C10    H24     1.083   .     S
C10    C308    1.384   1_545 S
C13    C35     1.520   .     S
C13    N26     1.383   .     A
C13    C915    1.436   1_554 S
C14    N25     1.383   .     A
C14    C39     1.520   .     S
C14    C466    1.436   .     S
C15    C43     1.520   .     S
C15    N25     1.383   .     A
C15    C463    1.436   .     S
C16    C47     1.520   .     S
C16    N26     1.383   .     A
C16    C914    1.436   1_554 S
Cu17   N25     2.048   .     S
Cu17   Cu18    2.725   .     S
Cu17   O30     1.965   .     S
Cu17   O31     1.958   .     S
Cu17   O34     1.959   .     S
Cu17   O27     1.965   .     S
Cu18   N26     2.048   .     S
Cu18   O29     1.965   .     S
Cu18   O33     1.959   .     S
Cu18   O32     1.958   .     S
Cu18   O28     1.965   .     S
H19    C55     1.087   .     S
H20    C106    1.087   1_455 S
C35    H38     1.082   .     S
C35    H37     1.109   .     S
C35    H36     1.109   .     S
C39    H42     1.082   .     S
C39    H41     1.109   .     S
C39    H40     1.109   .     S
C43    H44     1.082   .     S
C43    H46     1.109   .     S
C43    H45     1.109   .     S
C47    H48     1.082   .     S
C47    H49     1.109   .     S
C47    H50     1.109   .     S
C51    O79     1.306   .     A
C51    C62     1.453   .     S
C51    O77     1.306   .     A
C52    O80     1.306   .     A
C52    C61     1.453   .     S
C52    O78     1.306   .     A
C53    O81     1.301   .     A
C53    O83     1.304   .     A
C53    C55     1.437   .     S
C54    O82     1.301   .     A
C54    O84     1.304   .     A
C54    C56     1.437   .     S
C56    C105    1.337   .     S
C56    H120    1.087   .     S
C57    H71     1.083   .     S
C57    C62     1.402   .     A
C57    C359    1.384   1_545 S
C58    H72     1.083   .     S
C58    C61     1.402   .     A
C58    C210    1.384   .     S
C59    C61     1.402   .     A
C59    H73     1.083   .     S
C59    C207    1.384   .     S
C60    C62     1.402   .     A
C60    H74     1.083   .     S
C60    C358    1.384   1_545 S
C63    C85     1.520   .     S
C63    N76     1.383   .     A
C63    C965    1.436   1_554 S
C64    N75     1.383   .     A
C64    C89     1.520   .     S
C64    C516    1.436   .     S
C65    C93     1.520   .     S
C65    N75     1.383   .     A
C65    C513    1.436   .     S
C66    C97     1.520   .     S
C66    N76     1.383   .     A
C66    C964    1.436   1_554 S
Cu67   N75     2.048   .     S
Cu67   Cu68    2.725   .     S
Cu67   O80     1.965   .     S
Cu67   O81     1.958   .     S
Cu67   O84     1.959   .     S
Cu67   O77     1.965   .     S
Cu68   N76     2.048   .     S
Cu68   O79     1.965   .     S
Cu68   O83     1.959   .     S
Cu68   O82     1.958   .     S
Cu68   O78     1.965   .     S
H69    C105    1.087   .     S
C85    H88     1.082   .     S
C85    H87     1.109   .     S
C85    H86     1.109   .     S
C89    H92     1.082   .     S
C89    H91     1.109   .     S
C89    H90     1.109   .     S
C93    H94     1.082   .     S
C93    H96     1.109   .     S
C93    H95     1.109   .     S
C97    H98     1.082   .     S
C97    H99     1.109   .     S
C97    H100    1.109   .     S
C101   O129    1.306   .     A
C101   C112    1.453   .     S
C101   O127    1.306   .     A
C102   O130    1.306   .     A
C102   C111    1.453   .     S
C102   O128    1.306   .     A
C103   O131    1.301   .     A
C103   O133    1.304   .     A
C103   C105    1.437   .     S
C104   O132    1.301   .     A
C104   O134    1.304   .     A
C104   C106    1.437   .     S
C106   C5      1.337   1_655 S
C106   H20     1.087   1_655 S
C107   H121    1.083   .     S
C107   C112    1.402   .     A
C107   C409    1.384   1_545 S
C108   H122    1.083   .     S
C108   C111    1.402   .     A
C108   C260    1.384   .     S
C109   C111    1.402   .     A
C109   H123    1.083   .     S
C109   C257    1.384   .     S
C110   C112    1.402   .     A
C110   H124    1.083   .     S
C110   C408    1.384   1_545 S
C113   C135    1.520   .     S
C113   N126    1.383   .     A
C113   C1015   1.436   1_554 S
C114   N125    1.383   .     A
C114   C139    1.520   .     S
C114   C566    1.436   .     S
C115   C143    1.520   .     S
C115   N125    1.383   .     A
C115   C563    1.436   .     S
C116   C147    1.520   .     S
C116   N126    1.383   .     A
C116   C1014   1.436   1_554 S
Cu117  N125    2.048   .     S
Cu117  Cu118   2.725   .     S
Cu117  O130    1.965   .     S
Cu117  O131    1.958   .     S
Cu117  O134    1.959   .     S
Cu117  O127    1.965   .     S
Cu118  N126    2.048   .     S
Cu118  O129    1.965   .     S
Cu118  O133    1.959   .     S
Cu118  O132    1.958   .     S
Cu118  O128    1.965   .     S
H119   C5      1.087   1_655 S
C135   H138    1.082   .     S
C135   H137    1.109   .     S
C135   H136    1.109   .     S
C139   H142    1.082   .     S
C139   H141    1.109   .     S
C139   H140    1.109   .     S
C143   H144    1.082   .     S
C143   H146    1.109   .     S
C143   H145    1.109   .     S
C147   H148    1.082   .     S
C147   H149    1.109   .     S
C147   H150    1.109   .     S
C151   O179    1.306   .     A
C151   C162    1.453   .     S
C151   O177    1.306   .     A
C152   O180    1.306   .     A
C152   C161    1.453   .     S
C152   O178    1.306   .     A
C153   O181    1.301   .     A
C153   O183    1.304   .     A
C153   C155    1.437   .     S
C154   O182    1.301   .     A
C154   O184    1.304   .     A
C154   C156    1.437   .     S
C155   C256    1.337   1_455 S
C155   H269    1.087   1_455 S
C156   C205    1.337   .     S
C156   H220    1.087   .     S
C157   H171    1.083   .     S
C157   C162    1.402   .     A
C158   H172    1.083   .     S
C158   C161    1.402   .     A
C158   C310    1.384   .     S
C159   C161    1.402   .     A
C159   H173    1.083   .     S
C159   C307    1.384   .     S
C160   C162    1.402   .     A
C160   H174    1.083   .     S
C163   C185    1.520   .     S
C163   N176    1.383   .     A
C163   C1065   1.436   1_554 S
C164   N175    1.383   .     A
C164   C189    1.520   .     S
C164   C616    1.436   .     S
C165   C193    1.520   .     S
C165   N175    1.383   .     A
C165   C613    1.436   .     S
C166   C197    1.520   .     S
C166   N176    1.383   .     A
C166   C1064   1.436   1_554 S
Cu167  N175    2.048   .     S
Cu167  Cu168   2.725   .     S
Cu167  O180    1.965   .     S
Cu167  O181    1.958   .     S
Cu167  O184    1.959   .     S
Cu167  O177    1.965   .     S
Cu168  N176    2.048   .     S
Cu168  O179    1.965   .     S
Cu168  O183    1.959   .     S
Cu168  O182    1.958   .     S
Cu168  O178    1.965   .     S
H169   C205    1.087   .     S
H170   C256    1.087   1_455 S
C185   H188    1.082   .     S
C185   H187    1.109   .     S
C185   H186    1.109   .     S
C189   H192    1.082   .     S
C189   H191    1.109   .     S
C189   H190    1.109   .     S
C193   H194    1.082   .     S
C193   H196    1.109   .     S
C193   H195    1.109   .     S
C197   H198    1.082   .     S
C197   H199    1.109   .     S
C197   H200    1.109   .     S
C201   O229    1.306   .     A
C201   C212    1.453   .     S
C201   O227    1.306   .     A
C202   O230    1.306   .     A
C202   C211    1.453   .     S
C202   O228    1.306   .     A
C203   O231    1.301   .     A
C203   O233    1.304   .     A
C203   C205    1.437   .     S
C204   O232    1.301   .     A
C204   O234    1.304   .     A
C204   C206    1.437   .     S
C206   C255    1.337   .     S
C206   H270    1.087   .     S
C207   H221    1.083   .     S
C207   C212    1.402   .     A
C208   H222    1.083   .     S
C208   C211    1.402   .     A
C208   C360    1.384   .     S
C209   C211    1.402   .     A
C209   H223    1.083   .     S
C209   C357    1.384   .     S
C210   C212    1.402   .     A
C210   H224    1.083   .     S
C213   C235    1.520   .     S
C213   N226    1.383   .     A
C213   C1115   1.436   1_554 S
C214   N225    1.383   .     A
C214   C239    1.520   .     S
C214   C666    1.436   .     S
C215   C243    1.520   .     S
C215   N225    1.383   .     A
C215   C663    1.436   .     S
C216   C247    1.520   .     S
C216   N226    1.383   .     A
C216   C1114   1.436   1_554 S
Cu217  N225    2.048   .     S
Cu217  Cu218   2.725   .     S
Cu217  O230    1.965   .     S
Cu217  O231    1.958   .     S
Cu217  O234    1.959   .     S
Cu217  O227    1.965   .     S
Cu218  N226    2.048   .     S
Cu218  O229    1.965   .     S
Cu218  O233    1.959   .     S
Cu218  O232    1.958   .     S
Cu218  O228    1.965   .     S
H219   C255    1.087   .     S
C235   H238    1.082   .     S
C235   H237    1.109   .     S
C235   H236    1.109   .     S
C239   H242    1.082   .     S
C239   H241    1.109   .     S
C239   H240    1.109   .     S
C243   H244    1.082   .     S
C243   H246    1.109   .     S
C243   H245    1.109   .     S
C247   H248    1.082   .     S
C247   H249    1.109   .     S
C247   H250    1.109   .     S
C251   O279    1.306   .     A
C251   C262    1.453   .     S
C251   O277    1.306   .     A
C252   O280    1.306   .     A
C252   C261    1.453   .     S
C252   O278    1.306   .     A
C253   O281    1.301   .     A
C253   O283    1.304   .     A
C253   C255    1.437   .     S
C254   O282    1.301   .     A
C254   O284    1.304   .     A
C254   C256    1.437   .     S
C256   C155    1.337   1_655 S
C256   H170    1.087   1_655 S
C257   H271    1.083   .     S
C257   C262    1.402   .     A
C258   H272    1.083   .     S
C258   C261    1.402   .     A
C258   C410    1.384   .     S
C259   C261    1.402   .     A
C259   H273    1.083   .     S
C259   C407    1.384   .     S
C260   C262    1.402   .     A
C260   H274    1.083   .     S
C263   C285    1.520   .     S
C263   N276    1.383   .     A
C263   C1165   1.436   1_554 S
C264   N275    1.383   .     A
C264   C289    1.520   .     S
C264   C716    1.436   .     S
C265   C293    1.520   .     S
C265   N275    1.383   .     A
C265   C713    1.436   .     S
C266   C297    1.520   .     S
C266   N276    1.383   .     A
C266   C1164   1.436   1_554 S
Cu267  N275    2.048   .     S
Cu267  Cu268   2.725   .     S
Cu267  O280    1.965   .     S
Cu267  O281    1.958   .     S
Cu267  O284    1.959   .     S
Cu267  O277    1.965   .     S
Cu268  N276    2.048   .     S
Cu268  O279    1.965   .     S
Cu268  O283    1.959   .     S
Cu268  O282    1.958   .     S
Cu268  O278    1.965   .     S
H269   C155    1.087   1_655 S
C285   H288    1.082   .     S
C285   H287    1.109   .     S
C285   H286    1.109   .     S
C289   H292    1.082   .     S
C289   H291    1.109   .     S
C289   H290    1.109   .     S
C293   H294    1.082   .     S
C293   H296    1.109   .     S
C293   H295    1.109   .     S
C297   H298    1.082   .     S
C297   H299    1.109   .     S
C297   H300    1.109   .     S
C301   O329    1.306   .     A
C301   C312    1.453   .     S
C301   O327    1.306   .     A
C302   O330    1.306   .     A
C302   C311    1.453   .     S
C302   O328    1.306   .     A
C303   O331    1.301   .     A
C303   O333    1.304   .     A
C303   C305    1.437   .     S
C304   O332    1.301   .     A
C304   O334    1.304   .     A
C304   C306    1.437   .     S
C305   C406    1.337   1_455 S
C305   H419    1.087   1_455 S
C306   C355    1.337   .     S
C306   H370    1.087   .     S
C307   H321    1.083   .     S
C307   C312    1.402   .     A
C308   H322    1.083   .     S
C308   C311    1.402   .     A
C308   C10     1.384   1_565 S
C309   C311    1.402   .     A
C309   H323    1.083   .     S
C309   C7      1.384   1_565 S
C310   C312    1.402   .     A
C310   H324    1.083   .     S
C313   C335    1.520   .     S
C313   N326    1.383   .     A
C313   C1215   1.436   1_554 S
C314   N325    1.383   .     A
C314   C339    1.520   .     S
C314   C766    1.436   .     S
C315   C343    1.520   .     S
C315   N325    1.383   .     A
C315   C763    1.436   .     S
C316   C347    1.520   .     S
C316   N326    1.383   .     A
C316   C1214   1.436   1_554 S
Cu317  N325    2.048   .     S
Cu317  Cu318   2.725   .     S
Cu317  O330    1.965   .     S
Cu317  O331    1.958   .     S
Cu317  O334    1.959   .     S
Cu317  O327    1.965   .     S
Cu318  N326    2.048   .     S
Cu318  O329    1.965   .     S
Cu318  O333    1.959   .     S
Cu318  O332    1.958   .     S
Cu318  O328    1.965   .     S
H319   C355    1.087   .     S
H320   C406    1.087   1_455 S
C335   H338    1.082   .     S
C335   H337    1.109   .     S
C335   H336    1.109   .     S
C339   H342    1.082   .     S
C339   H341    1.109   .     S
C339   H340    1.109   .     S
C343   H344    1.082   .     S
C343   H346    1.109   .     S
C343   H345    1.109   .     S
C347   H348    1.082   .     S
C347   H349    1.109   .     S
C347   H350    1.109   .     S
C351   O379    1.306   .     A
C351   C362    1.453   .     S
C351   O377    1.306   .     A
C352   O380    1.306   .     A
C352   C361    1.453   .     S
C352   O378    1.306   .     A
C353   O381    1.301   .     A
C353   O383    1.304   .     A
C353   C355    1.437   .     S
C354   O382    1.301   .     A
C354   O384    1.304   .     A
C354   C356    1.437   .     S
C356   C405    1.337   .     S
C356   H420    1.087   .     S
C357   H371    1.083   .     S
C357   C362    1.402   .     A
C358   H372    1.083   .     S
C358   C361    1.402   .     A
C358   C60     1.384   1_565 S
C359   C361    1.402   .     A
C359   H373    1.083   .     S
C359   C57     1.384   1_565 S
C360   C362    1.402   .     A
C360   H374    1.083   .     S
C363   C385    1.520   .     S
C363   N376    1.383   .     A
C363   C1265   1.436   1_554 S
C364   N375    1.383   .     A
C364   C389    1.520   .     S
C364   C816    1.436   .     S
C365   C393    1.520   .     S
C365   N375    1.383   .     A
C365   C813    1.436   .     S
C366   C397    1.520   .     S
C366   N376    1.383   .     A
C366   C1264   1.436   1_554 S
Cu367  N375    2.048   .     S
Cu367  Cu368   2.725   .     S
Cu367  O380    1.965   .     S
Cu367  O381    1.958   .     S
Cu367  O384    1.959   .     S
Cu367  O377    1.965   .     S
Cu368  N376    2.048   .     S
Cu368  O379    1.965   .     S
Cu368  O383    1.959   .     S
Cu368  O382    1.958   .     S
Cu368  O378    1.965   .     S
H369   C405    1.087   .     S
C385   H388    1.082   .     S
C385   H387    1.109   .     S
C385   H386    1.109   .     S
C389   H392    1.082   .     S
C389   H391    1.109   .     S
C389   H390    1.109   .     S
C393   H394    1.082   .     S
C393   H396    1.109   .     S
C393   H395    1.109   .     S
C397   H398    1.082   .     S
C397   H399    1.109   .     S
C397   H400    1.109   .     S
C401   O429    1.306   .     A
C401   C412    1.453   .     S
C401   O427    1.306   .     A
C402   O430    1.306   .     A
C402   C411    1.453   .     S
C402   O428    1.306   .     A
C403   O431    1.301   .     A
C403   O433    1.304   .     A
C403   C405    1.437   .     S
C404   O432    1.301   .     A
C404   O434    1.304   .     A
C404   C406    1.437   .     S
C406   C305    1.337   1_655 S
C406   H320    1.087   1_655 S
C407   H421    1.083   .     S
C407   C412    1.402   .     A
C408   H422    1.083   .     S
C408   C411    1.402   .     A
C408   C110    1.384   1_565 S
C409   C411    1.402   .     A
C409   H423    1.083   .     S
C409   C107    1.384   1_565 S
C410   C412    1.402   .     A
C410   H424    1.083   .     S
C413   C435    1.520   .     S
C413   N426    1.383   .     A
C413   C1315   1.436   1_554 S
C414   N425    1.383   .     A
C414   C439    1.520   .     S
C414   C866    1.436   .     S
C415   C443    1.520   .     S
C415   N425    1.383   .     A
C415   C863    1.436   .     S
C416   C447    1.520   .     S
C416   N426    1.383   .     A
C416   C1314   1.436   1_554 S
Cu417  N425    2.048   .     S
Cu417  Cu418   2.725   .     S
Cu417  O430    1.965   .     S
Cu417  O431    1.958   .     S
Cu417  O434    1.959   .     S
Cu417  O427    1.965   .     S
Cu418  N426    2.048   .     S
Cu418  O429    1.965   .     S
Cu418  O433    1.959   .     S
Cu418  O432    1.958   .     S
Cu418  O428    1.965   .     S
H419   C305    1.087   1_655 S
C435   H438    1.082   .     S
C435   H437    1.109   .     S
C435   H436    1.109   .     S
C439   H442    1.082   .     S
C439   H441    1.109   .     S
C439   H440    1.109   .     S
C443   H444    1.082   .     S
C443   H446    1.109   .     S
C443   H445    1.109   .     S
C447   H448    1.082   .     S
C447   H449    1.109   .     S
C447   H450    1.109   .     S
C451   O479    1.306   .     A
C451   C462    1.453   .     S
C451   O477    1.306   .     A
C452   O480    1.306   .     A
C452   C461    1.453   .     S
C452   O478    1.306   .     A
C453   O481    1.301   .     A
C453   O483    1.304   .     A
C453   C455    1.437   .     S
C454   O482    1.301   .     A
C454   O484    1.304   .     A
C454   C456    1.437   .     S
C455   C556    1.337   1_455 S
C455   H569    1.087   1_455 S
C456   C505    1.337   .     S
C456   H520    1.087   .     S
C457   H471    1.083   .     S
C457   C462    1.402   .     A
C457   C759    1.384   1_545 S
C458   H472    1.083   .     S
C458   C461    1.402   .     A
C458   C610    1.384   .     S
C459   C461    1.402   .     A
C459   H473    1.083   .     S
C459   C607    1.384   .     S
C460   C462    1.402   .     A
C460   H474    1.083   .     S
C460   C758    1.384   1_545 S
C463   C485    1.520   .     S
C463   N476    1.383   .     A
C464   N475    1.383   .     A
C464   C489    1.520   .     S
C464   C916    1.436   .     S
C465   C493    1.520   .     S
C465   N475    1.383   .     A
C465   C913    1.436   .     S
C466   C497    1.520   .     S
C466   N476    1.383   .     A
Cu467  N475    2.048   .     S
Cu467  Cu468   2.725   .     S
Cu467  O480    1.965   .     S
Cu467  O481    1.958   .     S
Cu467  O484    1.959   .     S
Cu467  O477    1.965   .     S
Cu468  N476    2.048   .     S
Cu468  O479    1.965   .     S
Cu468  O483    1.959   .     S
Cu468  O482    1.958   .     S
Cu468  O478    1.965   .     S
H469   C505    1.087   .     S
H470   C556    1.087   1_455 S
C485   H488    1.082   .     S
C485   H487    1.109   .     S
C485   H486    1.109   .     S
C489   H492    1.082   .     S
C489   H491    1.109   .     S
C489   H490    1.109   .     S
C493   H494    1.082   .     S
C493   H496    1.109   .     S
C493   H495    1.109   .     S
C497   H498    1.082   .     S
C497   H499    1.109   .     S
C497   H500    1.109   .     S
C501   O529    1.306   .     A
C501   C512    1.453   .     S
C501   O527    1.306   .     A
C502   O530    1.306   .     A
C502   C511    1.453   .     S
C502   O528    1.306   .     A
C503   O531    1.301   .     A
C503   O533    1.304   .     A
C503   C505    1.437   .     S
C504   O532    1.301   .     A
C504   O534    1.304   .     A
C504   C506    1.437   .     S
C506   C555    1.337   .     S
C506   H570    1.087   .     S
C507   H521    1.083   .     S
C507   C512    1.402   .     A
C507   C809    1.384   1_545 S
C508   H522    1.083   .     S
C508   C511    1.402   .     A
C508   C660    1.384   .     S
C509   C511    1.402   .     A
C509   H523    1.083   .     S
C509   C657    1.384   .     S
C510   C512    1.402   .     A
C510   H524    1.083   .     S
C510   C808    1.384   1_545 S
C513   C535    1.520   .     S
C513   N526    1.383   .     A
C514   N525    1.383   .     A
C514   C539    1.520   .     S
C514   C966    1.436   .     S
C515   C543    1.520   .     S
C515   N525    1.383   .     A
C515   C963    1.436   .     S
C516   C547    1.520   .     S
C516   N526    1.383   .     A
Cu517  N525    2.048   .     S
Cu517  Cu518   2.725   .     S
Cu517  O530    1.965   .     S
Cu517  O531    1.958   .     S
Cu517  O534    1.959   .     S
Cu517  O527    1.965   .     S
Cu518  N526    2.048   .     S
Cu518  O529    1.965   .     S
Cu518  O533    1.959   .     S
Cu518  O532    1.958   .     S
Cu518  O528    1.965   .     S
H519   C555    1.087   .     S
C535   H538    1.082   .     S
C535   H537    1.109   .     S
C535   H536    1.109   .     S
C539   H542    1.082   .     S
C539   H541    1.109   .     S
C539   H540    1.109   .     S
C543   H544    1.082   .     S
C543   H546    1.109   .     S
C543   H545    1.109   .     S
C547   H548    1.082   .     S
C547   H549    1.109   .     S
C547   H550    1.109   .     S
C551   O579    1.306   .     A
C551   C562    1.453   .     S
C551   O577    1.306   .     A
C552   O580    1.306   .     A
C552   C561    1.453   .     S
C552   O578    1.306   .     A
C553   O581    1.301   .     A
C553   O583    1.304   .     A
C553   C555    1.437   .     S
C554   O582    1.301   .     A
C554   O584    1.304   .     A
C554   C556    1.437   .     S
C556   C455    1.337   1_655 S
C556   H470    1.087   1_655 S
C557   H571    1.083   .     S
C557   C562    1.402   .     A
C557   C859    1.384   1_545 S
C558   H572    1.083   .     S
C558   C561    1.402   .     A
C558   C710    1.384   .     S
C559   C561    1.402   .     A
C559   H573    1.083   .     S
C559   C707    1.384   .     S
C560   C562    1.402   .     A
C560   H574    1.083   .     S
C560   C858    1.384   1_545 S
C563   C585    1.520   .     S
C563   N576    1.383   .     A
C564   N575    1.383   .     A
C564   C589    1.520   .     S
C564   C1016   1.436   .     S
C565   C593    1.520   .     S
C565   N575    1.383   .     A
C565   C1013   1.436   .     S
C566   C597    1.520   .     S
C566   N576    1.383   .     A
Cu567  N575    2.048   .     S
Cu567  Cu568   2.725   .     S
Cu567  O580    1.965   .     S
Cu567  O581    1.958   .     S
Cu567  O584    1.959   .     S
Cu567  O577    1.965   .     S
Cu568  N576    2.048   .     S
Cu568  O579    1.965   .     S
Cu568  O583    1.959   .     S
Cu568  O582    1.958   .     S
Cu568  O578    1.965   .     S
H569   C455    1.087   1_655 S
C585   H588    1.082   .     S
C585   H587    1.109   .     S
C585   H586    1.109   .     S
C589   H592    1.082   .     S
C589   H591    1.109   .     S
C589   H590    1.109   .     S
C593   H594    1.082   .     S
C593   H596    1.109   .     S
C593   H595    1.109   .     S
C597   H598    1.082   .     S
C597   H599    1.109   .     S
C597   H600    1.109   .     S
C601   O629    1.306   .     A
C601   C612    1.453   .     S
C601   O627    1.306   .     A
C602   O630    1.306   .     A
C602   C611    1.453   .     S
C602   O628    1.306   .     A
C603   O631    1.301   .     A
C603   O633    1.304   .     A
C603   C605    1.437   .     S
C604   O632    1.301   .     A
C604   O634    1.304   .     A
C604   C606    1.437   .     S
C605   C706    1.337   1_455 S
C605   H719    1.087   1_455 S
C606   C655    1.337   .     S
C606   H670    1.087   .     S
C607   H621    1.083   .     S
C607   C612    1.402   .     A
C608   H622    1.083   .     S
C608   C611    1.402   .     A
C608   C760    1.384   .     S
C609   C611    1.402   .     A
C609   H623    1.083   .     S
C609   C757    1.384   .     S
C610   C612    1.402   .     A
C610   H624    1.083   .     S
C613   C635    1.520   .     S
C613   N626    1.383   .     A
C614   N625    1.383   .     A
C614   C639    1.520   .     S
C614   C1066   1.436   .     S
C615   C643    1.520   .     S
C615   N625    1.383   .     A
C615   C1063   1.436   .     S
C616   C647    1.520   .     S
C616   N626    1.383   .     A
Cu617  N625    2.048   .     S
Cu617  Cu618   2.725   .     S
Cu617  O630    1.965   .     S
Cu617  O631    1.958   .     S
Cu617  O634    1.959   .     S
Cu617  O627    1.965   .     S
Cu618  N626    2.048   .     S
Cu618  O629    1.965   .     S
Cu618  O633    1.959   .     S
Cu618  O632    1.958   .     S
Cu618  O628    1.965   .     S
H619   C655    1.087   .     S
H620   C706    1.087   1_455 S
C635   H638    1.082   .     S
C635   H637    1.109   .     S
C635   H636    1.109   .     S
C639   H642    1.082   .     S
C639   H641    1.109   .     S
C639   H640    1.109   .     S
C643   H644    1.082   .     S
C643   H646    1.109   .     S
C643   H645    1.109   .     S
C647   H648    1.082   .     S
C647   H649    1.109   .     S
C647   H650    1.109   .     S
C651   O679    1.306   .     A
C651   C662    1.453   .     S
C651   O677    1.306   .     A
C652   O680    1.306   .     A
C652   C661    1.453   .     S
C652   O678    1.306   .     A
C653   O681    1.301   .     A
C653   O683    1.304   .     A
C653   C655    1.437   .     S
C654   O682    1.301   .     A
C654   O684    1.304   .     A
C654   C656    1.437   .     S
C656   C705    1.337   .     S
C656   H720    1.087   .     S
C657   H671    1.083   .     S
C657   C662    1.402   .     A
C658   H672    1.083   .     S
C658   C661    1.402   .     A
C658   C810    1.384   .     S
C659   C661    1.402   .     A
C659   H673    1.083   .     S
C659   C807    1.384   .     S
C660   C662    1.402   .     A
C660   H674    1.083   .     S
C663   C685    1.520   .     S
C663   N676    1.383   .     A
C664   N675    1.383   .     A
C664   C689    1.520   .     S
C664   C1116   1.436   .     S
C665   C693    1.520   .     S
C665   N675    1.383   .     A
C665   C1113   1.436   .     S
C666   C697    1.520   .     S
C666   N676    1.383   .     A
Cu667  N675    2.048   .     S
Cu667  Cu668   2.725   .     S
Cu667  O680    1.965   .     S
Cu667  O681    1.958   .     S
Cu667  O684    1.959   .     S
Cu667  O677    1.965   .     S
Cu668  N676    2.048   .     S
Cu668  O679    1.965   .     S
Cu668  O683    1.959   .     S
Cu668  O682    1.958   .     S
Cu668  O678    1.965   .     S
H669   C705    1.087   .     S
C685   H688    1.082   .     S
C685   H687    1.109   .     S
C685   H686    1.109   .     S
C689   H692    1.082   .     S
C689   H691    1.109   .     S
C689   H690    1.109   .     S
C693   H694    1.082   .     S
C693   H696    1.109   .     S
C693   H695    1.109   .     S
C697   H698    1.082   .     S
C697   H699    1.109   .     S
C697   H700    1.109   .     S
C701   O729    1.306   .     A
C701   C712    1.453   .     S
C701   O727    1.306   .     A
C702   O730    1.306   .     A
C702   C711    1.453   .     S
C702   O728    1.306   .     A
C703   O731    1.301   .     A
C703   O733    1.304   .     A
C703   C705    1.437   .     S
C704   O732    1.301   .     A
C704   O734    1.304   .     A
C704   C706    1.437   .     S
C706   C605    1.337   1_655 S
C706   H620    1.087   1_655 S
C707   H721    1.083   .     S
C707   C712    1.402   .     A
C708   H722    1.083   .     S
C708   C711    1.402   .     A
C708   C860    1.384   .     S
C709   C711    1.402   .     A
C709   H723    1.083   .     S
C709   C857    1.384   .     S
C710   C712    1.402   .     A
C710   H724    1.083   .     S
C713   C735    1.520   .     S
C713   N726    1.383   .     A
C714   N725    1.383   .     A
C714   C739    1.520   .     S
C714   C1166   1.436   .     S
C715   C743    1.520   .     S
C715   N725    1.383   .     A
C715   C1163   1.436   .     S
C716   C747    1.520   .     S
C716   N726    1.383   .     A
Cu717  N725    2.048   .     S
Cu717  Cu718   2.725   .     S
Cu717  O730    1.965   .     S
Cu717  O731    1.958   .     S
Cu717  O734    1.959   .     S
Cu717  O727    1.965   .     S
Cu718  N726    2.048   .     S
Cu718  O729    1.965   .     S
Cu718  O733    1.959   .     S
Cu718  O732    1.958   .     S
Cu718  O728    1.965   .     S
H719   C605    1.087   1_655 S
C735   H738    1.082   .     S
C735   H737    1.109   .     S
C735   H736    1.109   .     S
C739   H742    1.082   .     S
C739   H741    1.109   .     S
C739   H740    1.109   .     S
C743   H744    1.082   .     S
C743   H746    1.109   .     S
C743   H745    1.109   .     S
C747   H748    1.082   .     S
C747   H749    1.109   .     S
C747   H750    1.109   .     S
C751   O779    1.306   .     A
C751   C762    1.453   .     S
C751   O777    1.306   .     A
C752   O780    1.306   .     A
C752   C761    1.453   .     S
C752   O778    1.306   .     A
C753   O781    1.301   .     A
C753   O783    1.304   .     A
C753   C755    1.437   .     S
C754   O782    1.301   .     A
C754   O784    1.304   .     A
C754   C756    1.437   .     S
C755   C856    1.337   1_455 S
C755   H869    1.087   1_455 S
C756   C805    1.337   .     S
C756   H820    1.087   .     S
C757   H771    1.083   .     S
C757   C762    1.402   .     A
C758   H772    1.083   .     S
C758   C761    1.402   .     A
C758   C460    1.384   1_565 S
C759   C761    1.402   .     A
C759   H773    1.083   .     S
C759   C457    1.384   1_565 S
C760   C762    1.402   .     A
C760   H774    1.083   .     S
C763   C785    1.520   .     S
C763   N776    1.383   .     A
C764   N775    1.383   .     A
C764   C789    1.520   .     S
C764   C1216   1.436   .     S
C765   C793    1.520   .     S
C765   N775    1.383   .     A
C765   C1213   1.436   .     S
C766   C797    1.520   .     S
C766   N776    1.383   .     A
Cu767  N775    2.048   .     S
Cu767  Cu768   2.725   .     S
Cu767  O780    1.965   .     S
Cu767  O781    1.958   .     S
Cu767  O784    1.959   .     S
Cu767  O777    1.965   .     S
Cu768  N776    2.048   .     S
Cu768  O779    1.965   .     S
Cu768  O783    1.959   .     S
Cu768  O782    1.958   .     S
Cu768  O778    1.965   .     S
H769   C805    1.087   .     S
H770   C856    1.087   1_455 S
C785   H788    1.082   .     S
C785   H787    1.109   .     S
C785   H786    1.109   .     S
C789   H792    1.082   .     S
C789   H791    1.109   .     S
C789   H790    1.109   .     S
C793   H794    1.082   .     S
C793   H796    1.109   .     S
C793   H795    1.109   .     S
C797   H798    1.082   .     S
C797   H799    1.109   .     S
C797   H800    1.109   .     S
C801   O829    1.306   .     A
C801   C812    1.453   .     S
C801   O827    1.306   .     A
C802   O830    1.306   .     A
C802   C811    1.453   .     S
C802   O828    1.306   .     A
C803   O831    1.301   .     A
C803   O833    1.304   .     A
C803   C805    1.437   .     S
C804   O832    1.301   .     A
C804   O834    1.304   .     A
C804   C806    1.437   .     S
C806   C855    1.337   .     S
C806   H870    1.087   .     S
C807   H821    1.083   .     S
C807   C812    1.402   .     A
C808   H822    1.083   .     S
C808   C811    1.402   .     A
C808   C510    1.384   1_565 S
C809   C811    1.402   .     A
C809   H823    1.083   .     S
C809   C507    1.384   1_565 S
C810   C812    1.402   .     A
C810   H824    1.083   .     S
C813   C835    1.520   .     S
C813   N826    1.383   .     A
C814   N825    1.383   .     A
C814   C839    1.520   .     S
C814   C1266   1.436   .     S
C815   C843    1.520   .     S
C815   N825    1.383   .     A
C815   C1263   1.436   .     S
C816   C847    1.520   .     S
C816   N826    1.383   .     A
Cu817  N825    2.048   .     S
Cu817  Cu818   2.725   .     S
Cu817  O830    1.965   .     S
Cu817  O831    1.958   .     S
Cu817  O834    1.959   .     S
Cu817  O827    1.965   .     S
Cu818  N826    2.048   .     S
Cu818  O829    1.965   .     S
Cu818  O833    1.959   .     S
Cu818  O832    1.958   .     S
Cu818  O828    1.965   .     S
H819   C855    1.087   .     S
C835   H838    1.082   .     S
C835   H837    1.109   .     S
C835   H836    1.109   .     S
C839   H842    1.082   .     S
C839   H841    1.109   .     S
C839   H840    1.109   .     S
C843   H844    1.082   .     S
C843   H846    1.109   .     S
C843   H845    1.109   .     S
C847   H848    1.082   .     S
C847   H849    1.109   .     S
C847   H850    1.109   .     S
C851   O879    1.306   .     A
C851   C862    1.453   .     S
C851   O877    1.306   .     A
C852   O880    1.306   .     A
C852   C861    1.453   .     S
C852   O878    1.306   .     A
C853   O881    1.301   .     A
C853   O883    1.304   .     A
C853   C855    1.437   .     S
C854   O882    1.301   .     A
C854   O884    1.304   .     A
C854   C856    1.437   .     S
C856   C755    1.337   1_655 S
C856   H770    1.087   1_655 S
C857   H871    1.083   .     S
C857   C862    1.402   .     A
C858   H872    1.083   .     S
C858   C861    1.402   .     A
C858   C560    1.384   1_565 S
C859   C861    1.402   .     A
C859   H873    1.083   .     S
C859   C557    1.384   1_565 S
C860   C862    1.402   .     A
C860   H874    1.083   .     S
C863   C885    1.520   .     S
C863   N876    1.383   .     A
C864   N875    1.383   .     A
C864   C889    1.520   .     S
C864   C1316   1.436   .     S
C865   C893    1.520   .     S
C865   N875    1.383   .     A
C865   C1313   1.436   .     S
C866   C897    1.520   .     S
C866   N876    1.383   .     A
Cu867  N875    2.048   .     S
Cu867  Cu868   2.725   .     S
Cu867  O880    1.965   .     S
Cu867  O881    1.958   .     S
Cu867  O884    1.959   .     S
Cu867  O877    1.965   .     S
Cu868  N876    2.048   .     S
Cu868  O879    1.965   .     S
Cu868  O883    1.959   .     S
Cu868  O882    1.958   .     S
Cu868  O878    1.965   .     S
H869   C755    1.087   1_655 S
C885   H888    1.082   .     S
C885   H887    1.109   .     S
C885   H886    1.109   .     S
C889   H892    1.082   .     S
C889   H891    1.109   .     S
C889   H890    1.109   .     S
C893   H894    1.082   .     S
C893   H896    1.109   .     S
C893   H895    1.109   .     S
C897   H898    1.082   .     S
C897   H899    1.109   .     S
C897   H900    1.109   .     S
C901   O929    1.306   .     A
C901   C912    1.453   .     S
C901   O927    1.306   .     A
C902   O930    1.306   .     A
C902   C911    1.453   .     S
C902   O928    1.306   .     A
C903   O931    1.301   .     A
C903   O933    1.304   .     A
C903   C905    1.437   .     S
C904   O932    1.301   .     A
C904   O934    1.304   .     A
C904   C906    1.437   .     S
C905   C1006   1.337   1_455 S
C905   H1019   1.087   1_455 S
C906   C955    1.337   .     S
C906   H970    1.087   .     S
C907   H921    1.083   .     S
C907   C912    1.402   .     A
C907   C1209   1.384   1_545 S
C908   H922    1.083   .     S
C908   C911    1.402   .     A
C908   C1060   1.384   .     S
C909   C911    1.402   .     A
C909   H923    1.083   .     S
C909   C1057   1.384   .     S
C910   C912    1.402   .     A
C910   H924    1.083   .     S
C910   C1208   1.384   1_545 S
C913   C935    1.520   .     S
C913   N926    1.383   .     A
C914   N925    1.383   .     A
C914   C939    1.520   .     S
C914   C16     1.436   1_556 S
C915   C943    1.520   .     S
C915   N925    1.383   .     A
C915   C13     1.436   1_556 S
C916   C947    1.520   .     S
C916   N926    1.383   .     A
Cu917  N925    2.048   .     S
Cu917  Cu918   2.725   .     S
Cu917  O930    1.965   .     S
Cu917  O931    1.958   .     S
Cu917  O934    1.959   .     S
Cu917  O927    1.965   .     S
Cu918  N926    2.048   .     S
Cu918  O929    1.965   .     S
Cu918  O933    1.959   .     S
Cu918  O932    1.958   .     S
Cu918  O928    1.965   .     S
H919   C955    1.087   .     S
H920   C1006   1.087   1_455 S
C935   H938    1.082   .     S
C935   H937    1.109   .     S
C935   H936    1.109   .     S
C939   H942    1.082   .     S
C939   H941    1.109   .     S
C939   H940    1.109   .     S
C943   H944    1.082   .     S
C943   H946    1.109   .     S
C943   H945    1.109   .     S
C947   H948    1.082   .     S
C947   H949    1.109   .     S
C947   H950    1.109   .     S
C951   O979    1.306   .     A
C951   C962    1.453   .     S
C951   O977    1.306   .     A
C952   O980    1.306   .     A
C952   C961    1.453   .     S
C952   O978    1.306   .     A
C953   O981    1.301   .     A
C953   O983    1.304   .     A
C953   C955    1.437   .     S
C954   O982    1.301   .     A
C954   O984    1.304   .     A
C954   C956    1.437   .     S
C956   C1005   1.337   .     S
C956   H1020   1.087   .     S
C957   H971    1.083   .     S
C957   C962    1.402   .     A
C957   C1259   1.384   1_545 S
C958   H972    1.083   .     S
C958   C961    1.402   .     A
C958   C1110   1.384   .     S
C959   C961    1.402   .     A
C959   H973    1.083   .     S
C959   C1107   1.384   .     S
C960   C962    1.402   .     A
C960   H974    1.083   .     S
C960   C1258   1.384   1_545 S
C963   C985    1.520   .     S
C963   N976    1.383   .     A
C964   N975    1.383   .     A
C964   C989    1.520   .     S
C964   C66     1.436   1_556 S
C965   C993    1.520   .     S
C965   N975    1.383   .     A
C965   C63     1.436   1_556 S
C966   C997    1.520   .     S
C966   N976    1.383   .     A
Cu967  N975    2.048   .     S
Cu967  Cu968   2.725   .     S
Cu967  O980    1.965   .     S
Cu967  O981    1.958   .     S
Cu967  O984    1.959   .     S
Cu967  O977    1.965   .     S
Cu968  N976    2.048   .     S
Cu968  O979    1.965   .     S
Cu968  O983    1.959   .     S
Cu968  O982    1.958   .     S
Cu968  O978    1.965   .     S
H969   C1005   1.087   .     S
C985   H988    1.082   .     S
C985   H987    1.109   .     S
C985   H986    1.109   .     S
C989   H992    1.082   .     S
C989   H991    1.109   .     S
C989   H990    1.109   .     S
C993   H994    1.082   .     S
C993   H996    1.109   .     S
C993   H995    1.109   .     S
C997   H998    1.082   .     S
C997   H999    1.109   .     S
C997   H1000   1.109   .     S
C1001  O1029   1.306   .     A
C1001  C1012   1.453   .     S
C1001  O1027   1.306   .     A
C1002  O1030   1.306   .     A
C1002  C1011   1.453   .     S
C1002  O1028   1.306   .     A
C1003  O1031   1.301   .     A
C1003  O1033   1.304   .     A
C1003  C1005   1.437   .     S
C1004  O1032   1.301   .     A
C1004  O1034   1.304   .     A
C1004  C1006   1.437   .     S
C1006  C905    1.337   1_655 S
C1006  H920    1.087   1_655 S
C1007  H1021   1.083   .     S
C1007  C1012   1.402   .     A
C1007  C1309   1.384   1_545 S
C1008  H1022   1.083   .     S
C1008  C1011   1.402   .     A
C1008  C1160   1.384   .     S
C1009  C1011   1.402   .     A
C1009  H1023   1.083   .     S
C1009  C1157   1.384   .     S
C1010  C1012   1.402   .     A
C1010  H1024   1.083   .     S
C1010  C1308   1.384   1_545 S
C1013  C1035   1.520   .     S
C1013  N1026   1.383   .     A
C1014  N1025   1.383   .     A
C1014  C1039   1.520   .     S
C1014  C116    1.436   1_556 S
C1015  C1043   1.520   .     S
C1015  N1025   1.383   .     A
C1015  C113    1.436   1_556 S
C1016  C1047   1.520   .     S
C1016  N1026   1.383   .     A
Cu1017 N1025   2.048   .     S
Cu1017 Cu1018  2.725   .     S
Cu1017 O1030   1.965   .     S
Cu1017 O1031   1.958   .     S
Cu1017 O1034   1.959   .     S
Cu1017 O1027   1.965   .     S
Cu1018 N1026   2.048   .     S
Cu1018 O1029   1.965   .     S
Cu1018 O1033   1.959   .     S
Cu1018 O1032   1.958   .     S
Cu1018 O1028   1.965   .     S
H1019  C905    1.087   1_655 S
C1035  H1038   1.082   .     S
C1035  H1037   1.109   .     S
C1035  H1036   1.109   .     S
C1039  H1042   1.082   .     S
C1039  H1041   1.109   .     S
C1039  H1040   1.109   .     S
C1043  H1044   1.082   .     S
C1043  H1046   1.109   .     S
C1043  H1045   1.109   .     S
C1047  H1048   1.082   .     S
C1047  H1049   1.109   .     S
C1047  H1050   1.109   .     S
C1051  O1079   1.306   .     A
C1051  C1062   1.453   .     S
C1051  O1077   1.306   .     A
C1052  O1080   1.306   .     A
C1052  C1061   1.453   .     S
C1052  O1078   1.306   .     A
C1053  O1081   1.301   .     A
C1053  O1083   1.304   .     A
C1053  C1055   1.437   .     S
C1054  O1082   1.301   .     A
C1054  O1084   1.304   .     A
C1054  C1056   1.437   .     S
C1055  C1156   1.337   1_455 S
C1055  H1169   1.087   1_455 S
C1056  C1105   1.337   .     S
C1056  H1120   1.087   .     S
C1057  H1071   1.083   .     S
C1057  C1062   1.402   .     A
C1058  H1072   1.083   .     S
C1058  C1061   1.402   .     A
C1058  C1210   1.384   .     S
C1059  C1061   1.402   .     A
C1059  H1073   1.083   .     S
C1059  C1207   1.384   .     S
C1060  C1062   1.402   .     A
C1060  H1074   1.083   .     S
C1063  C1085   1.520   .     S
C1063  N1076   1.383   .     A
C1064  N1075   1.383   .     A
C1064  C1089   1.520   .     S
C1064  C166    1.436   1_556 S
C1065  C1093   1.520   .     S
C1065  N1075   1.383   .     A
C1065  C163    1.436   1_556 S
C1066  C1097   1.520   .     S
C1066  N1076   1.383   .     A
Cu1067 N1075   2.048   .     S
Cu1067 Cu1068  2.725   .     S
Cu1067 O1080   1.965   .     S
Cu1067 O1081   1.958   .     S
Cu1067 O1084   1.959   .     S
Cu1067 O1077   1.965   .     S
Cu1068 N1076   2.048   .     S
Cu1068 O1079   1.965   .     S
Cu1068 O1083   1.959   .     S
Cu1068 O1082   1.958   .     S
Cu1068 O1078   1.965   .     S
H1069  C1105   1.087   .     S
H1070  C1156   1.087   1_455 S
C1085  H1088   1.082   .     S
C1085  H1087   1.109   .     S
C1085  H1086   1.109   .     S
C1089  H1092   1.082   .     S
C1089  H1091   1.109   .     S
C1089  H1090   1.109   .     S
C1093  H1094   1.082   .     S
C1093  H1096   1.109   .     S
C1093  H1095   1.109   .     S
C1097  H1098   1.082   .     S
C1097  H1099   1.109   .     S
C1097  H1100   1.109   .     S
C1101  O1129   1.306   .     A
C1101  C1112   1.453   .     S
C1101  O1127   1.306   .     A
C1102  O1130   1.306   .     A
C1102  C1111   1.453   .     S
C1102  O1128   1.306   .     A
C1103  O1131   1.301   .     A
C1103  O1133   1.304   .     A
C1103  C1105   1.437   .     S
C1104  O1132   1.301   .     A
C1104  O1134   1.304   .     A
C1104  C1106   1.437   .     S
C1106  C1155   1.337   .     S
C1106  H1170   1.087   .     S
C1107  H1121   1.083   .     S
C1107  C1112   1.402   .     A
C1108  H1122   1.083   .     S
C1108  C1111   1.402   .     A
C1108  C1260   1.384   .     S
C1109  C1111   1.402   .     A
C1109  H1123   1.083   .     S
C1109  C1257   1.384   .     S
C1110  C1112   1.402   .     A
C1110  H1124   1.083   .     S
C1113  C1135   1.520   .     S
C1113  N1126   1.383   .     A
C1114  N1125   1.383   .     A
C1114  C1139   1.520   .     S
C1114  C216    1.436   1_556 S
C1115  C1143   1.520   .     S
C1115  N1125   1.383   .     A
C1115  C213    1.436   1_556 S
C1116  C1147   1.520   .     S
C1116  N1126   1.383   .     A
Cu1117 N1125   2.048   .     S
Cu1117 Cu1118  2.725   .     S
Cu1117 O1130   1.965   .     S
Cu1117 O1131   1.958   .     S
Cu1117 O1134   1.959   .     S
Cu1117 O1127   1.965   .     S
Cu1118 N1126   2.048   .     S
Cu1118 O1129   1.965   .     S
Cu1118 O1133   1.959   .     S
Cu1118 O1132   1.958   .     S
Cu1118 O1128   1.965   .     S
H1119  C1155   1.087   .     S
C1135  H1138   1.082   .     S
C1135  H1137   1.109   .     S
C1135  H1136   1.109   .     S
C1139  H1142   1.082   .     S
C1139  H1141   1.109   .     S
C1139  H1140   1.109   .     S
C1143  H1144   1.082   .     S
C1143  H1146   1.109   .     S
C1143  H1145   1.109   .     S
C1147  H1148   1.082   .     S
C1147  H1149   1.109   .     S
C1147  H1150   1.109   .     S
C1151  O1179   1.306   .     A
C1151  C1162   1.453   .     S
C1151  O1177   1.306   .     A
C1152  O1180   1.306   .     A
C1152  C1161   1.453   .     S
C1152  O1178   1.306   .     A
C1153  O1181   1.301   .     A
C1153  O1183   1.304   .     A
C1153  C1155   1.437   .     S
C1154  O1182   1.301   .     A
C1154  O1184   1.304   .     A
C1154  C1156   1.437   .     S
C1156  C1055   1.337   1_655 S
C1156  H1070   1.087   1_655 S
C1157  H1171   1.083   .     S
C1157  C1162   1.402   .     A
C1158  H1172   1.083   .     S
C1158  C1161   1.402   .     A
C1158  C1310   1.384   .     S
C1159  C1161   1.402   .     A
C1159  H1173   1.083   .     S
C1159  C1307   1.384   .     S
C1160  C1162   1.402   .     A
C1160  H1174   1.083   .     S
C1163  C1185   1.520   .     S
C1163  N1176   1.383   .     A
C1164  N1175   1.383   .     A
C1164  C1189   1.520   .     S
C1164  C266    1.436   1_556 S
C1165  C1193   1.520   .     S
C1165  N1175   1.383   .     A
C1165  C263    1.436   1_556 S
C1166  C1197   1.520   .     S
C1166  N1176   1.383   .     A
Cu1167 N1175   2.048   .     S
Cu1167 Cu1168  2.725   .     S
Cu1167 O1180   1.965   .     S
Cu1167 O1181   1.958   .     S
Cu1167 O1184   1.959   .     S
Cu1167 O1177   1.965   .     S
Cu1168 N1176   2.048   .     S
Cu1168 O1179   1.965   .     S
Cu1168 O1183   1.959   .     S
Cu1168 O1182   1.958   .     S
Cu1168 O1178   1.965   .     S
H1169  C1055   1.087   1_655 S
C1185  H1188   1.082   .     S
C1185  H1187   1.109   .     S
C1185  H1186   1.109   .     S
C1189  H1192   1.082   .     S
C1189  H1191   1.109   .     S
C1189  H1190   1.109   .     S
C1193  H1194   1.082   .     S
C1193  H1196   1.109   .     S
C1193  H1195   1.109   .     S
C1197  H1198   1.082   .     S
C1197  H1199   1.109   .     S
C1197  H1200   1.109   .     S
C1201  O1229   1.306   .     A
C1201  C1212   1.453   .     S
C1201  O1227   1.306   .     A
C1202  O1230   1.306   .     A
C1202  C1211   1.453   .     S
C1202  O1228   1.306   .     A
C1203  O1231   1.301   .     A
C1203  O1233   1.304   .     A
C1203  C1205   1.437   .     S
C1204  O1232   1.301   .     A
C1204  O1234   1.304   .     A
C1204  C1206   1.437   .     S
C1205  C1306   1.337   1_455 S
C1205  H1319   1.087   1_455 S
C1206  C1255   1.337   .     S
C1206  H1270   1.087   .     S
C1207  H1221   1.083   .     S
C1207  C1212   1.402   .     A
C1208  H1222   1.083   .     S
C1208  C1211   1.402   .     A
C1208  C910    1.384   1_565 S
C1209  C1211   1.402   .     A
C1209  H1223   1.083   .     S
C1209  C907    1.384   1_565 S
C1210  C1212   1.402   .     A
C1210  H1224   1.083   .     S
C1213  C1235   1.520   .     S
C1213  N1226   1.383   .     A
C1214  N1225   1.383   .     A
C1214  C1239   1.520   .     S
C1214  C316    1.436   1_556 S
C1215  C1243   1.520   .     S
C1215  N1225   1.383   .     A
C1215  C313    1.436   1_556 S
C1216  C1247   1.520   .     S
C1216  N1226   1.383   .     A
Cu1217 N1225   2.048   .     S
Cu1217 Cu1218  2.725   .     S
Cu1217 O1230   1.965   .     S
Cu1217 O1231   1.958   .     S
Cu1217 O1234   1.959   .     S
Cu1217 O1227   1.965   .     S
Cu1218 N1226   2.048   .     S
Cu1218 O1229   1.965   .     S
Cu1218 O1233   1.959   .     S
Cu1218 O1232   1.958   .     S
Cu1218 O1228   1.965   .     S
H1219  C1255   1.087   .     S
H1220  C1306   1.087   1_455 S
C1235  H1238   1.082   .     S
C1235  H1237   1.109   .     S
C1235  H1236   1.109   .     S
C1239  H1242   1.082   .     S
C1239  H1241   1.109   .     S
C1239  H1240   1.109   .     S
C1243  H1244   1.082   .     S
C1243  H1246   1.109   .     S
C1243  H1245   1.109   .     S
C1247  H1248   1.082   .     S
C1247  H1249   1.109   .     S
C1247  H1250   1.109   .     S
C1251  O1279   1.306   .     A
C1251  C1262   1.453   .     S
C1251  O1277   1.306   .     A
C1252  O1280   1.306   .     A
C1252  C1261   1.453   .     S
C1252  O1278   1.306   .     A
C1253  O1281   1.301   .     A
C1253  O1283   1.304   .     A
C1253  C1255   1.437   .     S
C1254  O1282   1.301   .     A
C1254  O1284   1.304   .     A
C1254  C1256   1.437   .     S
C1256  C1305   1.337   .     S
C1256  H1320   1.087   .     S
C1257  H1271   1.083   .     S
C1257  C1262   1.402   .     A
C1258  H1272   1.083   .     S
C1258  C1261   1.402   .     A
C1258  C960    1.384   1_565 S
C1259  C1261   1.402   .     A
C1259  H1273   1.083   .     S
C1259  C957    1.384   1_565 S
C1260  C1262   1.402   .     A
C1260  H1274   1.083   .     S
C1263  C1285   1.520   .     S
C1263  N1276   1.383   .     A
C1264  N1275   1.383   .     A
C1264  C1289   1.520   .     S
C1264  C366    1.436   1_556 S
C1265  C1293   1.520   .     S
C1265  N1275   1.383   .     A
C1265  C363    1.436   1_556 S
C1266  C1297   1.520   .     S
C1266  N1276   1.383   .     A
Cu1267 N1275   2.048   .     S
Cu1267 Cu1268  2.725   .     S
Cu1267 O1280   1.965   .     S
Cu1267 O1281   1.958   .     S
Cu1267 O1284   1.959   .     S
Cu1267 O1277   1.965   .     S
Cu1268 N1276   2.048   .     S
Cu1268 O1279   1.965   .     S
Cu1268 O1283   1.959   .     S
Cu1268 O1282   1.958   .     S
Cu1268 O1278   1.965   .     S
H1269  C1305   1.087   .     S
C1285  H1288   1.082   .     S
C1285  H1287   1.109   .     S
C1285  H1286   1.109   .     S
C1289  H1292   1.082   .     S
C1289  H1291   1.109   .     S
C1289  H1290   1.109   .     S
C1293  H1294   1.082   .     S
C1293  H1296   1.109   .     S
C1293  H1295   1.109   .     S
C1297  H1298   1.082   .     S
C1297  H1299   1.109   .     S
C1297  H1300   1.109   .     S
C1301  O1329   1.306   .     A
C1301  C1312   1.453   .     S
C1301  O1327   1.306   .     A
C1302  O1330   1.306   .     A
C1302  C1311   1.453   .     S
C1302  O1328   1.306   .     A
C1303  O1331   1.301   .     A
C1303  O1333   1.304   .     A
C1303  C1305   1.437   .     S
C1304  O1332   1.301   .     A
C1304  O1334   1.304   .     A
C1304  C1306   1.437   .     S
C1306  C1205   1.337   1_655 S
C1306  H1220   1.087   1_655 S
C1307  H1321   1.083   .     S
C1307  C1312   1.402   .     A
C1308  H1322   1.083   .     S
C1308  C1311   1.402   .     A
C1308  C1010   1.384   1_565 S
C1309  C1311   1.402   .     A
C1309  H1323   1.083   .     S
C1309  C1007   1.384   1_565 S
C1310  C1312   1.402   .     A
C1310  H1324   1.083   .     S
C1313  C1335   1.520   .     S
C1313  N1326   1.383   .     A
C1314  N1325   1.383   .     A
C1314  C1339   1.520   .     S
C1314  C416    1.436   1_556 S
C1315  C1343   1.520   .     S
C1315  N1325   1.383   .     A
C1315  C413    1.436   1_556 S
C1316  C1347   1.520   .     S
C1316  N1326   1.383   .     A
Cu1317 N1325   2.048   .     S
Cu1317 Cu1318  2.725   .     S
Cu1317 O1330   1.965   .     S
Cu1317 O1331   1.958   .     S
Cu1317 O1334   1.959   .     S
Cu1317 O1327   1.965   .     S
Cu1318 N1326   2.048   .     S
Cu1318 O1329   1.965   .     S
Cu1318 O1333   1.959   .     S
Cu1318 O1332   1.958   .     S
Cu1318 O1328   1.965   .     S
H1319  C1205   1.087   1_655 S
C1335  H1338   1.082   .     S
C1335  H1337   1.109   .     S
C1335  H1336   1.109   .     S
C1339  H1342   1.082   .     S
C1339  H1341   1.109   .     S
C1339  H1340   1.109   .     S
C1343  H1344   1.082   .     S
C1343  H1346   1.109   .     S
C1343  H1345   1.109   .     S
C1347  H1348   1.082   .     S
C1347  H1349   1.109   .     S
C1347  H1350   1.109   .     S
