data_str_m2_o1_o5_pcu_sym.5
_audit_creation_date              2020-01-03
_audit_creation_method            'Materials Studio'
_symmetry_space_group_name_H-M    'P1'
_symmetry_Int_Tables_number       1
_symmetry_cell_setting            triclinic
loop_
_symmetry_equiv_pos_as_xyz
  x,y,z
_cell_length_a                    32.9834
_cell_length_b                    28.4992
_cell_length_c                    27.2102
_cell_angle_alpha                 89.9824
_cell_angle_beta                  90.0952
_cell_angle_gamma                 89.4667
loop_
_atom_site_label
_atom_site_type_symbol
_atom_site_fract_x
_atom_site_fract_y
_atom_site_fract_z
_atom_site_U_iso_or_equiv
_atom_site_adp_type
_atom_site_occupancy
C1     C     0.08756   0.16758   0.16216   0.00000  Uiso   1.00
C2     C     0.02147   0.21469   0.15823   0.00000  Uiso   1.00
C3     C     0.29150   0.16921   0.16427   0.00000  Uiso   1.00
C4     C     0.04317   0.17104   0.15435   0.00000  Uiso   1.00
C5     C     0.15089   0.02499   0.12790   0.00000  Uiso   1.00
C6     C     0.18234   0.30837   0.20545   0.00000  Uiso   1.00
C7     C     0.18217   0.02464   0.20552   0.00000  Uiso   1.00
C8     C     0.15098   0.30871   0.12785   0.00000  Uiso   1.00
C9     C     0.04013   0.09161   0.11162   0.00000  Uiso   1.00
C10    C     0.01441   0.08381   0.06527   0.00000  Uiso   1.00
C11    C     0.03009   0.04176   0.03594   0.00000  Uiso   1.00
C12    C     0.24633   0.16697   0.16693   0.00000  Uiso   1.00
C13    C     0.28878   0.26125   0.15779   0.00000  Uiso   1.00
C14    C     0.27539   0.27020   0.10426   0.00000  Uiso   1.00
C15    C     0.26006   0.32010   0.09652   0.00000  Uiso   1.00
C16    C     0.29962   0.07947   0.17866   0.00000  Uiso   1.00
C17    C     0.29209   0.07996   0.23445   0.00000  Uiso   1.00
C18    C     0.28536   0.03060   0.25449   0.00000  Uiso   1.00
C19    C     0.04314   0.26244   0.16011   0.00000  Uiso   1.00
C20    C     0.05034   0.27657   0.21418   0.00000  Uiso   1.00
C21    C     0.06679   0.32605   0.21960   0.00000  Uiso   1.00
C22    C     0.16669   0.16667   0.07351   0.00000  Uiso   1.00
C23    C     0.16669   0.16666   0.25982   0.00000  Uiso   1.00
C24    C     0.16669   0.16667   0.02184   0.00000  Uiso   1.00
C25    C     0.16670   0.16666   0.31149   0.00000  Uiso   1.00
C26    C     0.02174   0.12982   0.14449   0.00000  Uiso   1.00
C27    C     0.31181   0.21392   0.16098   0.00000  Uiso   1.00
C28    C     0.31484   0.12699   0.16086   0.00000  Uiso   1.00
Cu29   Cu    0.16667   0.21355   0.16667   0.00000  Uiso   1.00
Cu30   Cu    0.16667   0.11978   0.16667   0.00000  Uiso   1.00
H31    H     0.13786   0.04370   0.09704   0.00000  Uiso   1.00
H32    H     0.07032   0.10186   0.09763   0.00000  Uiso   1.00
H33    H     0.04480   0.05845   0.13213   0.00000  Uiso   1.00
H34    H     0.23693   0.32947   0.12434   0.00000  Uiso   1.00
H35    H     0.28589   0.01098   0.09948   0.00000  Uiso   1.00
H36    H     0.24659   0.32367   0.05927   0.00000  Uiso   1.00
H37    H     0.30156   0.26427   0.07921   0.00000  Uiso   1.00
H38    H     0.25129   0.24548   0.09316   0.00000  Uiso   1.00
H39    H     0.26436   0.26534   0.18511   0.00000  Uiso   1.00
H40    H     0.30575   0.29159   0.17151   0.00000  Uiso   1.00
H41    H     0.26283   0.01167   0.23195   0.00000  Uiso   1.00
H42    H     0.19521   0.28968   0.23641   0.00000  Uiso   1.00
H43    H     0.31419   0.01037   0.25415   0.00000  Uiso   1.00
H44    H     0.27427   0.03267   0.29295   0.00000  Uiso   1.00
H45    H     0.31869   0.09522   0.25365   0.00000  Uiso   1.00
H46    H     0.26516   0.10199   0.24328   0.00000  Uiso   1.00
H47    H     0.27258   0.06798   0.15819   0.00000  Uiso   1.00
H48    H     0.32195   0.05133   0.17138   0.00000  Uiso   1.00
H49    H     0.09465   0.33022   0.19774   0.00000  Uiso   1.00
H50    H     0.04401   0.01888   0.20744   0.00000  Uiso   1.00
H51    H     0.07401   0.33294   0.25880   0.00000  Uiso   1.00
H52    H     0.02148   0.27442   0.23500   0.00000  Uiso   1.00
H53    H     0.19458   0.04313   0.23667   0.00000  Uiso   1.00
H54    H     0.07196   0.25171   0.23186   0.00000  Uiso   1.00
H55    H     0.07074   0.26404   0.13743   0.00000  Uiso   1.00
H56    H     0.02710   0.29034   0.13944   0.00000  Uiso   1.00
H57    H     0.13808   0.29031   0.09692   0.00000  Uiso   1.00
H58    H     0.06217   0.04708   0.02510   0.00000  Uiso   1.00
H59    H     0.02784   0.00918   0.05814   0.00000  Uiso   1.00
H60    H     0.01163   0.03758   0.00217   0.00000  Uiso   1.00
H61    H     0.31554   0.07802   0.07481   0.00000  Uiso   1.00
H62    H     0.01563   0.11568   0.04175   0.00000  Uiso   1.00
N63    N     0.16667   0.28402   0.16667   0.00000  Uiso   1.00
N64    N     0.16667   0.04931   0.16667   0.00000  Uiso   1.00
O65    O     0.10655   0.20625   0.16666   0.00000  Uiso   1.00
O66    O     0.22679   0.12709   0.16667   0.00000  Uiso   1.00
O67    O     0.22679   0.20625   0.16667   0.00000  Uiso   1.00
O68    O     0.10655   0.12709   0.16666   0.00000  Uiso   1.00
O69    O     0.16667   0.20625   0.09613   0.00000  Uiso   1.00
O70    O     0.16667   0.12708   0.23720   0.00000  Uiso   1.00
O71    O     0.16667   0.20625   0.23720   0.00000  Uiso   1.00
O72    O     0.16667   0.12708   0.09613   0.00000  Uiso   1.00
C73    C     0.42090   0.16758   0.16216   0.00000  Uiso   1.00
C74    C     0.35481   0.21469   0.15823   0.00000  Uiso   1.00
C75    C     0.62483   0.16921   0.16427   0.00000  Uiso   1.00
C76    C     0.37651   0.17104   0.15435   0.00000  Uiso   1.00
C77    C     0.48423   0.02499   0.12790   0.00000  Uiso   1.00
C78    C     0.51567   0.30837   0.20545   0.00000  Uiso   1.00
C79    C     0.51550   0.02464   0.20552   0.00000  Uiso   1.00
C80    C     0.48431   0.30871   0.12785   0.00000  Uiso   1.00
C81    C     0.37346   0.09161   0.11162   0.00000  Uiso   1.00
C82    C     0.34774   0.08381   0.06527   0.00000  Uiso   1.00
C83    C     0.36342   0.04176   0.03594   0.00000  Uiso   1.00
C84    C     0.57966   0.16697   0.16693   0.00000  Uiso   1.00
C85    C     0.62211   0.26125   0.15779   0.00000  Uiso   1.00
C86    C     0.60873   0.27020   0.10426   0.00000  Uiso   1.00
C87    C     0.59340   0.32010   0.09652   0.00000  Uiso   1.00
C88    C     0.63295   0.07947   0.17866   0.00000  Uiso   1.00
C89    C     0.62542   0.07996   0.23445   0.00000  Uiso   1.00
C90    C     0.61869   0.03060   0.25449   0.00000  Uiso   1.00
C91    C     0.37647   0.26244   0.16011   0.00000  Uiso   1.00
C92    C     0.38367   0.27657   0.21418   0.00000  Uiso   1.00
C93    C     0.40012   0.32605   0.21960   0.00000  Uiso   1.00
C94    C     0.50002   0.16667   0.07351   0.00000  Uiso   1.00
C95    C     0.50002   0.16666   0.25982   0.00000  Uiso   1.00
C96    C     0.50003   0.16667   0.02184   0.00000  Uiso   1.00
C97    C     0.50003   0.16666   0.31149   0.00000  Uiso   1.00
C98    C     0.35508   0.12982   0.14449   0.00000  Uiso   1.00
C99    C     0.64515   0.21392   0.16098   0.00000  Uiso   1.00
C100   C     0.64817   0.12699   0.16086   0.00000  Uiso   1.00
Cu101  Cu    0.50000   0.21355   0.16667   0.00000  Uiso   1.00
Cu102  Cu    0.50000   0.11978   0.16667   0.00000  Uiso   1.00
H103   H     0.47119   0.04370   0.09704   0.00000  Uiso   1.00
H104   H     0.40366   0.10186   0.09763   0.00000  Uiso   1.00
H105   H     0.37813   0.05845   0.13213   0.00000  Uiso   1.00
H106   H     0.57026   0.32947   0.12434   0.00000  Uiso   1.00
H107   H     0.61922   0.01098   0.09948   0.00000  Uiso   1.00
H108   H     0.57992   0.32367   0.05927   0.00000  Uiso   1.00
H109   H     0.63489   0.26427   0.07921   0.00000  Uiso   1.00
H110   H     0.58462   0.24548   0.09316   0.00000  Uiso   1.00
H111   H     0.59769   0.26534   0.18511   0.00000  Uiso   1.00
H112   H     0.63908   0.29159   0.17151   0.00000  Uiso   1.00
H113   H     0.59617   0.01167   0.23195   0.00000  Uiso   1.00
H114   H     0.52854   0.28968   0.23641   0.00000  Uiso   1.00
H115   H     0.64753   0.01037   0.25415   0.00000  Uiso   1.00
H116   H     0.60760   0.03267   0.29295   0.00000  Uiso   1.00
H117   H     0.65203   0.09522   0.25365   0.00000  Uiso   1.00
H118   H     0.59850   0.10199   0.24328   0.00000  Uiso   1.00
H119   H     0.60592   0.06798   0.15819   0.00000  Uiso   1.00
H120   H     0.65529   0.05133   0.17138   0.00000  Uiso   1.00
H121   H     0.42798   0.33022   0.19774   0.00000  Uiso   1.00
H122   H     0.37734   0.01888   0.20744   0.00000  Uiso   1.00
H123   H     0.40734   0.33294   0.25880   0.00000  Uiso   1.00
H124   H     0.35481   0.27442   0.23500   0.00000  Uiso   1.00
H125   H     0.52792   0.04313   0.23667   0.00000  Uiso   1.00
H126   H     0.40529   0.25171   0.23186   0.00000  Uiso   1.00
H127   H     0.40408   0.26404   0.13743   0.00000  Uiso   1.00
H128   H     0.36043   0.29034   0.13944   0.00000  Uiso   1.00
H129   H     0.47141   0.29031   0.09692   0.00000  Uiso   1.00
H130   H     0.39550   0.04708   0.02510   0.00000  Uiso   1.00
H131   H     0.36117   0.00918   0.05814   0.00000  Uiso   1.00
H132   H     0.34497   0.03758   0.00217   0.00000  Uiso   1.00
H133   H     0.64888   0.07802   0.07481   0.00000  Uiso   1.00
H134   H     0.34896   0.11568   0.04175   0.00000  Uiso   1.00
N135   N     0.50000   0.28402   0.16667   0.00000  Uiso   1.00
N136   N     0.50000   0.04931   0.16667   0.00000  Uiso   1.00
O137   O     0.43988   0.20625   0.16666   0.00000  Uiso   1.00
O138   O     0.56012   0.12709   0.16667   0.00000  Uiso   1.00
O139   O     0.56012   0.20625   0.16667   0.00000  Uiso   1.00
O140   O     0.43988   0.12709   0.16666   0.00000  Uiso   1.00
O141   O     0.50000   0.20625   0.09613   0.00000  Uiso   1.00
O142   O     0.50000   0.12708   0.23720   0.00000  Uiso   1.00
O143   O     0.50000   0.20625   0.23720   0.00000  Uiso   1.00
O144   O     0.50000   0.12708   0.09613   0.00000  Uiso   1.00
C145   C     0.75423   0.16758   0.16216   0.00000  Uiso   1.00
C146   C     0.68814   0.21469   0.15823   0.00000  Uiso   1.00
C147   C     0.95816   0.16921   0.16427   0.00000  Uiso   1.00
C148   C     0.70984   0.17104   0.15435   0.00000  Uiso   1.00
C149   C     0.81756   0.02499   0.12790   0.00000  Uiso   1.00
C150   C     0.84901   0.30837   0.20545   0.00000  Uiso   1.00
C151   C     0.84884   0.02464   0.20552   0.00000  Uiso   1.00
C152   C     0.81764   0.30871   0.12785   0.00000  Uiso   1.00
C153   C     0.70679   0.09161   0.11162   0.00000  Uiso   1.00
C154   C     0.68107   0.08381   0.06527   0.00000  Uiso   1.00
C155   C     0.69675   0.04176   0.03594   0.00000  Uiso   1.00
C156   C     0.91299   0.16697   0.16693   0.00000  Uiso   1.00
C157   C     0.95545   0.26125   0.15779   0.00000  Uiso   1.00
C158   C     0.94206   0.27020   0.10426   0.00000  Uiso   1.00
C159   C     0.92673   0.32010   0.09652   0.00000  Uiso   1.00
C160   C     0.96629   0.07947   0.17866   0.00000  Uiso   1.00
C161   C     0.95876   0.07996   0.23445   0.00000  Uiso   1.00
C162   C     0.95203   0.03060   0.25449   0.00000  Uiso   1.00
C163   C     0.70981   0.26244   0.16011   0.00000  Uiso   1.00
C164   C     0.71700   0.27657   0.21418   0.00000  Uiso   1.00
C165   C     0.73346   0.32605   0.21960   0.00000  Uiso   1.00
C166   C     0.83335   0.16667   0.07351   0.00000  Uiso   1.00
C167   C     0.83335   0.16666   0.25982   0.00000  Uiso   1.00
C168   C     0.83336   0.16667   0.02184   0.00000  Uiso   1.00
C169   C     0.83336   0.16666   0.31149   0.00000  Uiso   1.00
C170   C     0.68841   0.12982   0.14449   0.00000  Uiso   1.00
C171   C     0.97848   0.21392   0.16098   0.00000  Uiso   1.00
C172   C     0.98151   0.12699   0.16086   0.00000  Uiso   1.00
Cu173  Cu    0.83333   0.21355   0.16667   0.00000  Uiso   1.00
Cu174  Cu    0.83333   0.11978   0.16667   0.00000  Uiso   1.00
H175   H     0.80453   0.04370   0.09704   0.00000  Uiso   1.00
H176   H     0.73699   0.10186   0.09763   0.00000  Uiso   1.00
H177   H     0.71147   0.05845   0.13213   0.00000  Uiso   1.00
H178   H     0.90359   0.32947   0.12434   0.00000  Uiso   1.00
H179   H     0.95256   0.01098   0.09948   0.00000  Uiso   1.00
H180   H     0.91325   0.32367   0.05927   0.00000  Uiso   1.00
H181   H     0.96823   0.26427   0.07921   0.00000  Uiso   1.00
H182   H     0.91795   0.24548   0.09316   0.00000  Uiso   1.00
H183   H     0.93103   0.26534   0.18511   0.00000  Uiso   1.00
H184   H     0.97242   0.29159   0.17151   0.00000  Uiso   1.00
H185   H     0.92950   0.01167   0.23195   0.00000  Uiso   1.00
H186   H     0.86188   0.28968   0.23641   0.00000  Uiso   1.00
H187   H     0.98086   0.01037   0.25415   0.00000  Uiso   1.00
H188   H     0.94094   0.03267   0.29295   0.00000  Uiso   1.00
H189   H     0.98536   0.09522   0.25365   0.00000  Uiso   1.00
H190   H     0.93183   0.10199   0.24328   0.00000  Uiso   1.00
H191   H     0.93925   0.06798   0.15819   0.00000  Uiso   1.00
H192   H     0.98862   0.05133   0.17138   0.00000  Uiso   1.00
H193   H     0.76131   0.33022   0.19774   0.00000  Uiso   1.00
H194   H     0.71067   0.01888   0.20744   0.00000  Uiso   1.00
H195   H     0.74067   0.33294   0.25880   0.00000  Uiso   1.00
H196   H     0.68815   0.27442   0.23500   0.00000  Uiso   1.00
H197   H     0.86125   0.04313   0.23667   0.00000  Uiso   1.00
H198   H     0.73862   0.25171   0.23186   0.00000  Uiso   1.00
H199   H     0.73741   0.26404   0.13743   0.00000  Uiso   1.00
H200   H     0.69376   0.29034   0.13944   0.00000  Uiso   1.00
H201   H     0.80474   0.29031   0.09692   0.00000  Uiso   1.00
H202   H     0.72883   0.04708   0.02510   0.00000  Uiso   1.00
H203   H     0.69450   0.00918   0.05814   0.00000  Uiso   1.00
H204   H     0.67830   0.03758   0.00217   0.00000  Uiso   1.00
H205   H     0.98221   0.07802   0.07481   0.00000  Uiso   1.00
H206   H     0.68229   0.11568   0.04175   0.00000  Uiso   1.00
N207   N     0.83333   0.28402   0.16667   0.00000  Uiso   1.00
N208   N     0.83333   0.04931   0.16667   0.00000  Uiso   1.00
O209   O     0.77321   0.20625   0.16666   0.00000  Uiso   1.00
O210   O     0.89345   0.12709   0.16667   0.00000  Uiso   1.00
O211   O     0.89345   0.20625   0.16667   0.00000  Uiso   1.00
O212   O     0.77321   0.12709   0.16666   0.00000  Uiso   1.00
O213   O     0.83333   0.20625   0.09613   0.00000  Uiso   1.00
O214   O     0.83333   0.12708   0.23720   0.00000  Uiso   1.00
O215   O     0.83333   0.20625   0.23720   0.00000  Uiso   1.00
O216   O     0.83333   0.12708   0.09613   0.00000  Uiso   1.00
C217   C     0.08756   0.50091   0.16216   0.00000  Uiso   1.00
C218   C     0.02147   0.54803   0.15823   0.00000  Uiso   1.00
C219   C     0.29150   0.50254   0.16427   0.00000  Uiso   1.00
C220   C     0.04317   0.50437   0.15435   0.00000  Uiso   1.00
C221   C     0.15089   0.35832   0.12790   0.00000  Uiso   1.00
C222   C     0.18234   0.64171   0.20545   0.00000  Uiso   1.00
C223   C     0.18217   0.35797   0.20552   0.00000  Uiso   1.00
C224   C     0.15098   0.64205   0.12785   0.00000  Uiso   1.00
C225   C     0.04013   0.42494   0.11162   0.00000  Uiso   1.00
C226   C     0.01441   0.41715   0.06527   0.00000  Uiso   1.00
C227   C     0.03009   0.37509   0.03594   0.00000  Uiso   1.00
C228   C     0.24633   0.50030   0.16693   0.00000  Uiso   1.00
C229   C     0.28878   0.59458   0.15779   0.00000  Uiso   1.00
C230   C     0.27539   0.60354   0.10426   0.00000  Uiso   1.00
C231   C     0.26006   0.65343   0.09652   0.00000  Uiso   1.00
C232   C     0.29962   0.41280   0.17866   0.00000  Uiso   1.00
C233   C     0.29209   0.41330   0.23445   0.00000  Uiso   1.00
C234   C     0.28536   0.36394   0.25449   0.00000  Uiso   1.00
C235   C     0.04314   0.59577   0.16011   0.00000  Uiso   1.00
C236   C     0.05034   0.60991   0.21418   0.00000  Uiso   1.00
C237   C     0.06679   0.65938   0.21960   0.00000  Uiso   1.00
C238   C     0.16669   0.50000   0.07351   0.00000  Uiso   1.00
C239   C     0.16669   0.49999   0.25982   0.00000  Uiso   1.00
C240   C     0.16669   0.50000   0.02184   0.00000  Uiso   1.00
C241   C     0.16670   0.49999   0.31149   0.00000  Uiso   1.00
C242   C     0.02174   0.46315   0.14449   0.00000  Uiso   1.00
C243   C     0.31181   0.54725   0.16098   0.00000  Uiso   1.00
C244   C     0.31484   0.46033   0.16086   0.00000  Uiso   1.00
Cu245  Cu    0.16667   0.54689   0.16667   0.00000  Uiso   1.00
Cu246  Cu    0.16667   0.45311   0.16667   0.00000  Uiso   1.00
H247   H     0.13786   0.37704   0.09704   0.00000  Uiso   1.00
H248   H     0.07032   0.43520   0.09763   0.00000  Uiso   1.00
H249   H     0.04480   0.39178   0.13213   0.00000  Uiso   1.00
H250   H     0.23693   0.66281   0.12434   0.00000  Uiso   1.00
H251   H     0.28589   0.34432   0.09948   0.00000  Uiso   1.00
H252   H     0.24659   0.65700   0.05927   0.00000  Uiso   1.00
H253   H     0.30156   0.59761   0.07921   0.00000  Uiso   1.00
H254   H     0.25129   0.57881   0.09316   0.00000  Uiso   1.00
H255   H     0.26436   0.59868   0.18511   0.00000  Uiso   1.00
H256   H     0.30575   0.62492   0.17151   0.00000  Uiso   1.00
H257   H     0.26283   0.34500   0.23195   0.00000  Uiso   1.00
H258   H     0.19521   0.62302   0.23641   0.00000  Uiso   1.00
H259   H     0.31419   0.34370   0.25415   0.00000  Uiso   1.00
H260   H     0.27427   0.36601   0.29295   0.00000  Uiso   1.00
H261   H     0.31869   0.42855   0.25365   0.00000  Uiso   1.00
H262   H     0.26516   0.43533   0.24328   0.00000  Uiso   1.00
H263   H     0.27258   0.40132   0.15819   0.00000  Uiso   1.00
H264   H     0.32195   0.38466   0.17138   0.00000  Uiso   1.00
H265   H     0.09465   0.66355   0.19774   0.00000  Uiso   1.00
H266   H     0.04401   0.35221   0.20744   0.00000  Uiso   1.00
H267   H     0.07401   0.66628   0.25880   0.00000  Uiso   1.00
H268   H     0.02148   0.60775   0.23500   0.00000  Uiso   1.00
H269   H     0.19458   0.37646   0.23667   0.00000  Uiso   1.00
H270   H     0.07196   0.58504   0.23186   0.00000  Uiso   1.00
H271   H     0.07074   0.59737   0.13743   0.00000  Uiso   1.00
H272   H     0.02710   0.62367   0.13944   0.00000  Uiso   1.00
H273   H     0.13808   0.62364   0.09692   0.00000  Uiso   1.00
H274   H     0.06217   0.38041   0.02510   0.00000  Uiso   1.00
H275   H     0.02784   0.34251   0.05814   0.00000  Uiso   1.00
H276   H     0.01163   0.37091   0.00217   0.00000  Uiso   1.00
H277   H     0.31554   0.41135   0.07481   0.00000  Uiso   1.00
H278   H     0.01563   0.44901   0.04175   0.00000  Uiso   1.00
N279   N     0.16667   0.61736   0.16667   0.00000  Uiso   1.00
N280   N     0.16667   0.38264   0.16667   0.00000  Uiso   1.00
O281   O     0.10655   0.53958   0.16666   0.00000  Uiso   1.00
O282   O     0.22679   0.46042   0.16667   0.00000  Uiso   1.00
O283   O     0.22679   0.53958   0.16667   0.00000  Uiso   1.00
O284   O     0.10655   0.46042   0.16666   0.00000  Uiso   1.00
O285   O     0.16667   0.53959   0.09613   0.00000  Uiso   1.00
O286   O     0.16667   0.46041   0.23720   0.00000  Uiso   1.00
O287   O     0.16667   0.53959   0.23720   0.00000  Uiso   1.00
O288   O     0.16667   0.46041   0.09613   0.00000  Uiso   1.00
C289   C     0.42090   0.50091   0.16216   0.00000  Uiso   1.00
C290   C     0.35481   0.54803   0.15823   0.00000  Uiso   1.00
C291   C     0.62483   0.50254   0.16427   0.00000  Uiso   1.00
C292   C     0.37651   0.50437   0.15435   0.00000  Uiso   1.00
C293   C     0.48423   0.35832   0.12790   0.00000  Uiso   1.00
C294   C     0.51567   0.64171   0.20545   0.00000  Uiso   1.00
C295   C     0.51550   0.35797   0.20552   0.00000  Uiso   1.00
C296   C     0.48431   0.64205   0.12785   0.00000  Uiso   1.00
C297   C     0.37346   0.42494   0.11162   0.00000  Uiso   1.00
C298   C     0.34774   0.41715   0.06527   0.00000  Uiso   1.00
C299   C     0.36342   0.37509   0.03594   0.00000  Uiso   1.00
C300   C     0.57966   0.50030   0.16693   0.00000  Uiso   1.00
C301   C     0.62211   0.59458   0.15779   0.00000  Uiso   1.00
C302   C     0.60873   0.60354   0.10426   0.00000  Uiso   1.00
C303   C     0.59340   0.65343   0.09652   0.00000  Uiso   1.00
C304   C     0.63295   0.41280   0.17866   0.00000  Uiso   1.00
C305   C     0.62542   0.41330   0.23445   0.00000  Uiso   1.00
C306   C     0.61869   0.36394   0.25449   0.00000  Uiso   1.00
C307   C     0.37647   0.59577   0.16011   0.00000  Uiso   1.00
C308   C     0.38367   0.60991   0.21418   0.00000  Uiso   1.00
C309   C     0.40012   0.65938   0.21960   0.00000  Uiso   1.00
C310   C     0.50002   0.50000   0.07351   0.00000  Uiso   1.00
C311   C     0.50002   0.49999   0.25982   0.00000  Uiso   1.00
C312   C     0.50003   0.50000   0.02184   0.00000  Uiso   1.00
C313   C     0.50003   0.49999   0.31149   0.00000  Uiso   1.00
C314   C     0.35508   0.46315   0.14449   0.00000  Uiso   1.00
C315   C     0.64515   0.54725   0.16098   0.00000  Uiso   1.00
C316   C     0.64817   0.46033   0.16086   0.00000  Uiso   1.00
Cu317  Cu    0.50000   0.54689   0.16667   0.00000  Uiso   1.00
Cu318  Cu    0.50000   0.45311   0.16667   0.00000  Uiso   1.00
H319   H     0.47119   0.37704   0.09704   0.00000  Uiso   1.00
H320   H     0.40366   0.43520   0.09763   0.00000  Uiso   1.00
H321   H     0.37813   0.39178   0.13213   0.00000  Uiso   1.00
H322   H     0.57026   0.66281   0.12434   0.00000  Uiso   1.00
H323   H     0.61922   0.34432   0.09948   0.00000  Uiso   1.00
H324   H     0.57992   0.65700   0.05927   0.00000  Uiso   1.00
H325   H     0.63489   0.59761   0.07921   0.00000  Uiso   1.00
H326   H     0.58462   0.57881   0.09316   0.00000  Uiso   1.00
H327   H     0.59769   0.59868   0.18511   0.00000  Uiso   1.00
H328   H     0.63908   0.62492   0.17151   0.00000  Uiso   1.00
H329   H     0.59617   0.34500   0.23195   0.00000  Uiso   1.00
H330   H     0.52854   0.62302   0.23641   0.00000  Uiso   1.00
H331   H     0.64753   0.34370   0.25415   0.00000  Uiso   1.00
H332   H     0.60760   0.36601   0.29295   0.00000  Uiso   1.00
H333   H     0.65203   0.42855   0.25365   0.00000  Uiso   1.00
H334   H     0.59850   0.43533   0.24328   0.00000  Uiso   1.00
H335   H     0.60592   0.40132   0.15819   0.00000  Uiso   1.00
H336   H     0.65529   0.38466   0.17138   0.00000  Uiso   1.00
H337   H     0.42798   0.66355   0.19774   0.00000  Uiso   1.00
H338   H     0.37734   0.35221   0.20744   0.00000  Uiso   1.00
H339   H     0.40734   0.66628   0.25880   0.00000  Uiso   1.00
H340   H     0.35481   0.60775   0.23500   0.00000  Uiso   1.00
H341   H     0.52792   0.37646   0.23667   0.00000  Uiso   1.00
H342   H     0.40529   0.58504   0.23186   0.00000  Uiso   1.00
H343   H     0.40408   0.59737   0.13743   0.00000  Uiso   1.00
H344   H     0.36043   0.62367   0.13944   0.00000  Uiso   1.00
H345   H     0.47141   0.62364   0.09692   0.00000  Uiso   1.00
H346   H     0.39550   0.38041   0.02510   0.00000  Uiso   1.00
H347   H     0.36117   0.34251   0.05814   0.00000  Uiso   1.00
H348   H     0.34497   0.37091   0.00217   0.00000  Uiso   1.00
H349   H     0.64888   0.41135   0.07481   0.00000  Uiso   1.00
H350   H     0.34896   0.44901   0.04175   0.00000  Uiso   1.00
N351   N     0.50000   0.61736   0.16667   0.00000  Uiso   1.00
N352   N     0.50000   0.38264   0.16667   0.00000  Uiso   1.00
O353   O     0.43988   0.53958   0.16666   0.00000  Uiso   1.00
O354   O     0.56012   0.46042   0.16667   0.00000  Uiso   1.00
O355   O     0.56012   0.53958   0.16667   0.00000  Uiso   1.00
O356   O     0.43988   0.46042   0.16666   0.00000  Uiso   1.00
O357   O     0.50000   0.53959   0.09613   0.00000  Uiso   1.00
O358   O     0.50000   0.46041   0.23720   0.00000  Uiso   1.00
O359   O     0.50000   0.53959   0.23720   0.00000  Uiso   1.00
O360   O     0.50000   0.46041   0.09613   0.00000  Uiso   1.00
C361   C     0.75423   0.50091   0.16216   0.00000  Uiso   1.00
C362   C     0.68814   0.54803   0.15823   0.00000  Uiso   1.00
C363   C     0.95816   0.50254   0.16427   0.00000  Uiso   1.00
C364   C     0.70984   0.50437   0.15435   0.00000  Uiso   1.00
C365   C     0.81756   0.35832   0.12790   0.00000  Uiso   1.00
C366   C     0.84901   0.64171   0.20545   0.00000  Uiso   1.00
C367   C     0.84884   0.35797   0.20552   0.00000  Uiso   1.00
C368   C     0.81764   0.64205   0.12785   0.00000  Uiso   1.00
C369   C     0.70679   0.42494   0.11162   0.00000  Uiso   1.00
C370   C     0.68107   0.41715   0.06527   0.00000  Uiso   1.00
C371   C     0.69675   0.37509   0.03594   0.00000  Uiso   1.00
C372   C     0.91299   0.50030   0.16693   0.00000  Uiso   1.00
C373   C     0.95545   0.59458   0.15779   0.00000  Uiso   1.00
C374   C     0.94206   0.60354   0.10426   0.00000  Uiso   1.00
C375   C     0.92673   0.65343   0.09652   0.00000  Uiso   1.00
C376   C     0.96629   0.41280   0.17866   0.00000  Uiso   1.00
C377   C     0.95876   0.41330   0.23445   0.00000  Uiso   1.00
C378   C     0.95203   0.36394   0.25449   0.00000  Uiso   1.00
C379   C     0.70981   0.59577   0.16011   0.00000  Uiso   1.00
C380   C     0.71700   0.60991   0.21418   0.00000  Uiso   1.00
C381   C     0.73346   0.65938   0.21960   0.00000  Uiso   1.00
C382   C     0.83335   0.50000   0.07351   0.00000  Uiso   1.00
C383   C     0.83335   0.49999   0.25982   0.00000  Uiso   1.00
C384   C     0.83336   0.50000   0.02184   0.00000  Uiso   1.00
C385   C     0.83336   0.49999   0.31149   0.00000  Uiso   1.00
C386   C     0.68841   0.46315   0.14449   0.00000  Uiso   1.00
C387   C     0.97848   0.54725   0.16098   0.00000  Uiso   1.00
C388   C     0.98151   0.46033   0.16086   0.00000  Uiso   1.00
Cu389  Cu    0.83333   0.54689   0.16667   0.00000  Uiso   1.00
Cu390  Cu    0.83333   0.45311   0.16667   0.00000  Uiso   1.00
H391   H     0.80453   0.37704   0.09704   0.00000  Uiso   1.00
H392   H     0.73699   0.43520   0.09763   0.00000  Uiso   1.00
H393   H     0.71147   0.39178   0.13213   0.00000  Uiso   1.00
H394   H     0.90359   0.66281   0.12434   0.00000  Uiso   1.00
H395   H     0.95256   0.34432   0.09948   0.00000  Uiso   1.00
H396   H     0.91325   0.65700   0.05927   0.00000  Uiso   1.00
H397   H     0.96823   0.59761   0.07921   0.00000  Uiso   1.00
H398   H     0.91795   0.57881   0.09316   0.00000  Uiso   1.00
H399   H     0.93103   0.59868   0.18511   0.00000  Uiso   1.00
H400   H     0.97242   0.62492   0.17151   0.00000  Uiso   1.00
H401   H     0.92950   0.34500   0.23195   0.00000  Uiso   1.00
H402   H     0.86188   0.62302   0.23641   0.00000  Uiso   1.00
H403   H     0.98086   0.34370   0.25415   0.00000  Uiso   1.00
H404   H     0.94094   0.36601   0.29295   0.00000  Uiso   1.00
H405   H     0.98536   0.42855   0.25365   0.00000  Uiso   1.00
H406   H     0.93183   0.43533   0.24328   0.00000  Uiso   1.00
H407   H     0.93925   0.40132   0.15819   0.00000  Uiso   1.00
H408   H     0.98862   0.38466   0.17138   0.00000  Uiso   1.00
H409   H     0.76131   0.66355   0.19774   0.00000  Uiso   1.00
H410   H     0.71067   0.35221   0.20744   0.00000  Uiso   1.00
H411   H     0.74067   0.66628   0.25880   0.00000  Uiso   1.00
H412   H     0.68815   0.60775   0.23500   0.00000  Uiso   1.00
H413   H     0.86125   0.37646   0.23667   0.00000  Uiso   1.00
H414   H     0.73862   0.58504   0.23186   0.00000  Uiso   1.00
H415   H     0.73741   0.59737   0.13743   0.00000  Uiso   1.00
H416   H     0.69376   0.62367   0.13944   0.00000  Uiso   1.00
H417   H     0.80474   0.62364   0.09692   0.00000  Uiso   1.00
H418   H     0.72883   0.38041   0.02510   0.00000  Uiso   1.00
H419   H     0.69450   0.34251   0.05814   0.00000  Uiso   1.00
H420   H     0.67830   0.37091   0.00217   0.00000  Uiso   1.00
H421   H     0.98221   0.41135   0.07481   0.00000  Uiso   1.00
H422   H     0.68229   0.44901   0.04175   0.00000  Uiso   1.00
N423   N     0.83333   0.61736   0.16667   0.00000  Uiso   1.00
N424   N     0.83333   0.38264   0.16667   0.00000  Uiso   1.00
O425   O     0.77321   0.53958   0.16666   0.00000  Uiso   1.00
O426   O     0.89345   0.46042   0.16667   0.00000  Uiso   1.00
O427   O     0.89345   0.53958   0.16667   0.00000  Uiso   1.00
O428   O     0.77321   0.46042   0.16666   0.00000  Uiso   1.00
O429   O     0.83333   0.53959   0.09613   0.00000  Uiso   1.00
O430   O     0.83333   0.46041   0.23720   0.00000  Uiso   1.00
O431   O     0.83333   0.53959   0.23720   0.00000  Uiso   1.00
O432   O     0.83333   0.46041   0.09613   0.00000  Uiso   1.00
C433   C     0.08756   0.83425   0.16216   0.00000  Uiso   1.00
C434   C     0.02147   0.88136   0.15823   0.00000  Uiso   1.00
C435   C     0.29150   0.83588   0.16427   0.00000  Uiso   1.00
C436   C     0.04317   0.83770   0.15435   0.00000  Uiso   1.00
C437   C     0.15089   0.69166   0.12790   0.00000  Uiso   1.00
C438   C     0.18234   0.97504   0.20545   0.00000  Uiso   1.00
C439   C     0.18217   0.69130   0.20552   0.00000  Uiso   1.00
C440   C     0.15098   0.97538   0.12785   0.00000  Uiso   1.00
C441   C     0.04013   0.75827   0.11162   0.00000  Uiso   1.00
C442   C     0.01441   0.75048   0.06527   0.00000  Uiso   1.00
C443   C     0.03009   0.70843   0.03594   0.00000  Uiso   1.00
C444   C     0.24633   0.83364   0.16693   0.00000  Uiso   1.00
C445   C     0.28878   0.92792   0.15779   0.00000  Uiso   1.00
C446   C     0.27539   0.93687   0.10426   0.00000  Uiso   1.00
C447   C     0.26006   0.98677   0.09652   0.00000  Uiso   1.00
C448   C     0.29962   0.74613   0.17866   0.00000  Uiso   1.00
C449   C     0.29209   0.74663   0.23445   0.00000  Uiso   1.00
C450   C     0.28536   0.69727   0.25449   0.00000  Uiso   1.00
C451   C     0.04314   0.92911   0.16011   0.00000  Uiso   1.00
C452   C     0.05034   0.94324   0.21418   0.00000  Uiso   1.00
C453   C     0.06679   0.99272   0.21960   0.00000  Uiso   1.00
C454   C     0.16669   0.83334   0.07351   0.00000  Uiso   1.00
C455   C     0.16669   0.83333   0.25982   0.00000  Uiso   1.00
C456   C     0.16669   0.83334   0.02184   0.00000  Uiso   1.00
C457   C     0.16670   0.83332   0.31149   0.00000  Uiso   1.00
C458   C     0.02174   0.79649   0.14449   0.00000  Uiso   1.00
C459   C     0.31181   0.88059   0.16098   0.00000  Uiso   1.00
C460   C     0.31484   0.79366   0.16086   0.00000  Uiso   1.00
Cu461  Cu    0.16667   0.88022   0.16667   0.00000  Uiso   1.00
Cu462  Cu    0.16667   0.78645   0.16667   0.00000  Uiso   1.00
H463   H     0.13786   0.71037   0.09704   0.00000  Uiso   1.00
H464   H     0.07032   0.76853   0.09763   0.00000  Uiso   1.00
H465   H     0.04480   0.72511   0.13213   0.00000  Uiso   1.00
H466   H     0.23693   0.99614   0.12434   0.00000  Uiso   1.00
H467   H     0.28589   0.67765   0.09948   0.00000  Uiso   1.00
H468   H     0.24659   0.99034   0.05927   0.00000  Uiso   1.00
H469   H     0.30156   0.93094   0.07921   0.00000  Uiso   1.00
H470   H     0.25129   0.91214   0.09316   0.00000  Uiso   1.00
H471   H     0.26436   0.93201   0.18511   0.00000  Uiso   1.00
H472   H     0.30575   0.95825   0.17151   0.00000  Uiso   1.00
H473   H     0.26283   0.67833   0.23195   0.00000  Uiso   1.00
H474   H     0.19521   0.95635   0.23641   0.00000  Uiso   1.00
H475   H     0.31419   0.67703   0.25415   0.00000  Uiso   1.00
H476   H     0.27427   0.69934   0.29295   0.00000  Uiso   1.00
H477   H     0.31869   0.76188   0.25365   0.00000  Uiso   1.00
H478   H     0.26516   0.76866   0.24328   0.00000  Uiso   1.00
H479   H     0.27258   0.73465   0.15819   0.00000  Uiso   1.00
H480   H     0.32195   0.71799   0.17138   0.00000  Uiso   1.00
H481   H     0.09465   0.99688   0.19774   0.00000  Uiso   1.00
H482   H     0.04401   0.68554   0.20744   0.00000  Uiso   1.00
H483   H     0.07401   0.99961   0.25880   0.00000  Uiso   1.00
H484   H     0.02148   0.94109   0.23500   0.00000  Uiso   1.00
H485   H     0.19458   0.70979   0.23667   0.00000  Uiso   1.00
H486   H     0.07196   0.91837   0.23186   0.00000  Uiso   1.00
H487   H     0.07074   0.93071   0.13743   0.00000  Uiso   1.00
H488   H     0.02710   0.95701   0.13944   0.00000  Uiso   1.00
H489   H     0.13808   0.95697   0.09692   0.00000  Uiso   1.00
H490   H     0.06217   0.71374   0.02510   0.00000  Uiso   1.00
H491   H     0.02784   0.67584   0.05814   0.00000  Uiso   1.00
H492   H     0.01163   0.70424   0.00217   0.00000  Uiso   1.00
H493   H     0.31554   0.74468   0.07481   0.00000  Uiso   1.00
H494   H     0.01563   0.78235   0.04175   0.00000  Uiso   1.00
N495   N     0.16667   0.95069   0.16667   0.00000  Uiso   1.00
N496   N     0.16667   0.71598   0.16667   0.00000  Uiso   1.00
O497   O     0.10655   0.87291   0.16666   0.00000  Uiso   1.00
O498   O     0.22679   0.79375   0.16667   0.00000  Uiso   1.00
O499   O     0.22679   0.87291   0.16667   0.00000  Uiso   1.00
O500   O     0.10655   0.79375   0.16666   0.00000  Uiso   1.00
O501   O     0.16667   0.87292   0.09613   0.00000  Uiso   1.00
O502   O     0.16667   0.79375   0.23720   0.00000  Uiso   1.00
O503   O     0.16667   0.87292   0.23720   0.00000  Uiso   1.00
O504   O     0.16667   0.79375   0.09613   0.00000  Uiso   1.00
C505   C     0.42090   0.83425   0.16216   0.00000  Uiso   1.00
C506   C     0.35481   0.88136   0.15823   0.00000  Uiso   1.00
C507   C     0.62483   0.83588   0.16427   0.00000  Uiso   1.00
C508   C     0.37651   0.83770   0.15435   0.00000  Uiso   1.00
C509   C     0.48423   0.69166   0.12790   0.00000  Uiso   1.00
C510   C     0.51567   0.97504   0.20545   0.00000  Uiso   1.00
C511   C     0.51550   0.69130   0.20552   0.00000  Uiso   1.00
C512   C     0.48431   0.97538   0.12785   0.00000  Uiso   1.00
C513   C     0.37346   0.75827   0.11162   0.00000  Uiso   1.00
C514   C     0.34774   0.75048   0.06527   0.00000  Uiso   1.00
C515   C     0.36342   0.70843   0.03594   0.00000  Uiso   1.00
C516   C     0.57966   0.83364   0.16693   0.00000  Uiso   1.00
C517   C     0.62211   0.92792   0.15779   0.00000  Uiso   1.00
C518   C     0.60873   0.93687   0.10426   0.00000  Uiso   1.00
C519   C     0.59340   0.98677   0.09652   0.00000  Uiso   1.00
C520   C     0.63295   0.74613   0.17866   0.00000  Uiso   1.00
C521   C     0.62542   0.74663   0.23445   0.00000  Uiso   1.00
C522   C     0.61869   0.69727   0.25449   0.00000  Uiso   1.00
C523   C     0.37647   0.92911   0.16011   0.00000  Uiso   1.00
C524   C     0.38367   0.94324   0.21418   0.00000  Uiso   1.00
C525   C     0.40012   0.99272   0.21960   0.00000  Uiso   1.00
C526   C     0.50002   0.83334   0.07351   0.00000  Uiso   1.00
C527   C     0.50002   0.83333   0.25982   0.00000  Uiso   1.00
C528   C     0.50003   0.83334   0.02184   0.00000  Uiso   1.00
C529   C     0.50003   0.83332   0.31149   0.00000  Uiso   1.00
C530   C     0.35508   0.79649   0.14449   0.00000  Uiso   1.00
C531   C     0.64515   0.88059   0.16098   0.00000  Uiso   1.00
C532   C     0.64817   0.79366   0.16086   0.00000  Uiso   1.00
Cu533  Cu    0.50000   0.88022   0.16667   0.00000  Uiso   1.00
Cu534  Cu    0.50000   0.78645   0.16667   0.00000  Uiso   1.00
H535   H     0.47119   0.71037   0.09704   0.00000  Uiso   1.00
H536   H     0.40366   0.76853   0.09763   0.00000  Uiso   1.00
H537   H     0.37813   0.72511   0.13213   0.00000  Uiso   1.00
H538   H     0.57026   0.99614   0.12434   0.00000  Uiso   1.00
H539   H     0.61922   0.67765   0.09948   0.00000  Uiso   1.00
H540   H     0.57992   0.99034   0.05927   0.00000  Uiso   1.00
H541   H     0.63489   0.93094   0.07921   0.00000  Uiso   1.00
H542   H     0.58462   0.91214   0.09316   0.00000  Uiso   1.00
H543   H     0.59769   0.93201   0.18511   0.00000  Uiso   1.00
H544   H     0.63908   0.95825   0.17151   0.00000  Uiso   1.00
H545   H     0.59617   0.67833   0.23195   0.00000  Uiso   1.00
H546   H     0.52854   0.95635   0.23641   0.00000  Uiso   1.00
H547   H     0.64753   0.67703   0.25415   0.00000  Uiso   1.00
H548   H     0.60760   0.69934   0.29295   0.00000  Uiso   1.00
H549   H     0.65203   0.76188   0.25365   0.00000  Uiso   1.00
H550   H     0.59850   0.76866   0.24328   0.00000  Uiso   1.00
H551   H     0.60592   0.73465   0.15819   0.00000  Uiso   1.00
H552   H     0.65529   0.71799   0.17138   0.00000  Uiso   1.00
H553   H     0.42798   0.99688   0.19774   0.00000  Uiso   1.00
H554   H     0.37734   0.68554   0.20744   0.00000  Uiso   1.00
H555   H     0.40734   0.99961   0.25880   0.00000  Uiso   1.00
H556   H     0.35481   0.94109   0.23500   0.00000  Uiso   1.00
H557   H     0.52792   0.70979   0.23667   0.00000  Uiso   1.00
H558   H     0.40529   0.91837   0.23186   0.00000  Uiso   1.00
H559   H     0.40408   0.93071   0.13743   0.00000  Uiso   1.00
H560   H     0.36043   0.95701   0.13944   0.00000  Uiso   1.00
H561   H     0.47141   0.95697   0.09692   0.00000  Uiso   1.00
H562   H     0.39550   0.71374   0.02510   0.00000  Uiso   1.00
H563   H     0.36117   0.67584   0.05814   0.00000  Uiso   1.00
H564   H     0.34497   0.70424   0.00217   0.00000  Uiso   1.00
H565   H     0.64888   0.74468   0.07481   0.00000  Uiso   1.00
H566   H     0.34896   0.78235   0.04175   0.00000  Uiso   1.00
N567   N     0.50000   0.95069   0.16667   0.00000  Uiso   1.00
N568   N     0.50000   0.71598   0.16667   0.00000  Uiso   1.00
O569   O     0.43988   0.87291   0.16666   0.00000  Uiso   1.00
O570   O     0.56012   0.79375   0.16667   0.00000  Uiso   1.00
O571   O     0.56012   0.87291   0.16667   0.00000  Uiso   1.00
O572   O     0.43988   0.79375   0.16666   0.00000  Uiso   1.00
O573   O     0.50000   0.87292   0.09613   0.00000  Uiso   1.00
O574   O     0.50000   0.79375   0.23720   0.00000  Uiso   1.00
O575   O     0.50000   0.87292   0.23720   0.00000  Uiso   1.00
O576   O     0.50000   0.79375   0.09613   0.00000  Uiso   1.00
C577   C     0.75423   0.83425   0.16216   0.00000  Uiso   1.00
C578   C     0.68814   0.88136   0.15823   0.00000  Uiso   1.00
C579   C     0.95816   0.83588   0.16427   0.00000  Uiso   1.00
C580   C     0.70984   0.83770   0.15435   0.00000  Uiso   1.00
C581   C     0.81756   0.69166   0.12790   0.00000  Uiso   1.00
C582   C     0.84901   0.97504   0.20545   0.00000  Uiso   1.00
C583   C     0.84884   0.69130   0.20552   0.00000  Uiso   1.00
C584   C     0.81764   0.97538   0.12785   0.00000  Uiso   1.00
C585   C     0.70679   0.75827   0.11162   0.00000  Uiso   1.00
C586   C     0.68107   0.75048   0.06527   0.00000  Uiso   1.00
C587   C     0.69675   0.70843   0.03594   0.00000  Uiso   1.00
C588   C     0.91299   0.83364   0.16693   0.00000  Uiso   1.00
C589   C     0.95545   0.92792   0.15779   0.00000  Uiso   1.00
C590   C     0.94206   0.93687   0.10426   0.00000  Uiso   1.00
C591   C     0.92673   0.98677   0.09652   0.00000  Uiso   1.00
C592   C     0.96629   0.74613   0.17866   0.00000  Uiso   1.00
C593   C     0.95876   0.74663   0.23445   0.00000  Uiso   1.00
C594   C     0.95203   0.69727   0.25449   0.00000  Uiso   1.00
C595   C     0.70981   0.92911   0.16011   0.00000  Uiso   1.00
C596   C     0.71700   0.94324   0.21418   0.00000  Uiso   1.00
C597   C     0.73346   0.99272   0.21960   0.00000  Uiso   1.00
C598   C     0.83335   0.83334   0.07351   0.00000  Uiso   1.00
C599   C     0.83335   0.83333   0.25982   0.00000  Uiso   1.00
C600   C     0.83336   0.83334   0.02184   0.00000  Uiso   1.00
C601   C     0.83336   0.83332   0.31149   0.00000  Uiso   1.00
C602   C     0.68841   0.79649   0.14449   0.00000  Uiso   1.00
C603   C     0.97848   0.88059   0.16098   0.00000  Uiso   1.00
C604   C     0.98151   0.79366   0.16086   0.00000  Uiso   1.00
Cu605  Cu    0.83333   0.88022   0.16667   0.00000  Uiso   1.00
Cu606  Cu    0.83333   0.78645   0.16667   0.00000  Uiso   1.00
H607   H     0.80453   0.71037   0.09704   0.00000  Uiso   1.00
H608   H     0.73699   0.76853   0.09763   0.00000  Uiso   1.00
H609   H     0.71147   0.72511   0.13213   0.00000  Uiso   1.00
H610   H     0.90359   0.99614   0.12434   0.00000  Uiso   1.00
H611   H     0.95256   0.67765   0.09948   0.00000  Uiso   1.00
H612   H     0.91325   0.99034   0.05927   0.00000  Uiso   1.00
H613   H     0.96823   0.93094   0.07921   0.00000  Uiso   1.00
H614   H     0.91795   0.91214   0.09316   0.00000  Uiso   1.00
H615   H     0.93103   0.93201   0.18511   0.00000  Uiso   1.00
H616   H     0.97242   0.95825   0.17151   0.00000  Uiso   1.00
H617   H     0.92950   0.67833   0.23195   0.00000  Uiso   1.00
H618   H     0.86188   0.95635   0.23641   0.00000  Uiso   1.00
H619   H     0.98086   0.67703   0.25415   0.00000  Uiso   1.00
H620   H     0.94094   0.69934   0.29295   0.00000  Uiso   1.00
H621   H     0.98536   0.76188   0.25365   0.00000  Uiso   1.00
H622   H     0.93183   0.76866   0.24328   0.00000  Uiso   1.00
H623   H     0.93925   0.73465   0.15819   0.00000  Uiso   1.00
H624   H     0.98862   0.71799   0.17138   0.00000  Uiso   1.00
H625   H     0.76131   0.99688   0.19774   0.00000  Uiso   1.00
H626   H     0.71067   0.68554   0.20744   0.00000  Uiso   1.00
H627   H     0.74067   0.99961   0.25880   0.00000  Uiso   1.00
H628   H     0.68815   0.94109   0.23500   0.00000  Uiso   1.00
H629   H     0.86125   0.70979   0.23667   0.00000  Uiso   1.00
H630   H     0.73862   0.91837   0.23186   0.00000  Uiso   1.00
H631   H     0.73741   0.93071   0.13743   0.00000  Uiso   1.00
H632   H     0.69376   0.95701   0.13944   0.00000  Uiso   1.00
H633   H     0.80474   0.95697   0.09692   0.00000  Uiso   1.00
H634   H     0.72883   0.71374   0.02510   0.00000  Uiso   1.00
H635   H     0.69450   0.67584   0.05814   0.00000  Uiso   1.00
H636   H     0.67830   0.70424   0.00217   0.00000  Uiso   1.00
H637   H     0.98221   0.74468   0.07481   0.00000  Uiso   1.00
H638   H     0.68229   0.78235   0.04175   0.00000  Uiso   1.00
N639   N     0.83333   0.95069   0.16667   0.00000  Uiso   1.00
N640   N     0.83333   0.71598   0.16667   0.00000  Uiso   1.00
O641   O     0.77321   0.87291   0.16666   0.00000  Uiso   1.00
O642   O     0.89345   0.79375   0.16667   0.00000  Uiso   1.00
O643   O     0.89345   0.87291   0.16667   0.00000  Uiso   1.00
O644   O     0.77321   0.79375   0.16666   0.00000  Uiso   1.00
O645   O     0.83333   0.87292   0.09613   0.00000  Uiso   1.00
O646   O     0.83333   0.79375   0.23720   0.00000  Uiso   1.00
O647   O     0.83333   0.87292   0.23720   0.00000  Uiso   1.00
O648   O     0.83333   0.79375   0.09613   0.00000  Uiso   1.00
C649   C     0.08756   0.16758   0.49549   0.00000  Uiso   1.00
C650   C     0.02147   0.21469   0.49157   0.00000  Uiso   1.00
C651   C     0.29150   0.16921   0.49761   0.00000  Uiso   1.00
C652   C     0.04317   0.17104   0.48769   0.00000  Uiso   1.00
C653   C     0.15089   0.02499   0.46123   0.00000  Uiso   1.00
C654   C     0.18234   0.30837   0.53878   0.00000  Uiso   1.00
C655   C     0.18217   0.02464   0.53885   0.00000  Uiso   1.00
C656   C     0.15098   0.30871   0.46118   0.00000  Uiso   1.00
C657   C     0.04013   0.09161   0.44495   0.00000  Uiso   1.00
C658   C     0.01441   0.08381   0.39861   0.00000  Uiso   1.00
C659   C     0.03009   0.04176   0.36928   0.00000  Uiso   1.00
C660   C     0.24633   0.16697   0.50026   0.00000  Uiso   1.00
C661   C     0.28878   0.26125   0.49112   0.00000  Uiso   1.00
C662   C     0.27539   0.27020   0.43759   0.00000  Uiso   1.00
C663   C     0.26006   0.32010   0.42986   0.00000  Uiso   1.00
C664   C     0.29962   0.07947   0.51199   0.00000  Uiso   1.00
C665   C     0.29209   0.07996   0.56779   0.00000  Uiso   1.00
C666   C     0.28536   0.03060   0.58783   0.00000  Uiso   1.00
C667   C     0.04314   0.26244   0.49344   0.00000  Uiso   1.00
C668   C     0.05034   0.27657   0.54751   0.00000  Uiso   1.00
C669   C     0.06679   0.32605   0.55293   0.00000  Uiso   1.00
C670   C     0.16669   0.16667   0.40685   0.00000  Uiso   1.00
C671   C     0.16669   0.16666   0.59315   0.00000  Uiso   1.00
C672   C     0.16669   0.16667   0.35518   0.00000  Uiso   1.00
C673   C     0.16670   0.16666   0.64482   0.00000  Uiso   1.00
C674   C     0.02174   0.12982   0.47782   0.00000  Uiso   1.00
C675   C     0.31181   0.21392   0.49432   0.00000  Uiso   1.00
C676   C     0.31484   0.12699   0.49419   0.00000  Uiso   1.00
Cu677  Cu    0.16667   0.21355   0.50000   0.00000  Uiso   1.00
Cu678  Cu    0.16667   0.11978   0.50000   0.00000  Uiso   1.00
H679   H     0.13786   0.04370   0.43038   0.00000  Uiso   1.00
H680   H     0.07032   0.10186   0.43096   0.00000  Uiso   1.00
H681   H     0.04480   0.05845   0.46546   0.00000  Uiso   1.00
H682   H     0.23693   0.32947   0.45767   0.00000  Uiso   1.00
H683   H     0.28589   0.01098   0.43281   0.00000  Uiso   1.00
H684   H     0.24659   0.32367   0.39261   0.00000  Uiso   1.00
H685   H     0.30156   0.26427   0.41254   0.00000  Uiso   1.00
H686   H     0.25129   0.24548   0.42649   0.00000  Uiso   1.00
H687   H     0.26436   0.26534   0.51844   0.00000  Uiso   1.00
H688   H     0.30575   0.29159   0.50484   0.00000  Uiso   1.00
H689   H     0.26283   0.01167   0.56528   0.00000  Uiso   1.00
H690   H     0.19521   0.28968   0.56974   0.00000  Uiso   1.00
H691   H     0.31419   0.01037   0.58749   0.00000  Uiso   1.00
H692   H     0.27427   0.03267   0.62628   0.00000  Uiso   1.00
H693   H     0.31869   0.09522   0.58698   0.00000  Uiso   1.00
H694   H     0.26516   0.10199   0.57661   0.00000  Uiso   1.00
H695   H     0.27258   0.06798   0.49152   0.00000  Uiso   1.00
H696   H     0.32195   0.05133   0.50471   0.00000  Uiso   1.00
H697   H     0.09465   0.33022   0.53107   0.00000  Uiso   1.00
H698   H     0.04401   0.01888   0.54077   0.00000  Uiso   1.00
H699   H     0.07401   0.33294   0.59213   0.00000  Uiso   1.00
H700   H     0.02148   0.27442   0.56834   0.00000  Uiso   1.00
H701   H     0.19458   0.04313   0.57001   0.00000  Uiso   1.00
H702   H     0.07196   0.25171   0.56519   0.00000  Uiso   1.00
H703   H     0.07074   0.26404   0.47077   0.00000  Uiso   1.00
H704   H     0.02710   0.29034   0.47277   0.00000  Uiso   1.00
H705   H     0.13808   0.29031   0.43025   0.00000  Uiso   1.00
H706   H     0.06217   0.04708   0.35844   0.00000  Uiso   1.00
H707   H     0.02784   0.00918   0.39147   0.00000  Uiso   1.00
H708   H     0.01163   0.03758   0.33550   0.00000  Uiso   1.00
H709   H     0.31554   0.07802   0.40814   0.00000  Uiso   1.00
H710   H     0.01563   0.11568   0.37508   0.00000  Uiso   1.00
N711   N     0.16667   0.28402   0.50000   0.00000  Uiso   1.00
N712   N     0.16667   0.04931   0.50000   0.00000  Uiso   1.00
O713   O     0.10655   0.20625   0.50000   0.00000  Uiso   1.00
O714   O     0.22679   0.12709   0.50000   0.00000  Uiso   1.00
O715   O     0.22679   0.20625   0.50000   0.00000  Uiso   1.00
O716   O     0.10655   0.12709   0.50000   0.00000  Uiso   1.00
O717   O     0.16667   0.20625   0.42946   0.00000  Uiso   1.00
O718   O     0.16667   0.12708   0.57054   0.00000  Uiso   1.00
O719   O     0.16667   0.20625   0.57054   0.00000  Uiso   1.00
O720   O     0.16667   0.12708   0.42946   0.00000  Uiso   1.00
C721   C     0.42090   0.16758   0.49549   0.00000  Uiso   1.00
C722   C     0.35481   0.21469   0.49157   0.00000  Uiso   1.00
C723   C     0.62483   0.16921   0.49761   0.00000  Uiso   1.00
C724   C     0.37651   0.17104   0.48769   0.00000  Uiso   1.00
C725   C     0.48423   0.02499   0.46123   0.00000  Uiso   1.00
C726   C     0.51567   0.30837   0.53878   0.00000  Uiso   1.00
C727   C     0.51550   0.02464   0.53885   0.00000  Uiso   1.00
C728   C     0.48431   0.30871   0.46118   0.00000  Uiso   1.00
C729   C     0.37346   0.09161   0.44495   0.00000  Uiso   1.00
C730   C     0.34774   0.08381   0.39861   0.00000  Uiso   1.00
C731   C     0.36342   0.04176   0.36928   0.00000  Uiso   1.00
C732   C     0.57966   0.16697   0.50026   0.00000  Uiso   1.00
C733   C     0.62211   0.26125   0.49112   0.00000  Uiso   1.00
C734   C     0.60873   0.27020   0.43759   0.00000  Uiso   1.00
C735   C     0.59340   0.32010   0.42986   0.00000  Uiso   1.00
C736   C     0.63295   0.07947   0.51199   0.00000  Uiso   1.00
C737   C     0.62542   0.07996   0.56779   0.00000  Uiso   1.00
C738   C     0.61869   0.03060   0.58783   0.00000  Uiso   1.00
C739   C     0.37647   0.26244   0.49344   0.00000  Uiso   1.00
C740   C     0.38367   0.27657   0.54751   0.00000  Uiso   1.00
C741   C     0.40012   0.32605   0.55293   0.00000  Uiso   1.00
C742   C     0.50002   0.16667   0.40685   0.00000  Uiso   1.00
C743   C     0.50002   0.16666   0.59315   0.00000  Uiso   1.00
C744   C     0.50003   0.16667   0.35518   0.00000  Uiso   1.00
C745   C     0.50003   0.16666   0.64482   0.00000  Uiso   1.00
C746   C     0.35508   0.12982   0.47782   0.00000  Uiso   1.00
C747   C     0.64515   0.21392   0.49432   0.00000  Uiso   1.00
C748   C     0.64817   0.12699   0.49419   0.00000  Uiso   1.00
Cu749  Cu    0.50000   0.21355   0.50000   0.00000  Uiso   1.00
Cu750  Cu    0.50000   0.11978   0.50000   0.00000  Uiso   1.00
H751   H     0.47119   0.04370   0.43038   0.00000  Uiso   1.00
H752   H     0.40366   0.10186   0.43096   0.00000  Uiso   1.00
H753   H     0.37813   0.05845   0.46546   0.00000  Uiso   1.00
H754   H     0.57026   0.32947   0.45767   0.00000  Uiso   1.00
H755   H     0.61922   0.01098   0.43281   0.00000  Uiso   1.00
H756   H     0.57992   0.32367   0.39261   0.00000  Uiso   1.00
H757   H     0.63489   0.26427   0.41254   0.00000  Uiso   1.00
H758   H     0.58462   0.24548   0.42649   0.00000  Uiso   1.00
H759   H     0.59769   0.26534   0.51844   0.00000  Uiso   1.00
H760   H     0.63908   0.29159   0.50484   0.00000  Uiso   1.00
H761   H     0.59617   0.01167   0.56528   0.00000  Uiso   1.00
H762   H     0.52854   0.28968   0.56974   0.00000  Uiso   1.00
H763   H     0.64753   0.01037   0.58749   0.00000  Uiso   1.00
H764   H     0.60760   0.03267   0.62628   0.00000  Uiso   1.00
H765   H     0.65203   0.09522   0.58698   0.00000  Uiso   1.00
H766   H     0.59850   0.10199   0.57661   0.00000  Uiso   1.00
H767   H     0.60592   0.06798   0.49152   0.00000  Uiso   1.00
H768   H     0.65529   0.05133   0.50471   0.00000  Uiso   1.00
H769   H     0.42798   0.33022   0.53107   0.00000  Uiso   1.00
H770   H     0.37734   0.01888   0.54077   0.00000  Uiso   1.00
H771   H     0.40734   0.33294   0.59213   0.00000  Uiso   1.00
H772   H     0.35481   0.27442   0.56834   0.00000  Uiso   1.00
H773   H     0.52792   0.04313   0.57001   0.00000  Uiso   1.00
H774   H     0.40529   0.25171   0.56519   0.00000  Uiso   1.00
H775   H     0.40408   0.26404   0.47077   0.00000  Uiso   1.00
H776   H     0.36043   0.29034   0.47277   0.00000  Uiso   1.00
H777   H     0.47141   0.29031   0.43025   0.00000  Uiso   1.00
H778   H     0.39550   0.04708   0.35844   0.00000  Uiso   1.00
H779   H     0.36117   0.00918   0.39147   0.00000  Uiso   1.00
H780   H     0.34497   0.03758   0.33550   0.00000  Uiso   1.00
H781   H     0.64888   0.07802   0.40814   0.00000  Uiso   1.00
H782   H     0.34896   0.11568   0.37508   0.00000  Uiso   1.00
N783   N     0.50000   0.28402   0.50000   0.00000  Uiso   1.00
N784   N     0.50000   0.04931   0.50000   0.00000  Uiso   1.00
O785   O     0.43988   0.20625   0.50000   0.00000  Uiso   1.00
O786   O     0.56012   0.12709   0.50000   0.00000  Uiso   1.00
O787   O     0.56012   0.20625   0.50000   0.00000  Uiso   1.00
O788   O     0.43988   0.12709   0.50000   0.00000  Uiso   1.00
O789   O     0.50000   0.20625   0.42946   0.00000  Uiso   1.00
O790   O     0.50000   0.12708   0.57054   0.00000  Uiso   1.00
O791   O     0.50000   0.20625   0.57054   0.00000  Uiso   1.00
O792   O     0.50000   0.12708   0.42946   0.00000  Uiso   1.00
C793   C     0.75423   0.16758   0.49549   0.00000  Uiso   1.00
C794   C     0.68814   0.21469   0.49157   0.00000  Uiso   1.00
C795   C     0.95816   0.16921   0.49761   0.00000  Uiso   1.00
C796   C     0.70984   0.17104   0.48769   0.00000  Uiso   1.00
C797   C     0.81756   0.02499   0.46123   0.00000  Uiso   1.00
C798   C     0.84901   0.30837   0.53878   0.00000  Uiso   1.00
C799   C     0.84884   0.02464   0.53885   0.00000  Uiso   1.00
C800   C     0.81764   0.30871   0.46118   0.00000  Uiso   1.00
C801   C     0.70679   0.09161   0.44495   0.00000  Uiso   1.00
C802   C     0.68107   0.08381   0.39861   0.00000  Uiso   1.00
C803   C     0.69675   0.04176   0.36928   0.00000  Uiso   1.00
C804   C     0.91299   0.16697   0.50026   0.00000  Uiso   1.00
C805   C     0.95545   0.26125   0.49112   0.00000  Uiso   1.00
C806   C     0.94206   0.27020   0.43759   0.00000  Uiso   1.00
C807   C     0.92673   0.32010   0.42986   0.00000  Uiso   1.00
C808   C     0.96629   0.07947   0.51199   0.00000  Uiso   1.00
C809   C     0.95876   0.07996   0.56779   0.00000  Uiso   1.00
C810   C     0.95203   0.03060   0.58783   0.00000  Uiso   1.00
C811   C     0.70981   0.26244   0.49344   0.00000  Uiso   1.00
C812   C     0.71700   0.27657   0.54751   0.00000  Uiso   1.00
C813   C     0.73346   0.32605   0.55293   0.00000  Uiso   1.00
C814   C     0.83335   0.16667   0.40685   0.00000  Uiso   1.00
C815   C     0.83335   0.16666   0.59315   0.00000  Uiso   1.00
C816   C     0.83336   0.16667   0.35518   0.00000  Uiso   1.00
C817   C     0.83336   0.16666   0.64482   0.00000  Uiso   1.00
C818   C     0.68841   0.12982   0.47782   0.00000  Uiso   1.00
C819   C     0.97848   0.21392   0.49432   0.00000  Uiso   1.00
C820   C     0.98151   0.12699   0.49419   0.00000  Uiso   1.00
Cu821  Cu    0.83333   0.21355   0.50000   0.00000  Uiso   1.00
Cu822  Cu    0.83333   0.11978   0.50000   0.00000  Uiso   1.00
H823   H     0.80453   0.04370   0.43038   0.00000  Uiso   1.00
H824   H     0.73699   0.10186   0.43096   0.00000  Uiso   1.00
H825   H     0.71147   0.05845   0.46546   0.00000  Uiso   1.00
H826   H     0.90359   0.32947   0.45767   0.00000  Uiso   1.00
H827   H     0.95256   0.01098   0.43281   0.00000  Uiso   1.00
H828   H     0.91325   0.32367   0.39261   0.00000  Uiso   1.00
H829   H     0.96823   0.26427   0.41254   0.00000  Uiso   1.00
H830   H     0.91795   0.24548   0.42649   0.00000  Uiso   1.00
H831   H     0.93103   0.26534   0.51844   0.00000  Uiso   1.00
H832   H     0.97242   0.29159   0.50484   0.00000  Uiso   1.00
H833   H     0.92950   0.01167   0.56528   0.00000  Uiso   1.00
H834   H     0.86188   0.28968   0.56974   0.00000  Uiso   1.00
H835   H     0.98086   0.01037   0.58749   0.00000  Uiso   1.00
H836   H     0.94094   0.03267   0.62628   0.00000  Uiso   1.00
H837   H     0.98536   0.09522   0.58698   0.00000  Uiso   1.00
H838   H     0.93183   0.10199   0.57661   0.00000  Uiso   1.00
H839   H     0.93925   0.06798   0.49152   0.00000  Uiso   1.00
H840   H     0.98862   0.05133   0.50471   0.00000  Uiso   1.00
H841   H     0.76131   0.33022   0.53107   0.00000  Uiso   1.00
H842   H     0.71067   0.01888   0.54077   0.00000  Uiso   1.00
H843   H     0.74067   0.33294   0.59213   0.00000  Uiso   1.00
H844   H     0.68815   0.27442   0.56834   0.00000  Uiso   1.00
H845   H     0.86125   0.04313   0.57001   0.00000  Uiso   1.00
H846   H     0.73862   0.25171   0.56519   0.00000  Uiso   1.00
H847   H     0.73741   0.26404   0.47077   0.00000  Uiso   1.00
H848   H     0.69376   0.29034   0.47277   0.00000  Uiso   1.00
H849   H     0.80474   0.29031   0.43025   0.00000  Uiso   1.00
H850   H     0.72883   0.04708   0.35844   0.00000  Uiso   1.00
H851   H     0.69450   0.00918   0.39147   0.00000  Uiso   1.00
H852   H     0.67830   0.03758   0.33550   0.00000  Uiso   1.00
H853   H     0.98221   0.07802   0.40814   0.00000  Uiso   1.00
H854   H     0.68229   0.11568   0.37508   0.00000  Uiso   1.00
N855   N     0.83333   0.28402   0.50000   0.00000  Uiso   1.00
N856   N     0.83333   0.04931   0.50000   0.00000  Uiso   1.00
O857   O     0.77321   0.20625   0.50000   0.00000  Uiso   1.00
O858   O     0.89345   0.12709   0.50000   0.00000  Uiso   1.00
O859   O     0.89345   0.20625   0.50000   0.00000  Uiso   1.00
O860   O     0.77321   0.12709   0.50000   0.00000  Uiso   1.00
O861   O     0.83333   0.20625   0.42946   0.00000  Uiso   1.00
O862   O     0.83333   0.12708   0.57054   0.00000  Uiso   1.00
O863   O     0.83333   0.20625   0.57054   0.00000  Uiso   1.00
O864   O     0.83333   0.12708   0.42946   0.00000  Uiso   1.00
C865   C     0.08756   0.50091   0.49549   0.00000  Uiso   1.00
C866   C     0.02147   0.54803   0.49157   0.00000  Uiso   1.00
C867   C     0.29150   0.50254   0.49761   0.00000  Uiso   1.00
C868   C     0.04317   0.50437   0.48769   0.00000  Uiso   1.00
C869   C     0.15089   0.35832   0.46123   0.00000  Uiso   1.00
C870   C     0.18234   0.64171   0.53878   0.00000  Uiso   1.00
C871   C     0.18217   0.35797   0.53885   0.00000  Uiso   1.00
C872   C     0.15098   0.64205   0.46118   0.00000  Uiso   1.00
C873   C     0.04013   0.42494   0.44495   0.00000  Uiso   1.00
C874   C     0.01441   0.41715   0.39861   0.00000  Uiso   1.00
C875   C     0.03009   0.37509   0.36928   0.00000  Uiso   1.00
C876   C     0.24633   0.50030   0.50026   0.00000  Uiso   1.00
C877   C     0.28878   0.59458   0.49112   0.00000  Uiso   1.00
C878   C     0.27539   0.60354   0.43759   0.00000  Uiso   1.00
C879   C     0.26006   0.65343   0.42986   0.00000  Uiso   1.00
C880   C     0.29962   0.41280   0.51199   0.00000  Uiso   1.00
C881   C     0.29209   0.41330   0.56779   0.00000  Uiso   1.00
C882   C     0.28536   0.36394   0.58783   0.00000  Uiso   1.00
C883   C     0.04314   0.59577   0.49344   0.00000  Uiso   1.00
C884   C     0.05034   0.60991   0.54751   0.00000  Uiso   1.00
C885   C     0.06679   0.65938   0.55293   0.00000  Uiso   1.00
C886   C     0.16669   0.50000   0.40685   0.00000  Uiso   1.00
C887   C     0.16669   0.49999   0.59315   0.00000  Uiso   1.00
C888   C     0.16669   0.50000   0.35518   0.00000  Uiso   1.00
C889   C     0.16670   0.49999   0.64482   0.00000  Uiso   1.00
C890   C     0.02174   0.46315   0.47782   0.00000  Uiso   1.00
C891   C     0.31181   0.54725   0.49432   0.00000  Uiso   1.00
C892   C     0.31484   0.46033   0.49419   0.00000  Uiso   1.00
Cu893  Cu    0.16667   0.54689   0.50000   0.00000  Uiso   1.00
Cu894  Cu    0.16667   0.45311   0.50000   0.00000  Uiso   1.00
H895   H     0.13786   0.37704   0.43038   0.00000  Uiso   1.00
H896   H     0.07032   0.43520   0.43096   0.00000  Uiso   1.00
H897   H     0.04480   0.39178   0.46546   0.00000  Uiso   1.00
H898   H     0.23693   0.66281   0.45767   0.00000  Uiso   1.00
H899   H     0.28589   0.34432   0.43281   0.00000  Uiso   1.00
H900   H     0.24659   0.65700   0.39261   0.00000  Uiso   1.00
H901   H     0.30156   0.59761   0.41254   0.00000  Uiso   1.00
H902   H     0.25129   0.57881   0.42649   0.00000  Uiso   1.00
H903   H     0.26436   0.59868   0.51844   0.00000  Uiso   1.00
H904   H     0.30575   0.62492   0.50484   0.00000  Uiso   1.00
H905   H     0.26283   0.34500   0.56528   0.00000  Uiso   1.00
H906   H     0.19521   0.62302   0.56974   0.00000  Uiso   1.00
H907   H     0.31419   0.34370   0.58749   0.00000  Uiso   1.00
H908   H     0.27427   0.36601   0.62628   0.00000  Uiso   1.00
H909   H     0.31869   0.42855   0.58698   0.00000  Uiso   1.00
H910   H     0.26516   0.43533   0.57661   0.00000  Uiso   1.00
H911   H     0.27258   0.40132   0.49152   0.00000  Uiso   1.00
H912   H     0.32195   0.38466   0.50471   0.00000  Uiso   1.00
H913   H     0.09465   0.66355   0.53107   0.00000  Uiso   1.00
H914   H     0.04401   0.35221   0.54077   0.00000  Uiso   1.00
H915   H     0.07401   0.66628   0.59213   0.00000  Uiso   1.00
H916   H     0.02148   0.60775   0.56834   0.00000  Uiso   1.00
H917   H     0.19458   0.37646   0.57001   0.00000  Uiso   1.00
H918   H     0.07196   0.58504   0.56519   0.00000  Uiso   1.00
H919   H     0.07074   0.59737   0.47077   0.00000  Uiso   1.00
H920   H     0.02710   0.62367   0.47277   0.00000  Uiso   1.00
H921   H     0.13808   0.62364   0.43025   0.00000  Uiso   1.00
H922   H     0.06217   0.38041   0.35844   0.00000  Uiso   1.00
H923   H     0.02784   0.34251   0.39147   0.00000  Uiso   1.00
H924   H     0.01163   0.37091   0.33550   0.00000  Uiso   1.00
H925   H     0.31554   0.41135   0.40814   0.00000  Uiso   1.00
H926   H     0.01563   0.44901   0.37508   0.00000  Uiso   1.00
N927   N     0.16667   0.61736   0.50000   0.00000  Uiso   1.00
N928   N     0.16667   0.38264   0.50000   0.00000  Uiso   1.00
O929   O     0.10655   0.53958   0.50000   0.00000  Uiso   1.00
O930   O     0.22679   0.46042   0.50000   0.00000  Uiso   1.00
O931   O     0.22679   0.53958   0.50000   0.00000  Uiso   1.00
O932   O     0.10655   0.46042   0.50000   0.00000  Uiso   1.00
O933   O     0.16667   0.53959   0.42946   0.00000  Uiso   1.00
O934   O     0.16667   0.46041   0.57054   0.00000  Uiso   1.00
O935   O     0.16667   0.53959   0.57054   0.00000  Uiso   1.00
O936   O     0.16667   0.46041   0.42946   0.00000  Uiso   1.00
C937   C     0.42090   0.50091   0.49549   0.00000  Uiso   1.00
C938   C     0.35481   0.54803   0.49157   0.00000  Uiso   1.00
C939   C     0.62483   0.50254   0.49761   0.00000  Uiso   1.00
C940   C     0.37651   0.50437   0.48769   0.00000  Uiso   1.00
C941   C     0.48423   0.35832   0.46123   0.00000  Uiso   1.00
C942   C     0.51567   0.64171   0.53878   0.00000  Uiso   1.00
C943   C     0.51550   0.35797   0.53885   0.00000  Uiso   1.00
C944   C     0.48431   0.64205   0.46118   0.00000  Uiso   1.00
C945   C     0.37346   0.42494   0.44495   0.00000  Uiso   1.00
C946   C     0.34774   0.41715   0.39861   0.00000  Uiso   1.00
C947   C     0.36342   0.37509   0.36928   0.00000  Uiso   1.00
C948   C     0.57966   0.50030   0.50026   0.00000  Uiso   1.00
C949   C     0.62211   0.59458   0.49112   0.00000  Uiso   1.00
C950   C     0.60873   0.60354   0.43759   0.00000  Uiso   1.00
C951   C     0.59340   0.65343   0.42986   0.00000  Uiso   1.00
C952   C     0.63295   0.41280   0.51199   0.00000  Uiso   1.00
C953   C     0.62542   0.41330   0.56779   0.00000  Uiso   1.00
C954   C     0.61869   0.36394   0.58783   0.00000  Uiso   1.00
C955   C     0.37647   0.59577   0.49344   0.00000  Uiso   1.00
C956   C     0.38367   0.60991   0.54751   0.00000  Uiso   1.00
C957   C     0.40012   0.65938   0.55293   0.00000  Uiso   1.00
C958   C     0.50002   0.50000   0.40685   0.00000  Uiso   1.00
C959   C     0.50002   0.49999   0.59315   0.00000  Uiso   1.00
C960   C     0.50003   0.50000   0.35518   0.00000  Uiso   1.00
C961   C     0.50003   0.49999   0.64482   0.00000  Uiso   1.00
C962   C     0.35508   0.46315   0.47782   0.00000  Uiso   1.00
C963   C     0.64515   0.54725   0.49432   0.00000  Uiso   1.00
C964   C     0.64817   0.46033   0.49419   0.00000  Uiso   1.00
Cu965  Cu    0.50000   0.54689   0.50000   0.00000  Uiso   1.00
Cu966  Cu    0.50000   0.45311   0.50000   0.00000  Uiso   1.00
H967   H     0.47119   0.37704   0.43038   0.00000  Uiso   1.00
H968   H     0.40366   0.43520   0.43096   0.00000  Uiso   1.00
H969   H     0.37813   0.39178   0.46546   0.00000  Uiso   1.00
H970   H     0.57026   0.66281   0.45767   0.00000  Uiso   1.00
H971   H     0.61922   0.34432   0.43281   0.00000  Uiso   1.00
H972   H     0.57992   0.65700   0.39261   0.00000  Uiso   1.00
H973   H     0.63489   0.59761   0.41254   0.00000  Uiso   1.00
H974   H     0.58462   0.57881   0.42649   0.00000  Uiso   1.00
H975   H     0.59769   0.59868   0.51844   0.00000  Uiso   1.00
H976   H     0.63908   0.62492   0.50484   0.00000  Uiso   1.00
H977   H     0.59617   0.34500   0.56528   0.00000  Uiso   1.00
H978   H     0.52854   0.62302   0.56974   0.00000  Uiso   1.00
H979   H     0.64753   0.34370   0.58749   0.00000  Uiso   1.00
H980   H     0.60760   0.36601   0.62628   0.00000  Uiso   1.00
H981   H     0.65203   0.42855   0.58698   0.00000  Uiso   1.00
H982   H     0.59850   0.43533   0.57661   0.00000  Uiso   1.00
H983   H     0.60592   0.40132   0.49152   0.00000  Uiso   1.00
H984   H     0.65529   0.38466   0.50471   0.00000  Uiso   1.00
H985   H     0.42798   0.66355   0.53107   0.00000  Uiso   1.00
H986   H     0.37734   0.35221   0.54077   0.00000  Uiso   1.00
H987   H     0.40734   0.66628   0.59213   0.00000  Uiso   1.00
H988   H     0.35481   0.60775   0.56834   0.00000  Uiso   1.00
H989   H     0.52792   0.37646   0.57001   0.00000  Uiso   1.00
H990   H     0.40529   0.58504   0.56519   0.00000  Uiso   1.00
H991   H     0.40408   0.59737   0.47077   0.00000  Uiso   1.00
H992   H     0.36043   0.62367   0.47277   0.00000  Uiso   1.00
H993   H     0.47141   0.62364   0.43025   0.00000  Uiso   1.00
H994   H     0.39550   0.38041   0.35844   0.00000  Uiso   1.00
H995   H     0.36117   0.34251   0.39147   0.00000  Uiso   1.00
H996   H     0.34497   0.37091   0.33550   0.00000  Uiso   1.00
H997   H     0.64888   0.41135   0.40814   0.00000  Uiso   1.00
H998   H     0.34896   0.44901   0.37508   0.00000  Uiso   1.00
N999   N     0.50000   0.61736   0.50000   0.00000  Uiso   1.00
N1000  N     0.50000   0.38264   0.50000   0.00000  Uiso   1.00
O1001  O     0.43988   0.53958   0.50000   0.00000  Uiso   1.00
O1002  O     0.56012   0.46042   0.50000   0.00000  Uiso   1.00
O1003  O     0.56012   0.53958   0.50000   0.00000  Uiso   1.00
O1004  O     0.43988   0.46042   0.50000   0.00000  Uiso   1.00
O1005  O     0.50000   0.53959   0.42946   0.00000  Uiso   1.00
O1006  O     0.50000   0.46041   0.57054   0.00000  Uiso   1.00
O1007  O     0.50000   0.53959   0.57054   0.00000  Uiso   1.00
O1008  O     0.50000   0.46041   0.42946   0.00000  Uiso   1.00
C1009  C     0.75423   0.50091   0.49549   0.00000  Uiso   1.00
C1010  C     0.68814   0.54803   0.49157   0.00000  Uiso   1.00
C1011  C     0.95816   0.50254   0.49761   0.00000  Uiso   1.00
C1012  C     0.70984   0.50437   0.48769   0.00000  Uiso   1.00
C1013  C     0.81756   0.35832   0.46123   0.00000  Uiso   1.00
C1014  C     0.84901   0.64171   0.53878   0.00000  Uiso   1.00
C1015  C     0.84884   0.35797   0.53885   0.00000  Uiso   1.00
C1016  C     0.81764   0.64205   0.46118   0.00000  Uiso   1.00
C1017  C     0.70679   0.42494   0.44495   0.00000  Uiso   1.00
C1018  C     0.68107   0.41715   0.39861   0.00000  Uiso   1.00
C1019  C     0.69675   0.37509   0.36928   0.00000  Uiso   1.00
C1020  C     0.91299   0.50030   0.50026   0.00000  Uiso   1.00
C1021  C     0.95545   0.59458   0.49112   0.00000  Uiso   1.00
C1022  C     0.94206   0.60354   0.43759   0.00000  Uiso   1.00
C1023  C     0.92673   0.65343   0.42986   0.00000  Uiso   1.00
C1024  C     0.96629   0.41280   0.51199   0.00000  Uiso   1.00
C1025  C     0.95876   0.41330   0.56779   0.00000  Uiso   1.00
C1026  C     0.95203   0.36394   0.58783   0.00000  Uiso   1.00
C1027  C     0.70981   0.59577   0.49344   0.00000  Uiso   1.00
C1028  C     0.71700   0.60991   0.54751   0.00000  Uiso   1.00
C1029  C     0.73346   0.65938   0.55293   0.00000  Uiso   1.00
C1030  C     0.83335   0.50000   0.40685   0.00000  Uiso   1.00
C1031  C     0.83335   0.49999   0.59315   0.00000  Uiso   1.00
C1032  C     0.83336   0.50000   0.35518   0.00000  Uiso   1.00
C1033  C     0.83336   0.49999   0.64482   0.00000  Uiso   1.00
C1034  C     0.68841   0.46315   0.47782   0.00000  Uiso   1.00
C1035  C     0.97848   0.54725   0.49432   0.00000  Uiso   1.00
C1036  C     0.98151   0.46033   0.49419   0.00000  Uiso   1.00
Cu1037 Cu    0.83333   0.54689   0.50000   0.00000  Uiso   1.00
Cu1038 Cu    0.83333   0.45311   0.50000   0.00000  Uiso   1.00
H1039  H     0.80453   0.37704   0.43038   0.00000  Uiso   1.00
H1040  H     0.73699   0.43520   0.43096   0.00000  Uiso   1.00
H1041  H     0.71147   0.39178   0.46546   0.00000  Uiso   1.00
H1042  H     0.90359   0.66281   0.45767   0.00000  Uiso   1.00
H1043  H     0.95256   0.34432   0.43281   0.00000  Uiso   1.00
H1044  H     0.91325   0.65700   0.39261   0.00000  Uiso   1.00
H1045  H     0.96823   0.59761   0.41254   0.00000  Uiso   1.00
H1046  H     0.91795   0.57881   0.42649   0.00000  Uiso   1.00
H1047  H     0.93103   0.59868   0.51844   0.00000  Uiso   1.00
H1048  H     0.97242   0.62492   0.50484   0.00000  Uiso   1.00
H1049  H     0.92950   0.34500   0.56528   0.00000  Uiso   1.00
H1050  H     0.86188   0.62302   0.56974   0.00000  Uiso   1.00
H1051  H     0.98086   0.34370   0.58749   0.00000  Uiso   1.00
H1052  H     0.94094   0.36601   0.62628   0.00000  Uiso   1.00
H1053  H     0.98536   0.42855   0.58698   0.00000  Uiso   1.00
H1054  H     0.93183   0.43533   0.57661   0.00000  Uiso   1.00
H1055  H     0.93925   0.40132   0.49152   0.00000  Uiso   1.00
H1056  H     0.98862   0.38466   0.50471   0.00000  Uiso   1.00
H1057  H     0.76131   0.66355   0.53107   0.00000  Uiso   1.00
H1058  H     0.71067   0.35221   0.54077   0.00000  Uiso   1.00
H1059  H     0.74067   0.66628   0.59213   0.00000  Uiso   1.00
H1060  H     0.68815   0.60775   0.56834   0.00000  Uiso   1.00
H1061  H     0.86125   0.37646   0.57001   0.00000  Uiso   1.00
H1062  H     0.73862   0.58504   0.56519   0.00000  Uiso   1.00
H1063  H     0.73741   0.59737   0.47077   0.00000  Uiso   1.00
H1064  H     0.69376   0.62367   0.47277   0.00000  Uiso   1.00
H1065  H     0.80474   0.62364   0.43025   0.00000  Uiso   1.00
H1066  H     0.72883   0.38041   0.35844   0.00000  Uiso   1.00
H1067  H     0.69450   0.34251   0.39147   0.00000  Uiso   1.00
H1068  H     0.67830   0.37091   0.33550   0.00000  Uiso   1.00
H1069  H     0.98221   0.41135   0.40814   0.00000  Uiso   1.00
H1070  H     0.68229   0.44901   0.37508   0.00000  Uiso   1.00
N1071  N     0.83333   0.61736   0.50000   0.00000  Uiso   1.00
N1072  N     0.83333   0.38264   0.50000   0.00000  Uiso   1.00
O1073  O     0.77321   0.53958   0.50000   0.00000  Uiso   1.00
O1074  O     0.89345   0.46042   0.50000   0.00000  Uiso   1.00
O1075  O     0.89345   0.53958   0.50000   0.00000  Uiso   1.00
O1076  O     0.77321   0.46042   0.50000   0.00000  Uiso   1.00
O1077  O     0.83333   0.53959   0.42946   0.00000  Uiso   1.00
O1078  O     0.83333   0.46041   0.57054   0.00000  Uiso   1.00
O1079  O     0.83333   0.53959   0.57054   0.00000  Uiso   1.00
O1080  O     0.83333   0.46041   0.42946   0.00000  Uiso   1.00
C1081  C     0.08756   0.83425   0.49549   0.00000  Uiso   1.00
C1082  C     0.02147   0.88136   0.49157   0.00000  Uiso   1.00
C1083  C     0.29150   0.83588   0.49761   0.00000  Uiso   1.00
C1084  C     0.04317   0.83770   0.48769   0.00000  Uiso   1.00
C1085  C     0.15089   0.69166   0.46123   0.00000  Uiso   1.00
C1086  C     0.18234   0.97504   0.53878   0.00000  Uiso   1.00
C1087  C     0.18217   0.69130   0.53885   0.00000  Uiso   1.00
C1088  C     0.15098   0.97538   0.46118   0.00000  Uiso   1.00
C1089  C     0.04013   0.75827   0.44495   0.00000  Uiso   1.00
C1090  C     0.01441   0.75048   0.39861   0.00000  Uiso   1.00
C1091  C     0.03009   0.70843   0.36928   0.00000  Uiso   1.00
C1092  C     0.24633   0.83364   0.50026   0.00000  Uiso   1.00
C1093  C     0.28878   0.92792   0.49112   0.00000  Uiso   1.00
C1094  C     0.27539   0.93687   0.43759   0.00000  Uiso   1.00
C1095  C     0.26006   0.98677   0.42986   0.00000  Uiso   1.00
C1096  C     0.29962   0.74613   0.51199   0.00000  Uiso   1.00
C1097  C     0.29209   0.74663   0.56779   0.00000  Uiso   1.00
C1098  C     0.28536   0.69727   0.58783   0.00000  Uiso   1.00
C1099  C     0.04314   0.92911   0.49344   0.00000  Uiso   1.00
C1100  C     0.05034   0.94324   0.54751   0.00000  Uiso   1.00
C1101  C     0.06679   0.99272   0.55293   0.00000  Uiso   1.00
C1102  C     0.16669   0.83334   0.40685   0.00000  Uiso   1.00
C1103  C     0.16669   0.83333   0.59315   0.00000  Uiso   1.00
C1104  C     0.16669   0.83334   0.35518   0.00000  Uiso   1.00
C1105  C     0.16670   0.83332   0.64482   0.00000  Uiso   1.00
C1106  C     0.02174   0.79649   0.47782   0.00000  Uiso   1.00
C1107  C     0.31181   0.88059   0.49432   0.00000  Uiso   1.00
C1108  C     0.31484   0.79366   0.49419   0.00000  Uiso   1.00
Cu1109 Cu    0.16667   0.88022   0.50000   0.00000  Uiso   1.00
Cu1110 Cu    0.16667   0.78645   0.50000   0.00000  Uiso   1.00
H1111  H     0.13786   0.71037   0.43038   0.00000  Uiso   1.00
H1112  H     0.07032   0.76853   0.43096   0.00000  Uiso   1.00
H1113  H     0.04480   0.72511   0.46546   0.00000  Uiso   1.00
H1114  H     0.23693   0.99614   0.45767   0.00000  Uiso   1.00
H1115  H     0.28589   0.67765   0.43281   0.00000  Uiso   1.00
H1116  H     0.24659   0.99034   0.39261   0.00000  Uiso   1.00
H1117  H     0.30156   0.93094   0.41254   0.00000  Uiso   1.00
H1118  H     0.25129   0.91214   0.42649   0.00000  Uiso   1.00
H1119  H     0.26436   0.93201   0.51844   0.00000  Uiso   1.00
H1120  H     0.30575   0.95825   0.50484   0.00000  Uiso   1.00
H1121  H     0.26283   0.67833   0.56528   0.00000  Uiso   1.00
H1122  H     0.19521   0.95635   0.56974   0.00000  Uiso   1.00
H1123  H     0.31419   0.67703   0.58749   0.00000  Uiso   1.00
H1124  H     0.27427   0.69934   0.62628   0.00000  Uiso   1.00
H1125  H     0.31869   0.76188   0.58698   0.00000  Uiso   1.00
H1126  H     0.26516   0.76866   0.57661   0.00000  Uiso   1.00
H1127  H     0.27258   0.73465   0.49152   0.00000  Uiso   1.00
H1128  H     0.32195   0.71799   0.50471   0.00000  Uiso   1.00
H1129  H     0.09465   0.99688   0.53107   0.00000  Uiso   1.00
H1130  H     0.04401   0.68554   0.54077   0.00000  Uiso   1.00
H1131  H     0.07401   0.99961   0.59213   0.00000  Uiso   1.00
H1132  H     0.02148   0.94109   0.56834   0.00000  Uiso   1.00
H1133  H     0.19458   0.70979   0.57001   0.00000  Uiso   1.00
H1134  H     0.07196   0.91837   0.56519   0.00000  Uiso   1.00
H1135  H     0.07074   0.93071   0.47077   0.00000  Uiso   1.00
H1136  H     0.02710   0.95701   0.47277   0.00000  Uiso   1.00
H1137  H     0.13808   0.95697   0.43025   0.00000  Uiso   1.00
H1138  H     0.06217   0.71374   0.35844   0.00000  Uiso   1.00
H1139  H     0.02784   0.67584   0.39147   0.00000  Uiso   1.00
H1140  H     0.01163   0.70424   0.33550   0.00000  Uiso   1.00
H1141  H     0.31554   0.74468   0.40814   0.00000  Uiso   1.00
H1142  H     0.01563   0.78235   0.37508   0.00000  Uiso   1.00
N1143  N     0.16667   0.95069   0.50000   0.00000  Uiso   1.00
N1144  N     0.16667   0.71598   0.50000   0.00000  Uiso   1.00
O1145  O     0.10655   0.87291   0.50000   0.00000  Uiso   1.00
O1146  O     0.22679   0.79375   0.50000   0.00000  Uiso   1.00
O1147  O     0.22679   0.87291   0.50000   0.00000  Uiso   1.00
O1148  O     0.10655   0.79375   0.50000   0.00000  Uiso   1.00
O1149  O     0.16667   0.87292   0.42946   0.00000  Uiso   1.00
O1150  O     0.16667   0.79375   0.57054   0.00000  Uiso   1.00
O1151  O     0.16667   0.87292   0.57054   0.00000  Uiso   1.00
O1152  O     0.16667   0.79375   0.42946   0.00000  Uiso   1.00
C1153  C     0.42090   0.83425   0.49549   0.00000  Uiso   1.00
C1154  C     0.35481   0.88136   0.49157   0.00000  Uiso   1.00
C1155  C     0.62483   0.83588   0.49761   0.00000  Uiso   1.00
C1156  C     0.37651   0.83770   0.48769   0.00000  Uiso   1.00
C1157  C     0.48423   0.69166   0.46123   0.00000  Uiso   1.00
C1158  C     0.51567   0.97504   0.53878   0.00000  Uiso   1.00
C1159  C     0.51550   0.69130   0.53885   0.00000  Uiso   1.00
C1160  C     0.48431   0.97538   0.46118   0.00000  Uiso   1.00
C1161  C     0.37346   0.75827   0.44495   0.00000  Uiso   1.00
C1162  C     0.34774   0.75048   0.39861   0.00000  Uiso   1.00
C1163  C     0.36342   0.70843   0.36928   0.00000  Uiso   1.00
C1164  C     0.57966   0.83364   0.50026   0.00000  Uiso   1.00
C1165  C     0.62211   0.92792   0.49112   0.00000  Uiso   1.00
C1166  C     0.60873   0.93687   0.43759   0.00000  Uiso   1.00
C1167  C     0.59340   0.98677   0.42986   0.00000  Uiso   1.00
C1168  C     0.63295   0.74613   0.51199   0.00000  Uiso   1.00
C1169  C     0.62542   0.74663   0.56779   0.00000  Uiso   1.00
C1170  C     0.61869   0.69727   0.58783   0.00000  Uiso   1.00
C1171  C     0.37647   0.92911   0.49344   0.00000  Uiso   1.00
C1172  C     0.38367   0.94324   0.54751   0.00000  Uiso   1.00
C1173  C     0.40012   0.99272   0.55293   0.00000  Uiso   1.00
C1174  C     0.50002   0.83334   0.40685   0.00000  Uiso   1.00
C1175  C     0.50002   0.83333   0.59315   0.00000  Uiso   1.00
C1176  C     0.50003   0.83334   0.35518   0.00000  Uiso   1.00
C1177  C     0.50003   0.83332   0.64482   0.00000  Uiso   1.00
C1178  C     0.35508   0.79649   0.47782   0.00000  Uiso   1.00
C1179  C     0.64515   0.88059   0.49432   0.00000  Uiso   1.00
C1180  C     0.64817   0.79366   0.49419   0.00000  Uiso   1.00
Cu1181 Cu    0.50000   0.88022   0.50000   0.00000  Uiso   1.00
Cu1182 Cu    0.50000   0.78645   0.50000   0.00000  Uiso   1.00
H1183  H     0.47119   0.71037   0.43038   0.00000  Uiso   1.00
H1184  H     0.40366   0.76853   0.43096   0.00000  Uiso   1.00
H1185  H     0.37813   0.72511   0.46546   0.00000  Uiso   1.00
H1186  H     0.57026   0.99614   0.45767   0.00000  Uiso   1.00
H1187  H     0.61922   0.67765   0.43281   0.00000  Uiso   1.00
H1188  H     0.57992   0.99034   0.39261   0.00000  Uiso   1.00
H1189  H     0.63489   0.93094   0.41254   0.00000  Uiso   1.00
H1190  H     0.58462   0.91214   0.42649   0.00000  Uiso   1.00
H1191  H     0.59769   0.93201   0.51844   0.00000  Uiso   1.00
H1192  H     0.63908   0.95825   0.50484   0.00000  Uiso   1.00
H1193  H     0.59617   0.67833   0.56528   0.00000  Uiso   1.00
H1194  H     0.52854   0.95635   0.56974   0.00000  Uiso   1.00
H1195  H     0.64753   0.67703   0.58749   0.00000  Uiso   1.00
H1196  H     0.60760   0.69934   0.62628   0.00000  Uiso   1.00
H1197  H     0.65203   0.76188   0.58698   0.00000  Uiso   1.00
H1198  H     0.59850   0.76866   0.57661   0.00000  Uiso   1.00
H1199  H     0.60592   0.73465   0.49152   0.00000  Uiso   1.00
H1200  H     0.65529   0.71799   0.50471   0.00000  Uiso   1.00
H1201  H     0.42798   0.99688   0.53107   0.00000  Uiso   1.00
H1202  H     0.37734   0.68554   0.54077   0.00000  Uiso   1.00
H1203  H     0.40734   0.99961   0.59213   0.00000  Uiso   1.00
H1204  H     0.35481   0.94109   0.56834   0.00000  Uiso   1.00
H1205  H     0.52792   0.70979   0.57001   0.00000  Uiso   1.00
H1206  H     0.40529   0.91837   0.56519   0.00000  Uiso   1.00
H1207  H     0.40408   0.93071   0.47077   0.00000  Uiso   1.00
H1208  H     0.36043   0.95701   0.47277   0.00000  Uiso   1.00
H1209  H     0.47141   0.95697   0.43025   0.00000  Uiso   1.00
H1210  H     0.39550   0.71374   0.35844   0.00000  Uiso   1.00
H1211  H     0.36117   0.67584   0.39147   0.00000  Uiso   1.00
H1212  H     0.34497   0.70424   0.33550   0.00000  Uiso   1.00
H1213  H     0.64888   0.74468   0.40814   0.00000  Uiso   1.00
H1214  H     0.34896   0.78235   0.37508   0.00000  Uiso   1.00
N1215  N     0.50000   0.95069   0.50000   0.00000  Uiso   1.00
N1216  N     0.50000   0.71598   0.50000   0.00000  Uiso   1.00
O1217  O     0.43988   0.87291   0.50000   0.00000  Uiso   1.00
O1218  O     0.56012   0.79375   0.50000   0.00000  Uiso   1.00
O1219  O     0.56012   0.87291   0.50000   0.00000  Uiso   1.00
O1220  O     0.43988   0.79375   0.50000   0.00000  Uiso   1.00
O1221  O     0.50000   0.87292   0.42946   0.00000  Uiso   1.00
O1222  O     0.50000   0.79375   0.57054   0.00000  Uiso   1.00
O1223  O     0.50000   0.87292   0.57054   0.00000  Uiso   1.00
O1224  O     0.50000   0.79375   0.42946   0.00000  Uiso   1.00
C1225  C     0.75423   0.83425   0.49549   0.00000  Uiso   1.00
C1226  C     0.68814   0.88136   0.49157   0.00000  Uiso   1.00
C1227  C     0.95816   0.83588   0.49761   0.00000  Uiso   1.00
C1228  C     0.70984   0.83770   0.48769   0.00000  Uiso   1.00
C1229  C     0.81756   0.69166   0.46123   0.00000  Uiso   1.00
C1230  C     0.84901   0.97504   0.53878   0.00000  Uiso   1.00
C1231  C     0.84884   0.69130   0.53885   0.00000  Uiso   1.00
C1232  C     0.81764   0.97538   0.46118   0.00000  Uiso   1.00
C1233  C     0.70679   0.75827   0.44495   0.00000  Uiso   1.00
C1234  C     0.68107   0.75048   0.39861   0.00000  Uiso   1.00
C1235  C     0.69675   0.70843   0.36928   0.00000  Uiso   1.00
C1236  C     0.91299   0.83364   0.50026   0.00000  Uiso   1.00
C1237  C     0.95545   0.92792   0.49112   0.00000  Uiso   1.00
C1238  C     0.94206   0.93687   0.43759   0.00000  Uiso   1.00
C1239  C     0.92673   0.98677   0.42986   0.00000  Uiso   1.00
C1240  C     0.96629   0.74613   0.51199   0.00000  Uiso   1.00
C1241  C     0.95876   0.74663   0.56779   0.00000  Uiso   1.00
C1242  C     0.95203   0.69727   0.58783   0.00000  Uiso   1.00
C1243  C     0.70981   0.92911   0.49344   0.00000  Uiso   1.00
C1244  C     0.71700   0.94324   0.54751   0.00000  Uiso   1.00
C1245  C     0.73346   0.99272   0.55293   0.00000  Uiso   1.00
C1246  C     0.83335   0.83334   0.40685   0.00000  Uiso   1.00
C1247  C     0.83335   0.83333   0.59315   0.00000  Uiso   1.00
C1248  C     0.83336   0.83334   0.35518   0.00000  Uiso   1.00
C1249  C     0.83336   0.83332   0.64482   0.00000  Uiso   1.00
C1250  C     0.68841   0.79649   0.47782   0.00000  Uiso   1.00
C1251  C     0.97848   0.88059   0.49432   0.00000  Uiso   1.00
C1252  C     0.98151   0.79366   0.49419   0.00000  Uiso   1.00
Cu1253 Cu    0.83333   0.88022   0.50000   0.00000  Uiso   1.00
Cu1254 Cu    0.83333   0.78645   0.50000   0.00000  Uiso   1.00
H1255  H     0.80453   0.71037   0.43038   0.00000  Uiso   1.00
H1256  H     0.73699   0.76853   0.43096   0.00000  Uiso   1.00
H1257  H     0.71147   0.72511   0.46546   0.00000  Uiso   1.00
H1258  H     0.90359   0.99614   0.45767   0.00000  Uiso   1.00
H1259  H     0.95256   0.67765   0.43281   0.00000  Uiso   1.00
H1260  H     0.91325   0.99034   0.39261   0.00000  Uiso   1.00
H1261  H     0.96823   0.93094   0.41254   0.00000  Uiso   1.00
H1262  H     0.91795   0.91214   0.42649   0.00000  Uiso   1.00
H1263  H     0.93103   0.93201   0.51844   0.00000  Uiso   1.00
H1264  H     0.97242   0.95825   0.50484   0.00000  Uiso   1.00
H1265  H     0.92950   0.67833   0.56528   0.00000  Uiso   1.00
H1266  H     0.86188   0.95635   0.56974   0.00000  Uiso   1.00
H1267  H     0.98086   0.67703   0.58749   0.00000  Uiso   1.00
H1268  H     0.94094   0.69934   0.62628   0.00000  Uiso   1.00
H1269  H     0.98536   0.76188   0.58698   0.00000  Uiso   1.00
H1270  H     0.93183   0.76866   0.57661   0.00000  Uiso   1.00
H1271  H     0.93925   0.73465   0.49152   0.00000  Uiso   1.00
H1272  H     0.98862   0.71799   0.50471   0.00000  Uiso   1.00
H1273  H     0.76131   0.99688   0.53107   0.00000  Uiso   1.00
H1274  H     0.71067   0.68554   0.54077   0.00000  Uiso   1.00
H1275  H     0.74067   0.99961   0.59213   0.00000  Uiso   1.00
H1276  H     0.68815   0.94109   0.56834   0.00000  Uiso   1.00
H1277  H     0.86125   0.70979   0.57001   0.00000  Uiso   1.00
H1278  H     0.73862   0.91837   0.56519   0.00000  Uiso   1.00
H1279  H     0.73741   0.93071   0.47077   0.00000  Uiso   1.00
H1280  H     0.69376   0.95701   0.47277   0.00000  Uiso   1.00
H1281  H     0.80474   0.95697   0.43025   0.00000  Uiso   1.00
H1282  H     0.72883   0.71374   0.35844   0.00000  Uiso   1.00
H1283  H     0.69450   0.67584   0.39147   0.00000  Uiso   1.00
H1284  H     0.67830   0.70424   0.33550   0.00000  Uiso   1.00
H1285  H     0.98221   0.74468   0.40814   0.00000  Uiso   1.00
H1286  H     0.68229   0.78235   0.37508   0.00000  Uiso   1.00
N1287  N     0.83333   0.95069   0.50000   0.00000  Uiso   1.00
N1288  N     0.83333   0.71598   0.50000   0.00000  Uiso   1.00
O1289  O     0.77321   0.87291   0.50000   0.00000  Uiso   1.00
O1290  O     0.89345   0.79375   0.50000   0.00000  Uiso   1.00
O1291  O     0.89345   0.87291   0.50000   0.00000  Uiso   1.00
O1292  O     0.77321   0.79375   0.50000   0.00000  Uiso   1.00
O1293  O     0.83333   0.87292   0.42946   0.00000  Uiso   1.00
O1294  O     0.83333   0.79375   0.57054   0.00000  Uiso   1.00
O1295  O     0.83333   0.87292   0.57054   0.00000  Uiso   1.00
O1296  O     0.83333   0.79375   0.42946   0.00000  Uiso   1.00
C1297  C     0.08756   0.16758   0.82883   0.00000  Uiso   1.00
C1298  C     0.02147   0.21469   0.82490   0.00000  Uiso   1.00
C1299  C     0.29150   0.16921   0.83094   0.00000  Uiso   1.00
C1300  C     0.04317   0.17104   0.82102   0.00000  Uiso   1.00
C1301  C     0.15089   0.02499   0.79457   0.00000  Uiso   1.00
C1302  C     0.18234   0.30837   0.87211   0.00000  Uiso   1.00
C1303  C     0.18217   0.02464   0.87218   0.00000  Uiso   1.00
C1304  C     0.15098   0.30871   0.79452   0.00000  Uiso   1.00
C1305  C     0.04013   0.09161   0.77828   0.00000  Uiso   1.00
C1306  C     0.01441   0.08381   0.73194   0.00000  Uiso   1.00
C1307  C     0.03009   0.04176   0.70261   0.00000  Uiso   1.00
C1308  C     0.24633   0.16697   0.83360   0.00000  Uiso   1.00
C1309  C     0.28878   0.26125   0.82445   0.00000  Uiso   1.00
C1310  C     0.27539   0.27020   0.77093   0.00000  Uiso   1.00
C1311  C     0.26006   0.32010   0.76319   0.00000  Uiso   1.00
C1312  C     0.29962   0.07947   0.84533   0.00000  Uiso   1.00
C1313  C     0.29209   0.07996   0.90112   0.00000  Uiso   1.00
C1314  C     0.28536   0.03060   0.92116   0.00000  Uiso   1.00
C1315  C     0.04314   0.26244   0.82678   0.00000  Uiso   1.00
C1316  C     0.05034   0.27657   0.88084   0.00000  Uiso   1.00
C1317  C     0.06679   0.32605   0.88626   0.00000  Uiso   1.00
C1318  C     0.16669   0.16667   0.74018   0.00000  Uiso   1.00
C1319  C     0.16669   0.16666   0.92649   0.00000  Uiso   1.00
C1320  C     0.16669   0.16667   0.68851   0.00000  Uiso   1.00
C1321  C     0.16670   0.16666   0.97816   0.00000  Uiso   1.00
C1322  C     0.02174   0.12982   0.81115   0.00000  Uiso   1.00
C1323  C     0.31181   0.21392   0.82765   0.00000  Uiso   1.00
C1324  C     0.31484   0.12699   0.82753   0.00000  Uiso   1.00
Cu1325 Cu    0.16667   0.21355   0.83333   0.00000  Uiso   1.00
Cu1326 Cu    0.16667   0.11978   0.83333   0.00000  Uiso   1.00
H1327  H     0.13786   0.04370   0.76371   0.00000  Uiso   1.00
H1328  H     0.07032   0.10186   0.76430   0.00000  Uiso   1.00
H1329  H     0.04480   0.05845   0.79879   0.00000  Uiso   1.00
H1330  H     0.23693   0.32947   0.79101   0.00000  Uiso   1.00
H1331  H     0.28589   0.01098   0.76615   0.00000  Uiso   1.00
H1332  H     0.24659   0.32367   0.72594   0.00000  Uiso   1.00
H1333  H     0.30156   0.26427   0.74587   0.00000  Uiso   1.00
H1334  H     0.25129   0.24548   0.75982   0.00000  Uiso   1.00
H1335  H     0.26436   0.26534   0.85178   0.00000  Uiso   1.00
H1336  H     0.30575   0.29159   0.83817   0.00000  Uiso   1.00
H1337  H     0.26283   0.01167   0.89862   0.00000  Uiso   1.00
H1338  H     0.19521   0.28968   0.90308   0.00000  Uiso   1.00
H1339  H     0.31419   0.01037   0.92082   0.00000  Uiso   1.00
H1340  H     0.27427   0.03267   0.95962   0.00000  Uiso   1.00
H1341  H     0.31869   0.09522   0.92031   0.00000  Uiso   1.00
H1342  H     0.26516   0.10199   0.90995   0.00000  Uiso   1.00
H1343  H     0.27258   0.06798   0.82486   0.00000  Uiso   1.00
H1344  H     0.32195   0.05133   0.83804   0.00000  Uiso   1.00
H1345  H     0.09465   0.33022   0.86440   0.00000  Uiso   1.00
H1346  H     0.04401   0.01888   0.87410   0.00000  Uiso   1.00
H1347  H     0.07401   0.33294   0.92546   0.00000  Uiso   1.00
H1348  H     0.02148   0.27442   0.90167   0.00000  Uiso   1.00
H1349  H     0.19458   0.04313   0.90334   0.00000  Uiso   1.00
H1350  H     0.07196   0.25171   0.89852   0.00000  Uiso   1.00
H1351  H     0.07074   0.26404   0.80410   0.00000  Uiso   1.00
H1352  H     0.02710   0.29034   0.80610   0.00000  Uiso   1.00
H1353  H     0.13808   0.29031   0.76358   0.00000  Uiso   1.00
H1354  H     0.06217   0.04708   0.69177   0.00000  Uiso   1.00
H1355  H     0.02784   0.00918   0.72480   0.00000  Uiso   1.00
H1356  H     0.01163   0.03758   0.66884   0.00000  Uiso   1.00
H1357  H     0.31554   0.07802   0.74147   0.00000  Uiso   1.00
H1358  H     0.01563   0.11568   0.70841   0.00000  Uiso   1.00
N1359  N     0.16667   0.28402   0.83333   0.00000  Uiso   1.00
N1360  N     0.16667   0.04931   0.83333   0.00000  Uiso   1.00
O1361  O     0.10655   0.20625   0.83333   0.00000  Uiso   1.00
O1362  O     0.22679   0.12709   0.83334   0.00000  Uiso   1.00
O1363  O     0.22679   0.20625   0.83334   0.00000  Uiso   1.00
O1364  O     0.10655   0.12709   0.83333   0.00000  Uiso   1.00
O1365  O     0.16667   0.20625   0.76280   0.00000  Uiso   1.00
O1366  O     0.16667   0.12708   0.90387   0.00000  Uiso   1.00
O1367  O     0.16667   0.20625   0.90387   0.00000  Uiso   1.00
O1368  O     0.16667   0.12708   0.76280   0.00000  Uiso   1.00
C1369  C     0.42090   0.16758   0.82883   0.00000  Uiso   1.00
C1370  C     0.35481   0.21469   0.82490   0.00000  Uiso   1.00
C1371  C     0.62483   0.16921   0.83094   0.00000  Uiso   1.00
C1372  C     0.37651   0.17104   0.82102   0.00000  Uiso   1.00
C1373  C     0.48423   0.02499   0.79457   0.00000  Uiso   1.00
C1374  C     0.51567   0.30837   0.87211   0.00000  Uiso   1.00
C1375  C     0.51550   0.02464   0.87218   0.00000  Uiso   1.00
C1376  C     0.48431   0.30871   0.79452   0.00000  Uiso   1.00
C1377  C     0.37346   0.09161   0.77828   0.00000  Uiso   1.00
C1378  C     0.34774   0.08381   0.73194   0.00000  Uiso   1.00
C1379  C     0.36342   0.04176   0.70261   0.00000  Uiso   1.00
C1380  C     0.57966   0.16697   0.83360   0.00000  Uiso   1.00
C1381  C     0.62211   0.26125   0.82445   0.00000  Uiso   1.00
C1382  C     0.60873   0.27020   0.77093   0.00000  Uiso   1.00
C1383  C     0.59340   0.32010   0.76319   0.00000  Uiso   1.00
C1384  C     0.63295   0.07947   0.84533   0.00000  Uiso   1.00
C1385  C     0.62542   0.07996   0.90112   0.00000  Uiso   1.00
C1386  C     0.61869   0.03060   0.92116   0.00000  Uiso   1.00
C1387  C     0.37647   0.26244   0.82678   0.00000  Uiso   1.00
C1388  C     0.38367   0.27657   0.88084   0.00000  Uiso   1.00
C1389  C     0.40012   0.32605   0.88626   0.00000  Uiso   1.00
C1390  C     0.50002   0.16667   0.74018   0.00000  Uiso   1.00
C1391  C     0.50002   0.16666   0.92649   0.00000  Uiso   1.00
C1392  C     0.50003   0.16667   0.68851   0.00000  Uiso   1.00
C1393  C     0.50003   0.16666   0.97816   0.00000  Uiso   1.00
C1394  C     0.35508   0.12982   0.81115   0.00000  Uiso   1.00
C1395  C     0.64515   0.21392   0.82765   0.00000  Uiso   1.00
C1396  C     0.64817   0.12699   0.82753   0.00000  Uiso   1.00
Cu1397 Cu    0.50000   0.21355   0.83333   0.00000  Uiso   1.00
Cu1398 Cu    0.50000   0.11978   0.83333   0.00000  Uiso   1.00
H1399  H     0.47119   0.04370   0.76371   0.00000  Uiso   1.00
H1400  H     0.40366   0.10186   0.76430   0.00000  Uiso   1.00
H1401  H     0.37813   0.05845   0.79879   0.00000  Uiso   1.00
H1402  H     0.57026   0.32947   0.79101   0.00000  Uiso   1.00
H1403  H     0.61922   0.01098   0.76615   0.00000  Uiso   1.00
H1404  H     0.57992   0.32367   0.72594   0.00000  Uiso   1.00
H1405  H     0.63489   0.26427   0.74587   0.00000  Uiso   1.00
H1406  H     0.58462   0.24548   0.75982   0.00000  Uiso   1.00
H1407  H     0.59769   0.26534   0.85178   0.00000  Uiso   1.00
H1408  H     0.63908   0.29159   0.83817   0.00000  Uiso   1.00
H1409  H     0.59617   0.01167   0.89862   0.00000  Uiso   1.00
H1410  H     0.52854   0.28968   0.90308   0.00000  Uiso   1.00
H1411  H     0.64753   0.01037   0.92082   0.00000  Uiso   1.00
H1412  H     0.60760   0.03267   0.95962   0.00000  Uiso   1.00
H1413  H     0.65203   0.09522   0.92031   0.00000  Uiso   1.00
H1414  H     0.59850   0.10199   0.90995   0.00000  Uiso   1.00
H1415  H     0.60592   0.06798   0.82486   0.00000  Uiso   1.00
H1416  H     0.65529   0.05133   0.83804   0.00000  Uiso   1.00
H1417  H     0.42798   0.33022   0.86440   0.00000  Uiso   1.00
H1418  H     0.37734   0.01888   0.87410   0.00000  Uiso   1.00
H1419  H     0.40734   0.33294   0.92546   0.00000  Uiso   1.00
H1420  H     0.35481   0.27442   0.90167   0.00000  Uiso   1.00
H1421  H     0.52792   0.04313   0.90334   0.00000  Uiso   1.00
H1422  H     0.40529   0.25171   0.89852   0.00000  Uiso   1.00
H1423  H     0.40408   0.26404   0.80410   0.00000  Uiso   1.00
H1424  H     0.36043   0.29034   0.80610   0.00000  Uiso   1.00
H1425  H     0.47141   0.29031   0.76358   0.00000  Uiso   1.00
H1426  H     0.39550   0.04708   0.69177   0.00000  Uiso   1.00
H1427  H     0.36117   0.00918   0.72480   0.00000  Uiso   1.00
H1428  H     0.34497   0.03758   0.66884   0.00000  Uiso   1.00
H1429  H     0.64888   0.07802   0.74147   0.00000  Uiso   1.00
H1430  H     0.34896   0.11568   0.70841   0.00000  Uiso   1.00
N1431  N     0.50000   0.28402   0.83333   0.00000  Uiso   1.00
N1432  N     0.50000   0.04931   0.83333   0.00000  Uiso   1.00
O1433  O     0.43988   0.20625   0.83333   0.00000  Uiso   1.00
O1434  O     0.56012   0.12709   0.83334   0.00000  Uiso   1.00
O1435  O     0.56012   0.20625   0.83334   0.00000  Uiso   1.00
O1436  O     0.43988   0.12709   0.83333   0.00000  Uiso   1.00
O1437  O     0.50000   0.20625   0.76280   0.00000  Uiso   1.00
O1438  O     0.50000   0.12708   0.90387   0.00000  Uiso   1.00
O1439  O     0.50000   0.20625   0.90387   0.00000  Uiso   1.00
O1440  O     0.50000   0.12708   0.76280   0.00000  Uiso   1.00
C1441  C     0.75423   0.16758   0.82883   0.00000  Uiso   1.00
C1442  C     0.68814   0.21469   0.82490   0.00000  Uiso   1.00
C1443  C     0.95816   0.16921   0.83094   0.00000  Uiso   1.00
C1444  C     0.70984   0.17104   0.82102   0.00000  Uiso   1.00
C1445  C     0.81756   0.02499   0.79457   0.00000  Uiso   1.00
C1446  C     0.84901   0.30837   0.87211   0.00000  Uiso   1.00
C1447  C     0.84884   0.02464   0.87218   0.00000  Uiso   1.00
C1448  C     0.81764   0.30871   0.79452   0.00000  Uiso   1.00
C1449  C     0.70679   0.09161   0.77828   0.00000  Uiso   1.00
C1450  C     0.68107   0.08381   0.73194   0.00000  Uiso   1.00
C1451  C     0.69675   0.04176   0.70261   0.00000  Uiso   1.00
C1452  C     0.91299   0.16697   0.83360   0.00000  Uiso   1.00
C1453  C     0.95545   0.26125   0.82445   0.00000  Uiso   1.00
C1454  C     0.94206   0.27020   0.77093   0.00000  Uiso   1.00
C1455  C     0.92673   0.32010   0.76319   0.00000  Uiso   1.00
C1456  C     0.96629   0.07947   0.84533   0.00000  Uiso   1.00
C1457  C     0.95876   0.07996   0.90112   0.00000  Uiso   1.00
C1458  C     0.95203   0.03060   0.92116   0.00000  Uiso   1.00
C1459  C     0.70981   0.26244   0.82678   0.00000  Uiso   1.00
C1460  C     0.71700   0.27657   0.88084   0.00000  Uiso   1.00
C1461  C     0.73346   0.32605   0.88626   0.00000  Uiso   1.00
C1462  C     0.83335   0.16667   0.74018   0.00000  Uiso   1.00
C1463  C     0.83335   0.16666   0.92649   0.00000  Uiso   1.00
C1464  C     0.83336   0.16667   0.68851   0.00000  Uiso   1.00
C1465  C     0.83336   0.16666   0.97816   0.00000  Uiso   1.00
C1466  C     0.68841   0.12982   0.81115   0.00000  Uiso   1.00
C1467  C     0.97848   0.21392   0.82765   0.00000  Uiso   1.00
C1468  C     0.98151   0.12699   0.82753   0.00000  Uiso   1.00
Cu1469 Cu    0.83333   0.21355   0.83333   0.00000  Uiso   1.00
Cu1470 Cu    0.83333   0.11978   0.83333   0.00000  Uiso   1.00
H1471  H     0.80453   0.04370   0.76371   0.00000  Uiso   1.00
H1472  H     0.73699   0.10186   0.76430   0.00000  Uiso   1.00
H1473  H     0.71147   0.05845   0.79879   0.00000  Uiso   1.00
H1474  H     0.90359   0.32947   0.79101   0.00000  Uiso   1.00
H1475  H     0.95256   0.01098   0.76615   0.00000  Uiso   1.00
H1476  H     0.91325   0.32367   0.72594   0.00000  Uiso   1.00
H1477  H     0.96823   0.26427   0.74587   0.00000  Uiso   1.00
H1478  H     0.91795   0.24548   0.75982   0.00000  Uiso   1.00
H1479  H     0.93103   0.26534   0.85178   0.00000  Uiso   1.00
H1480  H     0.97242   0.29159   0.83817   0.00000  Uiso   1.00
H1481  H     0.92950   0.01167   0.89862   0.00000  Uiso   1.00
H1482  H     0.86188   0.28968   0.90308   0.00000  Uiso   1.00
H1483  H     0.98086   0.01037   0.92082   0.00000  Uiso   1.00
H1484  H     0.94094   0.03267   0.95962   0.00000  Uiso   1.00
H1485  H     0.98536   0.09522   0.92031   0.00000  Uiso   1.00
H1486  H     0.93183   0.10199   0.90995   0.00000  Uiso   1.00
H1487  H     0.93925   0.06798   0.82486   0.00000  Uiso   1.00
H1488  H     0.98862   0.05133   0.83804   0.00000  Uiso   1.00
H1489  H     0.76131   0.33022   0.86440   0.00000  Uiso   1.00
H1490  H     0.71067   0.01888   0.87410   0.00000  Uiso   1.00
H1491  H     0.74067   0.33294   0.92546   0.00000  Uiso   1.00
H1492  H     0.68815   0.27442   0.90167   0.00000  Uiso   1.00
H1493  H     0.86125   0.04313   0.90334   0.00000  Uiso   1.00
H1494  H     0.73862   0.25171   0.89852   0.00000  Uiso   1.00
H1495  H     0.73741   0.26404   0.80410   0.00000  Uiso   1.00
H1496  H     0.69376   0.29034   0.80610   0.00000  Uiso   1.00
H1497  H     0.80474   0.29031   0.76358   0.00000  Uiso   1.00
H1498  H     0.72883   0.04708   0.69177   0.00000  Uiso   1.00
H1499  H     0.69450   0.00918   0.72480   0.00000  Uiso   1.00
H1500  H     0.67830   0.03758   0.66884   0.00000  Uiso   1.00
H1501  H     0.98221   0.07802   0.74147   0.00000  Uiso   1.00
H1502  H     0.68229   0.11568   0.70841   0.00000  Uiso   1.00
N1503  N     0.83333   0.28402   0.83333   0.00000  Uiso   1.00
N1504  N     0.83333   0.04931   0.83333   0.00000  Uiso   1.00
O1505  O     0.77321   0.20625   0.83333   0.00000  Uiso   1.00
O1506  O     0.89345   0.12709   0.83334   0.00000  Uiso   1.00
O1507  O     0.89345   0.20625   0.83334   0.00000  Uiso   1.00
O1508  O     0.77321   0.12709   0.83333   0.00000  Uiso   1.00
O1509  O     0.83333   0.20625   0.76280   0.00000  Uiso   1.00
O1510  O     0.83333   0.12708   0.90387   0.00000  Uiso   1.00
O1511  O     0.83333   0.20625   0.90387   0.00000  Uiso   1.00
O1512  O     0.83333   0.12708   0.76280   0.00000  Uiso   1.00
C1513  C     0.08756   0.50091   0.82883   0.00000  Uiso   1.00
C1514  C     0.02147   0.54803   0.82490   0.00000  Uiso   1.00
C1515  C     0.29150   0.50254   0.83094   0.00000  Uiso   1.00
C1516  C     0.04317   0.50437   0.82102   0.00000  Uiso   1.00
C1517  C     0.15089   0.35832   0.79457   0.00000  Uiso   1.00
C1518  C     0.18234   0.64171   0.87211   0.00000  Uiso   1.00
C1519  C     0.18217   0.35797   0.87218   0.00000  Uiso   1.00
C1520  C     0.15098   0.64205   0.79452   0.00000  Uiso   1.00
C1521  C     0.04013   0.42494   0.77828   0.00000  Uiso   1.00
C1522  C     0.01441   0.41715   0.73194   0.00000  Uiso   1.00
C1523  C     0.03009   0.37509   0.70261   0.00000  Uiso   1.00
C1524  C     0.24633   0.50030   0.83360   0.00000  Uiso   1.00
C1525  C     0.28878   0.59458   0.82445   0.00000  Uiso   1.00
C1526  C     0.27539   0.60354   0.77093   0.00000  Uiso   1.00
C1527  C     0.26006   0.65343   0.76319   0.00000  Uiso   1.00
C1528  C     0.29962   0.41280   0.84533   0.00000  Uiso   1.00
C1529  C     0.29209   0.41330   0.90112   0.00000  Uiso   1.00
C1530  C     0.28536   0.36394   0.92116   0.00000  Uiso   1.00
C1531  C     0.04314   0.59577   0.82678   0.00000  Uiso   1.00
C1532  C     0.05034   0.60991   0.88084   0.00000  Uiso   1.00
C1533  C     0.06679   0.65938   0.88626   0.00000  Uiso   1.00
C1534  C     0.16669   0.50000   0.74018   0.00000  Uiso   1.00
C1535  C     0.16669   0.49999   0.92649   0.00000  Uiso   1.00
C1536  C     0.16669   0.50000   0.68851   0.00000  Uiso   1.00
C1537  C     0.16670   0.49999   0.97816   0.00000  Uiso   1.00
C1538  C     0.02174   0.46315   0.81115   0.00000  Uiso   1.00
C1539  C     0.31181   0.54725   0.82765   0.00000  Uiso   1.00
C1540  C     0.31484   0.46033   0.82753   0.00000  Uiso   1.00
Cu1541 Cu    0.16667   0.54689   0.83333   0.00000  Uiso   1.00
Cu1542 Cu    0.16667   0.45311   0.83333   0.00000  Uiso   1.00
H1543  H     0.13786   0.37704   0.76371   0.00000  Uiso   1.00
H1544  H     0.07032   0.43520   0.76430   0.00000  Uiso   1.00
H1545  H     0.04480   0.39178   0.79879   0.00000  Uiso   1.00
H1546  H     0.23693   0.66281   0.79101   0.00000  Uiso   1.00
H1547  H     0.28589   0.34432   0.76615   0.00000  Uiso   1.00
H1548  H     0.24659   0.65700   0.72594   0.00000  Uiso   1.00
H1549  H     0.30156   0.59761   0.74587   0.00000  Uiso   1.00
H1550  H     0.25129   0.57881   0.75982   0.00000  Uiso   1.00
H1551  H     0.26436   0.59868   0.85178   0.00000  Uiso   1.00
H1552  H     0.30575   0.62492   0.83817   0.00000  Uiso   1.00
H1553  H     0.26283   0.34500   0.89862   0.00000  Uiso   1.00
H1554  H     0.19521   0.62302   0.90308   0.00000  Uiso   1.00
H1555  H     0.31419   0.34370   0.92082   0.00000  Uiso   1.00
H1556  H     0.27427   0.36601   0.95962   0.00000  Uiso   1.00
H1557  H     0.31869   0.42855   0.92031   0.00000  Uiso   1.00
H1558  H     0.26516   0.43533   0.90995   0.00000  Uiso   1.00
H1559  H     0.27258   0.40132   0.82486   0.00000  Uiso   1.00
H1560  H     0.32195   0.38466   0.83804   0.00000  Uiso   1.00
H1561  H     0.09465   0.66355   0.86440   0.00000  Uiso   1.00
H1562  H     0.04401   0.35221   0.87410   0.00000  Uiso   1.00
H1563  H     0.07401   0.66628   0.92546   0.00000  Uiso   1.00
H1564  H     0.02148   0.60775   0.90167   0.00000  Uiso   1.00
H1565  H     0.19458   0.37646   0.90334   0.00000  Uiso   1.00
H1566  H     0.07196   0.58504   0.89852   0.00000  Uiso   1.00
H1567  H     0.07074   0.59737   0.80410   0.00000  Uiso   1.00
H1568  H     0.02710   0.62367   0.80610   0.00000  Uiso   1.00
H1569  H     0.13808   0.62364   0.76358   0.00000  Uiso   1.00
H1570  H     0.06217   0.38041   0.69177   0.00000  Uiso   1.00
H1571  H     0.02784   0.34251   0.72480   0.00000  Uiso   1.00
H1572  H     0.01163   0.37091   0.66884   0.00000  Uiso   1.00
H1573  H     0.31554   0.41135   0.74147   0.00000  Uiso   1.00
H1574  H     0.01563   0.44901   0.70841   0.00000  Uiso   1.00
N1575  N     0.16667   0.61736   0.83333   0.00000  Uiso   1.00
N1576  N     0.16667   0.38264   0.83333   0.00000  Uiso   1.00
O1577  O     0.10655   0.53958   0.83333   0.00000  Uiso   1.00
O1578  O     0.22679   0.46042   0.83334   0.00000  Uiso   1.00
O1579  O     0.22679   0.53958   0.83334   0.00000  Uiso   1.00
O1580  O     0.10655   0.46042   0.83333   0.00000  Uiso   1.00
O1581  O     0.16667   0.53959   0.76280   0.00000  Uiso   1.00
O1582  O     0.16667   0.46041   0.90387   0.00000  Uiso   1.00
O1583  O     0.16667   0.53959   0.90387   0.00000  Uiso   1.00
O1584  O     0.16667   0.46041   0.76280   0.00000  Uiso   1.00
C1585  C     0.42090   0.50091   0.82883   0.00000  Uiso   1.00
C1586  C     0.35481   0.54803   0.82490   0.00000  Uiso   1.00
C1587  C     0.62483   0.50254   0.83094   0.00000  Uiso   1.00
C1588  C     0.37651   0.50437   0.82102   0.00000  Uiso   1.00
C1589  C     0.48423   0.35832   0.79457   0.00000  Uiso   1.00
C1590  C     0.51567   0.64171   0.87211   0.00000  Uiso   1.00
C1591  C     0.51550   0.35797   0.87218   0.00000  Uiso   1.00
C1592  C     0.48431   0.64205   0.79452   0.00000  Uiso   1.00
C1593  C     0.37346   0.42494   0.77828   0.00000  Uiso   1.00
C1594  C     0.34774   0.41715   0.73194   0.00000  Uiso   1.00
C1595  C     0.36342   0.37509   0.70261   0.00000  Uiso   1.00
C1596  C     0.57966   0.50030   0.83360   0.00000  Uiso   1.00
C1597  C     0.62211   0.59458   0.82445   0.00000  Uiso   1.00
C1598  C     0.60873   0.60354   0.77093   0.00000  Uiso   1.00
C1599  C     0.59340   0.65343   0.76319   0.00000  Uiso   1.00
C1600  C     0.63295   0.41280   0.84533   0.00000  Uiso   1.00
C1601  C     0.62542   0.41330   0.90112   0.00000  Uiso   1.00
C1602  C     0.61869   0.36394   0.92116   0.00000  Uiso   1.00
C1603  C     0.37647   0.59577   0.82678   0.00000  Uiso   1.00
C1604  C     0.38367   0.60991   0.88084   0.00000  Uiso   1.00
C1605  C     0.40012   0.65938   0.88626   0.00000  Uiso   1.00
C1606  C     0.50002   0.50000   0.74018   0.00000  Uiso   1.00
C1607  C     0.50002   0.49999   0.92649   0.00000  Uiso   1.00
C1608  C     0.50003   0.50000   0.68851   0.00000  Uiso   1.00
C1609  C     0.50003   0.49999   0.97816   0.00000  Uiso   1.00
C1610  C     0.35508   0.46315   0.81115   0.00000  Uiso   1.00
C1611  C     0.64515   0.54725   0.82765   0.00000  Uiso   1.00
C1612  C     0.64817   0.46033   0.82753   0.00000  Uiso   1.00
Cu1613 Cu    0.50000   0.54689   0.83333   0.00000  Uiso   1.00
Cu1614 Cu    0.50000   0.45311   0.83333   0.00000  Uiso   1.00
H1615  H     0.47119   0.37704   0.76371   0.00000  Uiso   1.00
H1616  H     0.40366   0.43520   0.76430   0.00000  Uiso   1.00
H1617  H     0.37813   0.39178   0.79879   0.00000  Uiso   1.00
H1618  H     0.57026   0.66281   0.79101   0.00000  Uiso   1.00
H1619  H     0.61922   0.34432   0.76615   0.00000  Uiso   1.00
H1620  H     0.57992   0.65700   0.72594   0.00000  Uiso   1.00
H1621  H     0.63489   0.59761   0.74587   0.00000  Uiso   1.00
H1622  H     0.58462   0.57881   0.75982   0.00000  Uiso   1.00
H1623  H     0.59769   0.59868   0.85178   0.00000  Uiso   1.00
H1624  H     0.63908   0.62492   0.83817   0.00000  Uiso   1.00
H1625  H     0.59617   0.34500   0.89862   0.00000  Uiso   1.00
H1626  H     0.52854   0.62302   0.90308   0.00000  Uiso   1.00
H1627  H     0.64753   0.34370   0.92082   0.00000  Uiso   1.00
H1628  H     0.60760   0.36601   0.95962   0.00000  Uiso   1.00
H1629  H     0.65203   0.42855   0.92031   0.00000  Uiso   1.00
H1630  H     0.59850   0.43533   0.90995   0.00000  Uiso   1.00
H1631  H     0.60592   0.40132   0.82486   0.00000  Uiso   1.00
H1632  H     0.65529   0.38466   0.83804   0.00000  Uiso   1.00
H1633  H     0.42798   0.66355   0.86440   0.00000  Uiso   1.00
H1634  H     0.37734   0.35221   0.87410   0.00000  Uiso   1.00
H1635  H     0.40734   0.66628   0.92546   0.00000  Uiso   1.00
H1636  H     0.35481   0.60775   0.90167   0.00000  Uiso   1.00
H1637  H     0.52792   0.37646   0.90334   0.00000  Uiso   1.00
H1638  H     0.40529   0.58504   0.89852   0.00000  Uiso   1.00
H1639  H     0.40408   0.59737   0.80410   0.00000  Uiso   1.00
H1640  H     0.36043   0.62367   0.80610   0.00000  Uiso   1.00
H1641  H     0.47141   0.62364   0.76358   0.00000  Uiso   1.00
H1642  H     0.39550   0.38041   0.69177   0.00000  Uiso   1.00
H1643  H     0.36117   0.34251   0.72480   0.00000  Uiso   1.00
H1644  H     0.34497   0.37091   0.66884   0.00000  Uiso   1.00
H1645  H     0.64888   0.41135   0.74147   0.00000  Uiso   1.00
H1646  H     0.34896   0.44901   0.70841   0.00000  Uiso   1.00
N1647  N     0.50000   0.61736   0.83333   0.00000  Uiso   1.00
N1648  N     0.50000   0.38264   0.83333   0.00000  Uiso   1.00
O1649  O     0.43988   0.53958   0.83333   0.00000  Uiso   1.00
O1650  O     0.56012   0.46042   0.83334   0.00000  Uiso   1.00
O1651  O     0.56012   0.53958   0.83334   0.00000  Uiso   1.00
O1652  O     0.43988   0.46042   0.83333   0.00000  Uiso   1.00
O1653  O     0.50000   0.53959   0.76280   0.00000  Uiso   1.00
O1654  O     0.50000   0.46041   0.90387   0.00000  Uiso   1.00
O1655  O     0.50000   0.53959   0.90387   0.00000  Uiso   1.00
O1656  O     0.50000   0.46041   0.76280   0.00000  Uiso   1.00
C1657  C     0.75423   0.50091   0.82883   0.00000  Uiso   1.00
C1658  C     0.68814   0.54803   0.82490   0.00000  Uiso   1.00
C1659  C     0.95816   0.50254   0.83094   0.00000  Uiso   1.00
C1660  C     0.70984   0.50437   0.82102   0.00000  Uiso   1.00
C1661  C     0.81756   0.35832   0.79457   0.00000  Uiso   1.00
C1662  C     0.84901   0.64171   0.87211   0.00000  Uiso   1.00
C1663  C     0.84884   0.35797   0.87218   0.00000  Uiso   1.00
C1664  C     0.81764   0.64205   0.79452   0.00000  Uiso   1.00
C1665  C     0.70679   0.42494   0.77828   0.00000  Uiso   1.00
C1666  C     0.68107   0.41715   0.73194   0.00000  Uiso   1.00
C1667  C     0.69675   0.37509   0.70261   0.00000  Uiso   1.00
C1668  C     0.91299   0.50030   0.83360   0.00000  Uiso   1.00
C1669  C     0.95545   0.59458   0.82445   0.00000  Uiso   1.00
C1670  C     0.94206   0.60354   0.77093   0.00000  Uiso   1.00
C1671  C     0.92673   0.65343   0.76319   0.00000  Uiso   1.00
C1672  C     0.96629   0.41280   0.84533   0.00000  Uiso   1.00
C1673  C     0.95876   0.41330   0.90112   0.00000  Uiso   1.00
C1674  C     0.95203   0.36394   0.92116   0.00000  Uiso   1.00
C1675  C     0.70981   0.59577   0.82678   0.00000  Uiso   1.00
C1676  C     0.71700   0.60991   0.88084   0.00000  Uiso   1.00
C1677  C     0.73346   0.65938   0.88626   0.00000  Uiso   1.00
C1678  C     0.83335   0.50000   0.74018   0.00000  Uiso   1.00
C1679  C     0.83335   0.49999   0.92649   0.00000  Uiso   1.00
C1680  C     0.83336   0.50000   0.68851   0.00000  Uiso   1.00
C1681  C     0.83336   0.49999   0.97816   0.00000  Uiso   1.00
C1682  C     0.68841   0.46315   0.81115   0.00000  Uiso   1.00
C1683  C     0.97848   0.54725   0.82765   0.00000  Uiso   1.00
C1684  C     0.98151   0.46033   0.82753   0.00000  Uiso   1.00
Cu1685 Cu    0.83333   0.54689   0.83333   0.00000  Uiso   1.00
Cu1686 Cu    0.83333   0.45311   0.83333   0.00000  Uiso   1.00
H1687  H     0.80453   0.37704   0.76371   0.00000  Uiso   1.00
H1688  H     0.73699   0.43520   0.76430   0.00000  Uiso   1.00
H1689  H     0.71147   0.39178   0.79879   0.00000  Uiso   1.00
H1690  H     0.90359   0.66281   0.79101   0.00000  Uiso   1.00
H1691  H     0.95256   0.34432   0.76615   0.00000  Uiso   1.00
H1692  H     0.91325   0.65700   0.72594   0.00000  Uiso   1.00
H1693  H     0.96823   0.59761   0.74587   0.00000  Uiso   1.00
H1694  H     0.91795   0.57881   0.75982   0.00000  Uiso   1.00
H1695  H     0.93103   0.59868   0.85178   0.00000  Uiso   1.00
H1696  H     0.97242   0.62492   0.83817   0.00000  Uiso   1.00
H1697  H     0.92950   0.34500   0.89862   0.00000  Uiso   1.00
H1698  H     0.86188   0.62302   0.90308   0.00000  Uiso   1.00
H1699  H     0.98086   0.34370   0.92082   0.00000  Uiso   1.00
H1700  H     0.94094   0.36601   0.95962   0.00000  Uiso   1.00
H1701  H     0.98536   0.42855   0.92031   0.00000  Uiso   1.00
H1702  H     0.93183   0.43533   0.90995   0.00000  Uiso   1.00
H1703  H     0.93925   0.40132   0.82486   0.00000  Uiso   1.00
H1704  H     0.98862   0.38466   0.83804   0.00000  Uiso   1.00
H1705  H     0.76131   0.66355   0.86440   0.00000  Uiso   1.00
H1706  H     0.71067   0.35221   0.87410   0.00000  Uiso   1.00
H1707  H     0.74067   0.66628   0.92546   0.00000  Uiso   1.00
H1708  H     0.68815   0.60775   0.90167   0.00000  Uiso   1.00
H1709  H     0.86125   0.37646   0.90334   0.00000  Uiso   1.00
H1710  H     0.73862   0.58504   0.89852   0.00000  Uiso   1.00
H1711  H     0.73741   0.59737   0.80410   0.00000  Uiso   1.00
H1712  H     0.69376   0.62367   0.80610   0.00000  Uiso   1.00
H1713  H     0.80474   0.62364   0.76358   0.00000  Uiso   1.00
H1714  H     0.72883   0.38041   0.69177   0.00000  Uiso   1.00
H1715  H     0.69450   0.34251   0.72480   0.00000  Uiso   1.00
H1716  H     0.67830   0.37091   0.66884   0.00000  Uiso   1.00
H1717  H     0.98221   0.41135   0.74147   0.00000  Uiso   1.00
H1718  H     0.68229   0.44901   0.70841   0.00000  Uiso   1.00
N1719  N     0.83333   0.61736   0.83333   0.00000  Uiso   1.00
N1720  N     0.83333   0.38264   0.83333   0.00000  Uiso   1.00
O1721  O     0.77321   0.53958   0.83333   0.00000  Uiso   1.00
O1722  O     0.89345   0.46042   0.83334   0.00000  Uiso   1.00
O1723  O     0.89345   0.53958   0.83334   0.00000  Uiso   1.00
O1724  O     0.77321   0.46042   0.83333   0.00000  Uiso   1.00
O1725  O     0.83333   0.53959   0.76280   0.00000  Uiso   1.00
O1726  O     0.83333   0.46041   0.90387   0.00000  Uiso   1.00
O1727  O     0.83333   0.53959   0.90387   0.00000  Uiso   1.00
O1728  O     0.83333   0.46041   0.76280   0.00000  Uiso   1.00
C1729  C     0.08756   0.83425   0.82883   0.00000  Uiso   1.00
C1730  C     0.02147   0.88136   0.82490   0.00000  Uiso   1.00
C1731  C     0.29150   0.83588   0.83094   0.00000  Uiso   1.00
C1732  C     0.04317   0.83770   0.82102   0.00000  Uiso   1.00
C1733  C     0.15089   0.69166   0.79457   0.00000  Uiso   1.00
C1734  C     0.18234   0.97504   0.87211   0.00000  Uiso   1.00
C1735  C     0.18217   0.69130   0.87218   0.00000  Uiso   1.00
C1736  C     0.15098   0.97538   0.79452   0.00000  Uiso   1.00
C1737  C     0.04013   0.75827   0.77828   0.00000  Uiso   1.00
C1738  C     0.01441   0.75048   0.73194   0.00000  Uiso   1.00
C1739  C     0.03009   0.70843   0.70261   0.00000  Uiso   1.00
C1740  C     0.24633   0.83364   0.83360   0.00000  Uiso   1.00
C1741  C     0.28878   0.92792   0.82445   0.00000  Uiso   1.00
C1742  C     0.27539   0.93687   0.77093   0.00000  Uiso   1.00
C1743  C     0.26006   0.98677   0.76319   0.00000  Uiso   1.00
C1744  C     0.29962   0.74613   0.84533   0.00000  Uiso   1.00
C1745  C     0.29209   0.74663   0.90112   0.00000  Uiso   1.00
C1746  C     0.28536   0.69727   0.92116   0.00000  Uiso   1.00
C1747  C     0.04314   0.92911   0.82678   0.00000  Uiso   1.00
C1748  C     0.05034   0.94324   0.88084   0.00000  Uiso   1.00
C1749  C     0.06679   0.99272   0.88626   0.00000  Uiso   1.00
C1750  C     0.16669   0.83334   0.74018   0.00000  Uiso   1.00
C1751  C     0.16669   0.83333   0.92649   0.00000  Uiso   1.00
C1752  C     0.16669   0.83334   0.68851   0.00000  Uiso   1.00
C1753  C     0.16670   0.83332   0.97816   0.00000  Uiso   1.00
C1754  C     0.02174   0.79649   0.81115   0.00000  Uiso   1.00
C1755  C     0.31181   0.88059   0.82765   0.00000  Uiso   1.00
C1756  C     0.31484   0.79366   0.82753   0.00000  Uiso   1.00
Cu1757 Cu    0.16667   0.88022   0.83333   0.00000  Uiso   1.00
Cu1758 Cu    0.16667   0.78645   0.83333   0.00000  Uiso   1.00
H1759  H     0.13786   0.71037   0.76371   0.00000  Uiso   1.00
H1760  H     0.07032   0.76853   0.76430   0.00000  Uiso   1.00
H1761  H     0.04480   0.72511   0.79879   0.00000  Uiso   1.00
H1762  H     0.23693   0.99614   0.79101   0.00000  Uiso   1.00
H1763  H     0.28589   0.67765   0.76615   0.00000  Uiso   1.00
H1764  H     0.24659   0.99034   0.72594   0.00000  Uiso   1.00
H1765  H     0.30156   0.93094   0.74587   0.00000  Uiso   1.00
H1766  H     0.25129   0.91214   0.75982   0.00000  Uiso   1.00
H1767  H     0.26436   0.93201   0.85178   0.00000  Uiso   1.00
H1768  H     0.30575   0.95825   0.83817   0.00000  Uiso   1.00
H1769  H     0.26283   0.67833   0.89862   0.00000  Uiso   1.00
H1770  H     0.19521   0.95635   0.90308   0.00000  Uiso   1.00
H1771  H     0.31419   0.67703   0.92082   0.00000  Uiso   1.00
H1772  H     0.27427   0.69934   0.95962   0.00000  Uiso   1.00
H1773  H     0.31869   0.76188   0.92031   0.00000  Uiso   1.00
H1774  H     0.26516   0.76866   0.90995   0.00000  Uiso   1.00
H1775  H     0.27258   0.73465   0.82486   0.00000  Uiso   1.00
H1776  H     0.32195   0.71799   0.83804   0.00000  Uiso   1.00
H1777  H     0.09465   0.99688   0.86440   0.00000  Uiso   1.00
H1778  H     0.04401   0.68554   0.87410   0.00000  Uiso   1.00
H1779  H     0.07401   0.99961   0.92546   0.00000  Uiso   1.00
H1780  H     0.02148   0.94109   0.90167   0.00000  Uiso   1.00
H1781  H     0.19458   0.70979   0.90334   0.00000  Uiso   1.00
H1782  H     0.07196   0.91837   0.89852   0.00000  Uiso   1.00
H1783  H     0.07074   0.93071   0.80410   0.00000  Uiso   1.00
H1784  H     0.02710   0.95701   0.80610   0.00000  Uiso   1.00
H1785  H     0.13808   0.95697   0.76358   0.00000  Uiso   1.00
H1786  H     0.06217   0.71374   0.69177   0.00000  Uiso   1.00
H1787  H     0.02784   0.67584   0.72480   0.00000  Uiso   1.00
H1788  H     0.01163   0.70424   0.66884   0.00000  Uiso   1.00
H1789  H     0.31554   0.74468   0.74147   0.00000  Uiso   1.00
H1790  H     0.01563   0.78235   0.70841   0.00000  Uiso   1.00
N1791  N     0.16667   0.95069   0.83333   0.00000  Uiso   1.00
N1792  N     0.16667   0.71598   0.83333   0.00000  Uiso   1.00
O1793  O     0.10655   0.87291   0.83333   0.00000  Uiso   1.00
O1794  O     0.22679   0.79375   0.83334   0.00000  Uiso   1.00
O1795  O     0.22679   0.87291   0.83334   0.00000  Uiso   1.00
O1796  O     0.10655   0.79375   0.83333   0.00000  Uiso   1.00
O1797  O     0.16667   0.87292   0.76280   0.00000  Uiso   1.00
O1798  O     0.16667   0.79375   0.90387   0.00000  Uiso   1.00
O1799  O     0.16667   0.87292   0.90387   0.00000  Uiso   1.00
O1800  O     0.16667   0.79375   0.76280   0.00000  Uiso   1.00
C1801  C     0.42090   0.83425   0.82883   0.00000  Uiso   1.00
C1802  C     0.35481   0.88136   0.82490   0.00000  Uiso   1.00
C1803  C     0.62483   0.83588   0.83094   0.00000  Uiso   1.00
C1804  C     0.37651   0.83770   0.82102   0.00000  Uiso   1.00
C1805  C     0.48423   0.69166   0.79457   0.00000  Uiso   1.00
C1806  C     0.51567   0.97504   0.87211   0.00000  Uiso   1.00
C1807  C     0.51550   0.69130   0.87218   0.00000  Uiso   1.00
C1808  C     0.48431   0.97538   0.79452   0.00000  Uiso   1.00
C1809  C     0.37346   0.75827   0.77828   0.00000  Uiso   1.00
C1810  C     0.34774   0.75048   0.73194   0.00000  Uiso   1.00
C1811  C     0.36342   0.70843   0.70261   0.00000  Uiso   1.00
C1812  C     0.57966   0.83364   0.83360   0.00000  Uiso   1.00
C1813  C     0.62211   0.92792   0.82445   0.00000  Uiso   1.00
C1814  C     0.60873   0.93687   0.77093   0.00000  Uiso   1.00
C1815  C     0.59340   0.98677   0.76319   0.00000  Uiso   1.00
C1816  C     0.63295   0.74613   0.84533   0.00000  Uiso   1.00
C1817  C     0.62542   0.74663   0.90112   0.00000  Uiso   1.00
C1818  C     0.61869   0.69727   0.92116   0.00000  Uiso   1.00
C1819  C     0.37647   0.92911   0.82678   0.00000  Uiso   1.00
C1820  C     0.38367   0.94324   0.88084   0.00000  Uiso   1.00
C1821  C     0.40012   0.99272   0.88626   0.00000  Uiso   1.00
C1822  C     0.50002   0.83334   0.74018   0.00000  Uiso   1.00
C1823  C     0.50002   0.83333   0.92649   0.00000  Uiso   1.00
C1824  C     0.50003   0.83334   0.68851   0.00000  Uiso   1.00
C1825  C     0.50003   0.83332   0.97816   0.00000  Uiso   1.00
C1826  C     0.35508   0.79649   0.81115   0.00000  Uiso   1.00
C1827  C     0.64515   0.88059   0.82765   0.00000  Uiso   1.00
C1828  C     0.64817   0.79366   0.82753   0.00000  Uiso   1.00
Cu1829 Cu    0.50000   0.88022   0.83333   0.00000  Uiso   1.00
Cu1830 Cu    0.50000   0.78645   0.83333   0.00000  Uiso   1.00
H1831  H     0.47119   0.71037   0.76371   0.00000  Uiso   1.00
H1832  H     0.40366   0.76853   0.76430   0.00000  Uiso   1.00
H1833  H     0.37813   0.72511   0.79879   0.00000  Uiso   1.00
H1834  H     0.57026   0.99614   0.79101   0.00000  Uiso   1.00
H1835  H     0.61922   0.67765   0.76615   0.00000  Uiso   1.00
H1836  H     0.57992   0.99034   0.72594   0.00000  Uiso   1.00
H1837  H     0.63489   0.93094   0.74587   0.00000  Uiso   1.00
H1838  H     0.58462   0.91214   0.75982   0.00000  Uiso   1.00
H1839  H     0.59769   0.93201   0.85178   0.00000  Uiso   1.00
H1840  H     0.63908   0.95825   0.83817   0.00000  Uiso   1.00
H1841  H     0.59617   0.67833   0.89862   0.00000  Uiso   1.00
H1842  H     0.52854   0.95635   0.90308   0.00000  Uiso   1.00
H1843  H     0.64753   0.67703   0.92082   0.00000  Uiso   1.00
H1844  H     0.60760   0.69934   0.95962   0.00000  Uiso   1.00
H1845  H     0.65203   0.76188   0.92031   0.00000  Uiso   1.00
H1846  H     0.59850   0.76866   0.90995   0.00000  Uiso   1.00
H1847  H     0.60592   0.73465   0.82486   0.00000  Uiso   1.00
H1848  H     0.65529   0.71799   0.83804   0.00000  Uiso   1.00
H1849  H     0.42798   0.99688   0.86440   0.00000  Uiso   1.00
H1850  H     0.37734   0.68554   0.87410   0.00000  Uiso   1.00
H1851  H     0.40734   0.99961   0.92546   0.00000  Uiso   1.00
H1852  H     0.35481   0.94109   0.90167   0.00000  Uiso   1.00
H1853  H     0.52792   0.70979   0.90334   0.00000  Uiso   1.00
H1854  H     0.40529   0.91837   0.89852   0.00000  Uiso   1.00
H1855  H     0.40408   0.93071   0.80410   0.00000  Uiso   1.00
H1856  H     0.36043   0.95701   0.80610   0.00000  Uiso   1.00
H1857  H     0.47141   0.95697   0.76358   0.00000  Uiso   1.00
H1858  H     0.39550   0.71374   0.69177   0.00000  Uiso   1.00
H1859  H     0.36117   0.67584   0.72480   0.00000  Uiso   1.00
H1860  H     0.34497   0.70424   0.66884   0.00000  Uiso   1.00
H1861  H     0.64888   0.74468   0.74147   0.00000  Uiso   1.00
H1862  H     0.34896   0.78235   0.70841   0.00000  Uiso   1.00
N1863  N     0.50000   0.95069   0.83333   0.00000  Uiso   1.00
N1864  N     0.50000   0.71598   0.83333   0.00000  Uiso   1.00
O1865  O     0.43988   0.87291   0.83333   0.00000  Uiso   1.00
O1866  O     0.56012   0.79375   0.83334   0.00000  Uiso   1.00
O1867  O     0.56012   0.87291   0.83334   0.00000  Uiso   1.00
O1868  O     0.43988   0.79375   0.83333   0.00000  Uiso   1.00
O1869  O     0.50000   0.87292   0.76280   0.00000  Uiso   1.00
O1870  O     0.50000   0.79375   0.90387   0.00000  Uiso   1.00
O1871  O     0.50000   0.87292   0.90387   0.00000  Uiso   1.00
O1872  O     0.50000   0.79375   0.76280   0.00000  Uiso   1.00
C1873  C     0.75423   0.83425   0.82883   0.00000  Uiso   1.00
C1874  C     0.68814   0.88136   0.82490   0.00000  Uiso   1.00
C1875  C     0.95816   0.83588   0.83094   0.00000  Uiso   1.00
C1876  C     0.70984   0.83770   0.82102   0.00000  Uiso   1.00
C1877  C     0.81756   0.69166   0.79457   0.00000  Uiso   1.00
C1878  C     0.84901   0.97504   0.87211   0.00000  Uiso   1.00
C1879  C     0.84884   0.69130   0.87218   0.00000  Uiso   1.00
C1880  C     0.81764   0.97538   0.79452   0.00000  Uiso   1.00
C1881  C     0.70679   0.75827   0.77828   0.00000  Uiso   1.00
C1882  C     0.68107   0.75048   0.73194   0.00000  Uiso   1.00
C1883  C     0.69675   0.70843   0.70261   0.00000  Uiso   1.00
C1884  C     0.91299   0.83364   0.83360   0.00000  Uiso   1.00
C1885  C     0.95545   0.92792   0.82445   0.00000  Uiso   1.00
C1886  C     0.94206   0.93687   0.77093   0.00000  Uiso   1.00
C1887  C     0.92673   0.98677   0.76319   0.00000  Uiso   1.00
C1888  C     0.96629   0.74613   0.84533   0.00000  Uiso   1.00
C1889  C     0.95876   0.74663   0.90112   0.00000  Uiso   1.00
C1890  C     0.95203   0.69727   0.92116   0.00000  Uiso   1.00
C1891  C     0.70981   0.92911   0.82678   0.00000  Uiso   1.00
C1892  C     0.71700   0.94324   0.88084   0.00000  Uiso   1.00
C1893  C     0.73346   0.99272   0.88626   0.00000  Uiso   1.00
C1894  C     0.83335   0.83334   0.74018   0.00000  Uiso   1.00
C1895  C     0.83335   0.83333   0.92649   0.00000  Uiso   1.00
C1896  C     0.83336   0.83334   0.68851   0.00000  Uiso   1.00
C1897  C     0.83336   0.83332   0.97816   0.00000  Uiso   1.00
C1898  C     0.68841   0.79649   0.81115   0.00000  Uiso   1.00
C1899  C     0.97848   0.88059   0.82765   0.00000  Uiso   1.00
C1900  C     0.98151   0.79366   0.82753   0.00000  Uiso   1.00
Cu1901 Cu    0.83333   0.88022   0.83333   0.00000  Uiso   1.00
Cu1902 Cu    0.83333   0.78645   0.83333   0.00000  Uiso   1.00
H1903  H     0.80453   0.71037   0.76371   0.00000  Uiso   1.00
H1904  H     0.73699   0.76853   0.76430   0.00000  Uiso   1.00
H1905  H     0.71147   0.72511   0.79879   0.00000  Uiso   1.00
H1906  H     0.90359   0.99614   0.79101   0.00000  Uiso   1.00
H1907  H     0.95256   0.67765   0.76615   0.00000  Uiso   1.00
H1908  H     0.91325   0.99034   0.72594   0.00000  Uiso   1.00
H1909  H     0.96823   0.93094   0.74587   0.00000  Uiso   1.00
H1910  H     0.91795   0.91214   0.75982   0.00000  Uiso   1.00
H1911  H     0.93103   0.93201   0.85178   0.00000  Uiso   1.00
H1912  H     0.97242   0.95825   0.83817   0.00000  Uiso   1.00
H1913  H     0.92950   0.67833   0.89862   0.00000  Uiso   1.00
H1914  H     0.86188   0.95635   0.90308   0.00000  Uiso   1.00
H1915  H     0.98086   0.67703   0.92082   0.00000  Uiso   1.00
H1916  H     0.94094   0.69934   0.95962   0.00000  Uiso   1.00
H1917  H     0.98536   0.76188   0.92031   0.00000  Uiso   1.00
H1918  H     0.93183   0.76866   0.90995   0.00000  Uiso   1.00
H1919  H     0.93925   0.73465   0.82486   0.00000  Uiso   1.00
H1920  H     0.98862   0.71799   0.83804   0.00000  Uiso   1.00
H1921  H     0.76131   0.99688   0.86440   0.00000  Uiso   1.00
H1922  H     0.71067   0.68554   0.87410   0.00000  Uiso   1.00
H1923  H     0.74067   0.99961   0.92546   0.00000  Uiso   1.00
H1924  H     0.68815   0.94109   0.90167   0.00000  Uiso   1.00
H1925  H     0.86125   0.70979   0.90334   0.00000  Uiso   1.00
H1926  H     0.73862   0.91837   0.89852   0.00000  Uiso   1.00
H1927  H     0.73741   0.93071   0.80410   0.00000  Uiso   1.00
H1928  H     0.69376   0.95701   0.80610   0.00000  Uiso   1.00
H1929  H     0.80474   0.95697   0.76358   0.00000  Uiso   1.00
H1930  H     0.72883   0.71374   0.69177   0.00000  Uiso   1.00
H1931  H     0.69450   0.67584   0.72480   0.00000  Uiso   1.00
H1932  H     0.67830   0.70424   0.66884   0.00000  Uiso   1.00
H1933  H     0.98221   0.74468   0.74147   0.00000  Uiso   1.00
H1934  H     0.68229   0.78235   0.70841   0.00000  Uiso   1.00
N1935  N     0.83333   0.95069   0.83333   0.00000  Uiso   1.00
N1936  N     0.83333   0.71598   0.83333   0.00000  Uiso   1.00
O1937  O     0.77321   0.87291   0.83333   0.00000  Uiso   1.00
O1938  O     0.89345   0.79375   0.83334   0.00000  Uiso   1.00
O1939  O     0.89345   0.87291   0.83334   0.00000  Uiso   1.00
O1940  O     0.77321   0.79375   0.83333   0.00000  Uiso   1.00
O1941  O     0.83333   0.87292   0.76280   0.00000  Uiso   1.00
O1942  O     0.83333   0.79375   0.90387   0.00000  Uiso   1.00
O1943  O     0.83333   0.87292   0.90387   0.00000  Uiso   1.00
O1944  O     0.83333   0.79375   0.76280   0.00000  Uiso   1.00
loop_
_geom_bond_atom_site_label_1
_geom_bond_atom_site_label_2
_geom_bond_distance
_geom_bond_site_symmetry_2
_ccdc_geom_bond_type
C1     C4      1.481   .     S
C1     O68     1.313   .     A
C1     O65     1.278   .     A
C2     C4      1.434   .     A
C2     C19     1.544   .     S
C2     C171    1.420   1_455 S
C3     C27     1.448   .     A
C3     C28     1.425   .     A
C3     C12     1.494   .     S
C4     C26     1.402   .     A
C5     N64     1.367   .     A
C5     H31     1.081   .     S
C5     C440    1.414   1_545 S
C6     N63     1.367   .     A
C6     H42     1.081   .     S
C6     C223    1.413   .     S
C7     N64     1.365   .     A
C7     H53     1.080   .     S
C7     C438    1.413   1_545 S
C8     H57     1.081   .     S
C8     N63     1.367   .     A
C8     C221    1.414   .     S
C9     C10     1.536   .     S
C9     H33     1.107   .     S
C9     C26     1.531   .     S
C9     H32     1.109   .     S
C10    H62     1.112   .     S
C10    C11     1.527   .     S
C10    H205    1.107   1_455 S
C11    H58     1.111   .     S
C11    H60     1.108   .     S
C11    H59     1.111   .     S
C12    O67     1.286   .     A
C12    O66     1.312   .     A
C13    H39     1.103   .     S
C13    C27     1.544   .     S
C13    H40     1.099   .     S
C13    C14     1.542   .     S
C14    H38     1.109   .     S
C14    H37     1.112   .     S
C14    C15     1.519   .     S
C15    H36     1.110   .     S
C15    H34     1.107   .     S
C15    H251    1.104   .     S
C16    C28     1.528   .     S
C16    H48     1.102   .     S
C16    H47     1.103   .     S
C16    C17     1.539   .     S
C17    C18     1.527   .     S
C17    H46     1.110   .     S
C17    H45     1.112   .     S
C18    H44     1.110   .     S
C18    H43     1.108   .     S
C18    H41     1.107   .     S
C19    H56     1.104   .     S
C19    C20     1.544   .     S
C19    H55     1.102   .     S
C20    H54     1.110   .     S
C20    H52     1.111   .     S
C20    C21     1.523   .     S
C21    H49     1.103   .     S
C21    H51     1.111   .     S
C21    H266    1.104   .     S
C22    O69     1.285   .     A
C22    O72     1.285   .     A
C22    C24     1.406   .     S
C23    O70     1.285   .     A
C23    C25     1.406   .     S
C23    O71     1.285   .     A
C24    C1321   1.189   1_554 S
C25    C672    1.189   .     S
C26    C172    1.404   1_455 S
C27    C74     1.420   .     S
C28    C98     1.404   .     S
Cu29   N63     2.008   .     S
Cu29   O65     1.996   .     S
Cu29   Cu30    2.672   .     S
Cu29   O69     1.931   .     S
Cu29   O67     1.992   .     S
Cu29   O71     1.930   .     S
Cu30   O68     1.992   .     S
Cu30   O66     1.996   .     S
Cu30   O70     1.931   .     S
Cu30   N64     2.008   .     S
Cu30   O72     1.930   .     S
H35    C447    1.104   1_545 S
H50    C453    1.104   1_545 S
H61    C82     1.107   .     S
C73    C76     1.481   .     S
C73    O140    1.313   .     A
C73    O137    1.278   .     A
C74    C76     1.434   .     A
C74    C91     1.544   .     S
C75    C99     1.448   .     A
C75    C100    1.425   .     A
C75    C84     1.494   .     S
C76    C98     1.402   .     A
C77    N136    1.367   .     A
C77    H103    1.081   .     S
C77    C512    1.414   1_545 S
C78    N135    1.367   .     A
C78    H114    1.081   .     S
C78    C295    1.413   .     S
C79    N136    1.365   .     A
C79    H125    1.080   .     S
C79    C510    1.413   1_545 S
C80    H129    1.081   .     S
C80    N135    1.367   .     A
C80    C293    1.414   .     S
C81    C82     1.536   .     S
C81    H105    1.107   .     S
C81    C98     1.531   .     S
C81    H104    1.109   .     S
C82    H134    1.112   .     S
C82    C83     1.527   .     S
C83    H130    1.111   .     S
C83    H132    1.108   .     S
C83    H131    1.111   .     S
C84    O139    1.286   .     A
C84    O138    1.312   .     A
C85    H111    1.103   .     S
C85    C99     1.544   .     S
C85    H112    1.099   .     S
C85    C86     1.542   .     S
C86    H110    1.109   .     S
C86    H109    1.112   .     S
C86    C87     1.519   .     S
C87    H108    1.110   .     S
C87    H106    1.107   .     S
C87    H323    1.104   .     S
C88    C100    1.528   .     S
C88    H120    1.102   .     S
C88    H119    1.103   .     S
C88    C89     1.539   .     S
C89    C90     1.527   .     S
C89    H118    1.110   .     S
C89    H117    1.112   .     S
C90    H116    1.110   .     S
C90    H115    1.108   .     S
C90    H113    1.107   .     S
C91    H128    1.104   .     S
C91    C92     1.544   .     S
C91    H127    1.102   .     S
C92    H126    1.110   .     S
C92    H124    1.111   .     S
C92    C93     1.523   .     S
C93    H121    1.103   .     S
C93    H123    1.111   .     S
C93    H338    1.104   .     S
C94    O141    1.285   .     A
C94    O144    1.285   .     A
C94    C96     1.406   .     S
C95    O142    1.285   .     A
C95    C97     1.406   .     S
C95    O143    1.285   .     A
C96    C1393   1.189   1_554 S
C97    C744    1.189   .     S
C99    C146    1.420   .     S
C100   C170    1.404   .     S
Cu101  N135    2.008   .     S
Cu101  O137    1.996   .     S
Cu101  Cu102   2.672   .     S
Cu101  O141    1.931   .     S
Cu101  O139    1.992   .     S
Cu101  O143    1.930   .     S
Cu102  O140    1.992   .     S
Cu102  O138    1.996   .     S
Cu102  O142    1.931   .     S
Cu102  N136    2.008   .     S
Cu102  O144    1.930   .     S
H107   C519    1.104   1_545 S
H122   C525    1.104   1_545 S
H133   C154    1.107   .     S
C145   C148    1.481   .     S
C145   O212    1.313   .     A
C145   O209    1.278   .     A
C146   C148    1.434   .     A
C146   C163    1.544   .     S
C147   C171    1.448   .     A
C147   C172    1.425   .     A
C147   C156    1.494   .     S
C148   C170    1.402   .     A
C149   N208    1.367   .     A
C149   H175    1.081   .     S
C149   C584    1.414   1_545 S
C150   N207    1.367   .     A
C150   H186    1.081   .     S
C150   C367    1.413   .     S
C151   N208    1.365   .     A
C151   H197    1.080   .     S
C151   C582    1.413   1_545 S
C152   H201    1.081   .     S
C152   N207    1.367   .     A
C152   C365    1.414   .     S
C153   C154    1.536   .     S
C153   H177    1.107   .     S
C153   C170    1.531   .     S
C153   H176    1.109   .     S
C154   H206    1.112   .     S
C154   C155    1.527   .     S
C155   H202    1.111   .     S
C155   H204    1.108   .     S
C155   H203    1.111   .     S
C156   O211    1.286   .     A
C156   O210    1.312   .     A
C157   H183    1.103   .     S
C157   C171    1.544   .     S
C157   H184    1.099   .     S
C157   C158    1.542   .     S
C158   H182    1.109   .     S
C158   H181    1.112   .     S
C158   C159    1.519   .     S
C159   H180    1.110   .     S
C159   H178    1.107   .     S
C159   H395    1.104   .     S
C160   C172    1.528   .     S
C160   H192    1.102   .     S
C160   H191    1.103   .     S
C160   C161    1.539   .     S
C161   C162    1.527   .     S
C161   H190    1.110   .     S
C161   H189    1.112   .     S
C162   H188    1.110   .     S
C162   H187    1.108   .     S
C162   H185    1.107   .     S
C163   H200    1.104   .     S
C163   C164    1.544   .     S
C163   H199    1.102   .     S
C164   H198    1.110   .     S
C164   H196    1.111   .     S
C164   C165    1.523   .     S
C165   H193    1.103   .     S
C165   H195    1.111   .     S
C165   H410    1.104   .     S
C166   O213    1.285   .     A
C166   O216    1.285   .     A
C166   C168    1.406   .     S
C167   O214    1.285   .     A
C167   C169    1.406   .     S
C167   O215    1.285   .     A
C168   C1465   1.189   1_554 S
C169   C816    1.189   .     S
C171   C2      1.420   1_655 S
C172   C26     1.404   1_655 S
Cu173  N207    2.008   .     S
Cu173  O209    1.996   .     S
Cu173  Cu174   2.672   .     S
Cu173  O213    1.931   .     S
Cu173  O211    1.992   .     S
Cu173  O215    1.930   .     S
Cu174  O212    1.992   .     S
Cu174  O210    1.996   .     S
Cu174  O214    1.931   .     S
Cu174  N208    2.008   .     S
Cu174  O216    1.930   .     S
H179   C591    1.104   1_545 S
H194   C597    1.104   1_545 S
H205   C10     1.107   1_655 S
C217   C220    1.481   .     S
C217   O284    1.313   .     A
C217   O281    1.278   .     A
C218   C220    1.434   .     A
C218   C235    1.544   .     S
C218   C387    1.420   1_455 S
C219   C243    1.448   .     A
C219   C244    1.425   .     A
C219   C228    1.494   .     S
C220   C242    1.402   .     A
C221   N280    1.367   .     A
C221   H247    1.081   .     S
C222   N279    1.367   .     A
C222   H258    1.081   .     S
C222   C439    1.413   .     S
C223   N280    1.365   .     A
C223   H269    1.080   .     S
C224   H273    1.081   .     S
C224   N279    1.367   .     A
C224   C437    1.414   .     S
C225   C226    1.536   .     S
C225   H249    1.107   .     S
C225   C242    1.531   .     S
C225   H248    1.109   .     S
C226   H278    1.112   .     S
C226   C227    1.527   .     S
C226   H421    1.107   1_455 S
C227   H274    1.111   .     S
C227   H276    1.108   .     S
C227   H275    1.111   .     S
C228   O283    1.286   .     A
C228   O282    1.312   .     A
C229   H255    1.103   .     S
C229   C243    1.544   .     S
C229   H256    1.099   .     S
C229   C230    1.542   .     S
C230   H254    1.109   .     S
C230   H253    1.112   .     S
C230   C231    1.519   .     S
C231   H252    1.110   .     S
C231   H250    1.107   .     S
C231   H467    1.104   .     S
C232   C244    1.528   .     S
C232   H264    1.102   .     S
C232   H263    1.103   .     S
C232   C233    1.539   .     S
C233   C234    1.527   .     S
C233   H262    1.110   .     S
C233   H261    1.112   .     S
C234   H260    1.110   .     S
C234   H259    1.108   .     S
C234   H257    1.107   .     S
C235   H272    1.104   .     S
C235   C236    1.544   .     S
C235   H271    1.102   .     S
C236   H270    1.110   .     S
C236   H268    1.111   .     S
C236   C237    1.523   .     S
C237   H265    1.103   .     S
C237   H267    1.111   .     S
C237   H482    1.104   .     S
C238   O285    1.285   .     A
C238   O288    1.285   .     A
C238   C240    1.406   .     S
C239   O286    1.285   .     A
C239   C241    1.406   .     S
C239   O287    1.285   .     A
C240   C1537   1.189   1_554 S
C241   C888    1.189   .     S
C242   C388    1.404   1_455 S
C243   C290    1.420   .     S
C244   C314    1.404   .     S
Cu245  N279    2.008   .     S
Cu245  O281    1.996   .     S
Cu245  Cu246   2.672   .     S
Cu245  O285    1.931   .     S
Cu245  O283    1.992   .     S
Cu245  O287    1.930   .     S
Cu246  O284    1.992   .     S
Cu246  O282    1.996   .     S
Cu246  O286    1.931   .     S
Cu246  N280    2.008   .     S
Cu246  O288    1.930   .     S
H277   C298    1.107   .     S
C289   C292    1.481   .     S
C289   O356    1.313   .     A
C289   O353    1.278   .     A
C290   C292    1.434   .     A
C290   C307    1.544   .     S
C291   C315    1.448   .     A
C291   C316    1.425   .     A
C291   C300    1.494   .     S
C292   C314    1.402   .     A
C293   N352    1.367   .     A
C293   H319    1.081   .     S
C294   N351    1.367   .     A
C294   H330    1.081   .     S
C294   C511    1.413   .     S
C295   N352    1.365   .     A
C295   H341    1.080   .     S
C296   H345    1.081   .     S
C296   N351    1.367   .     A
C296   C509    1.414   .     S
C297   C298    1.536   .     S
C297   H321    1.107   .     S
C297   C314    1.531   .     S
C297   H320    1.109   .     S
C298   H350    1.112   .     S
C298   C299    1.527   .     S
C299   H346    1.111   .     S
C299   H348    1.108   .     S
C299   H347    1.111   .     S
C300   O355    1.286   .     A
C300   O354    1.312   .     A
C301   H327    1.103   .     S
C301   C315    1.544   .     S
C301   H328    1.099   .     S
C301   C302    1.542   .     S
C302   H326    1.109   .     S
C302   H325    1.112   .     S
C302   C303    1.519   .     S
C303   H324    1.110   .     S
C303   H322    1.107   .     S
C303   H539    1.104   .     S
C304   C316    1.528   .     S
C304   H336    1.102   .     S
C304   H335    1.103   .     S
C304   C305    1.539   .     S
C305   C306    1.527   .     S
C305   H334    1.110   .     S
C305   H333    1.112   .     S
C306   H332    1.110   .     S
C306   H331    1.108   .     S
C306   H329    1.107   .     S
C307   H344    1.104   .     S
C307   C308    1.544   .     S
C307   H343    1.102   .     S
C308   H342    1.110   .     S
C308   H340    1.111   .     S
C308   C309    1.523   .     S
C309   H337    1.103   .     S
C309   H339    1.111   .     S
C309   H554    1.104   .     S
C310   O357    1.285   .     A
C310   O360    1.285   .     A
C310   C312    1.406   .     S
C311   O358    1.285   .     A
C311   C313    1.406   .     S
C311   O359    1.285   .     A
C312   C1609   1.189   1_554 S
C313   C960    1.189   .     S
C315   C362    1.420   .     S
C316   C386    1.404   .     S
Cu317  N351    2.008   .     S
Cu317  O353    1.996   .     S
Cu317  Cu318   2.672   .     S
Cu317  O357    1.931   .     S
Cu317  O355    1.992   .     S
Cu317  O359    1.930   .     S
Cu318  O356    1.992   .     S
Cu318  O354    1.996   .     S
Cu318  O358    1.931   .     S
Cu318  N352    2.008   .     S
Cu318  O360    1.930   .     S
H349   C370    1.107   .     S
C361   C364    1.481   .     S
C361   O428    1.313   .     A
C361   O425    1.278   .     A
C362   C364    1.434   .     A
C362   C379    1.544   .     S
C363   C387    1.448   .     A
C363   C388    1.425   .     A
C363   C372    1.494   .     S
C364   C386    1.402   .     A
C365   N424    1.367   .     A
C365   H391    1.081   .     S
C366   N423    1.367   .     A
C366   H402    1.081   .     S
C366   C583    1.413   .     S
C367   N424    1.365   .     A
C367   H413    1.080   .     S
C368   H417    1.081   .     S
C368   N423    1.367   .     A
C368   C581    1.414   .     S
C369   C370    1.536   .     S
C369   H393    1.107   .     S
C369   C386    1.531   .     S
C369   H392    1.109   .     S
C370   H422    1.112   .     S
C370   C371    1.527   .     S
C371   H418    1.111   .     S
C371   H420    1.108   .     S
C371   H419    1.111   .     S
C372   O427    1.286   .     A
C372   O426    1.312   .     A
C373   H399    1.103   .     S
C373   C387    1.544   .     S
C373   H400    1.099   .     S
C373   C374    1.542   .     S
C374   H398    1.109   .     S
C374   H397    1.112   .     S
C374   C375    1.519   .     S
C375   H396    1.110   .     S
C375   H394    1.107   .     S
C375   H611    1.104   .     S
C376   C388    1.528   .     S
C376   H408    1.102   .     S
C376   H407    1.103   .     S
C376   C377    1.539   .     S
C377   C378    1.527   .     S
C377   H406    1.110   .     S
C377   H405    1.112   .     S
C378   H404    1.110   .     S
C378   H403    1.108   .     S
C378   H401    1.107   .     S
C379   H416    1.104   .     S
C379   C380    1.544   .     S
C379   H415    1.102   .     S
C380   H414    1.110   .     S
C380   H412    1.111   .     S
C380   C381    1.523   .     S
C381   H409    1.103   .     S
C381   H411    1.111   .     S
C381   H626    1.104   .     S
C382   O429    1.285   .     A
C382   O432    1.285   .     A
C382   C384    1.406   .     S
C383   O430    1.285   .     A
C383   C385    1.406   .     S
C383   O431    1.285   .     A
C384   C1681   1.189   1_554 S
C385   C1032   1.189   .     S
C387   C218    1.420   1_655 S
C388   C242    1.404   1_655 S
Cu389  N423    2.008   .     S
Cu389  O425    1.996   .     S
Cu389  Cu390   2.672   .     S
Cu389  O429    1.931   .     S
Cu389  O427    1.992   .     S
Cu389  O431    1.930   .     S
Cu390  O428    1.992   .     S
Cu390  O426    1.996   .     S
Cu390  O430    1.931   .     S
Cu390  N424    2.008   .     S
Cu390  O432    1.930   .     S
H421   C226    1.107   1_655 S
C433   C436    1.481   .     S
C433   O500    1.313   .     A
C433   O497    1.278   .     A
C434   C436    1.434   .     A
C434   C451    1.544   .     S
C434   C603    1.420   1_455 S
C435   C459    1.448   .     A
C435   C460    1.425   .     A
C435   C444    1.494   .     S
C436   C458    1.402   .     A
C437   N496    1.367   .     A
C437   H463    1.081   .     S
C438   N495    1.367   .     A
C438   H474    1.081   .     S
C438   C7      1.413   1_565 S
C439   N496    1.365   .     A
C439   H485    1.080   .     S
C440   H489    1.081   .     S
C440   N495    1.367   .     A
C440   C5      1.414   1_565 S
C441   C442    1.536   .     S
C441   H465    1.107   .     S
C441   C458    1.531   .     S
C441   H464    1.109   .     S
C442   H494    1.112   .     S
C442   C443    1.527   .     S
C442   H637    1.107   1_455 S
C443   H490    1.111   .     S
C443   H492    1.108   .     S
C443   H491    1.111   .     S
C444   O499    1.286   .     A
C444   O498    1.312   .     A
C445   H471    1.103   .     S
C445   C459    1.544   .     S
C445   H472    1.099   .     S
C445   C446    1.542   .     S
C446   H470    1.109   .     S
C446   H469    1.112   .     S
C446   C447    1.519   .     S
C447   H468    1.110   .     S
C447   H466    1.107   .     S
C447   H35     1.104   1_565 S
C448   C460    1.528   .     S
C448   H480    1.102   .     S
C448   H479    1.103   .     S
C448   C449    1.539   .     S
C449   C450    1.527   .     S
C449   H478    1.110   .     S
C449   H477    1.112   .     S
C450   H476    1.110   .     S
C450   H475    1.108   .     S
C450   H473    1.107   .     S
C451   H488    1.104   .     S
C451   C452    1.544   .     S
C451   H487    1.102   .     S
C452   H486    1.110   .     S
C452   H484    1.111   .     S
C452   C453    1.523   .     S
C453   H481    1.103   .     S
C453   H483    1.111   .     S
C453   H50     1.104   1_565 S
C454   O501    1.285   .     A
C454   O504    1.285   .     A
C454   C456    1.406   .     S
C455   O502    1.285   .     A
C455   C457    1.406   .     S
C455   O503    1.285   .     A
C456   C1753   1.189   1_554 S
C457   C1104   1.189   .     S
C458   C604    1.404   1_455 S
C459   C506    1.420   .     S
C460   C530    1.404   .     S
Cu461  N495    2.008   .     S
Cu461  O497    1.996   .     S
Cu461  Cu462   2.672   .     S
Cu461  O501    1.931   .     S
Cu461  O499    1.992   .     S
Cu461  O503    1.930   .     S
Cu462  O500    1.992   .     S
Cu462  O498    1.996   .     S
Cu462  O502    1.931   .     S
Cu462  N496    2.008   .     S
Cu462  O504    1.930   .     S
H493   C514    1.107   .     S
C505   C508    1.481   .     S
C505   O572    1.313   .     A
C505   O569    1.278   .     A
C506   C508    1.434   .     A
C506   C523    1.544   .     S
C507   C531    1.448   .     A
C507   C532    1.425   .     A
C507   C516    1.494   .     S
C508   C530    1.402   .     A
C509   N568    1.367   .     A
C509   H535    1.081   .     S
C510   N567    1.367   .     A
C510   H546    1.081   .     S
C510   C79     1.413   1_565 S
C511   N568    1.365   .     A
C511   H557    1.080   .     S
C512   H561    1.081   .     S
C512   N567    1.367   .     A
C512   C77     1.414   1_565 S
C513   C514    1.536   .     S
C513   H537    1.107   .     S
C513   C530    1.531   .     S
C513   H536    1.109   .     S
C514   H566    1.112   .     S
C514   C515    1.527   .     S
C515   H562    1.111   .     S
C515   H564    1.108   .     S
C515   H563    1.111   .     S
C516   O571    1.286   .     A
C516   O570    1.312   .     A
C517   H543    1.103   .     S
C517   C531    1.544   .     S
C517   H544    1.099   .     S
C517   C518    1.542   .     S
C518   H542    1.109   .     S
C518   H541    1.112   .     S
C518   C519    1.519   .     S
C519   H540    1.110   .     S
C519   H538    1.107   .     S
C519   H107    1.104   1_565 S
C520   C532    1.528   .     S
C520   H552    1.102   .     S
C520   H551    1.103   .     S
C520   C521    1.539   .     S
C521   C522    1.527   .     S
C521   H550    1.110   .     S
C521   H549    1.112   .     S
C522   H548    1.110   .     S
C522   H547    1.108   .     S
C522   H545    1.107   .     S
C523   H560    1.104   .     S
C523   C524    1.544   .     S
C523   H559    1.102   .     S
C524   H558    1.110   .     S
C524   H556    1.111   .     S
C524   C525    1.523   .     S
C525   H553    1.103   .     S
C525   H555    1.111   .     S
C525   H122    1.104   1_565 S
C526   O573    1.285   .     A
C526   O576    1.285   .     A
C526   C528    1.406   .     S
C527   O574    1.285   .     A
C527   C529    1.406   .     S
C527   O575    1.285   .     A
C528   C1825   1.189   1_554 S
C529   C1176   1.189   .     S
C531   C578    1.420   .     S
C532   C602    1.404   .     S
Cu533  N567    2.008   .     S
Cu533  O569    1.996   .     S
Cu533  Cu534   2.672   .     S
Cu533  O573    1.931   .     S
Cu533  O571    1.992   .     S
Cu533  O575    1.930   .     S
Cu534  O572    1.992   .     S
Cu534  O570    1.996   .     S
Cu534  O574    1.931   .     S
Cu534  N568    2.008   .     S
Cu534  O576    1.930   .     S
H565   C586    1.107   .     S
C577   C580    1.481   .     S
C577   O644    1.313   .     A
C577   O641    1.278   .     A
C578   C580    1.434   .     A
C578   C595    1.544   .     S
C579   C603    1.448   .     A
C579   C604    1.425   .     A
C579   C588    1.494   .     S
C580   C602    1.402   .     A
C581   N640    1.367   .     A
C581   H607    1.081   .     S
C582   N639    1.367   .     A
C582   H618    1.081   .     S
C582   C151    1.413   1_565 S
C583   N640    1.365   .     A
C583   H629    1.080   .     S
C584   H633    1.081   .     S
C584   N639    1.367   .     A
C584   C149    1.414   1_565 S
C585   C586    1.536   .     S
C585   H609    1.107   .     S
C585   C602    1.531   .     S
C585   H608    1.109   .     S
C586   H638    1.112   .     S
C586   C587    1.527   .     S
C587   H634    1.111   .     S
C587   H636    1.108   .     S
C587   H635    1.111   .     S
C588   O643    1.286   .     A
C588   O642    1.312   .     A
C589   H615    1.103   .     S
C589   C603    1.544   .     S
C589   H616    1.099   .     S
C589   C590    1.542   .     S
C590   H614    1.109   .     S
C590   H613    1.112   .     S
C590   C591    1.519   .     S
C591   H612    1.110   .     S
C591   H610    1.107   .     S
C591   H179    1.104   1_565 S
C592   C604    1.528   .     S
C592   H624    1.102   .     S
C592   H623    1.103   .     S
C592   C593    1.539   .     S
C593   C594    1.527   .     S
C593   H622    1.110   .     S
C593   H621    1.112   .     S
C594   H620    1.110   .     S
C594   H619    1.108   .     S
C594   H617    1.107   .     S
C595   H632    1.104   .     S
C595   C596    1.544   .     S
C595   H631    1.102   .     S
C596   H630    1.110   .     S
C596   H628    1.111   .     S
C596   C597    1.523   .     S
C597   H625    1.103   .     S
C597   H627    1.111   .     S
C597   H194    1.104   1_565 S
C598   O645    1.285   .     A
C598   O648    1.285   .     A
C598   C600    1.406   .     S
C599   O646    1.285   .     A
C599   C601    1.406   .     S
C599   O647    1.285   .     A
C600   C1897   1.189   1_554 S
C601   C1248   1.189   .     S
C603   C434    1.420   1_655 S
C604   C458    1.404   1_655 S
Cu605  N639    2.008   .     S
Cu605  O641    1.996   .     S
Cu605  Cu606   2.672   .     S
Cu605  O645    1.931   .     S
Cu605  O643    1.992   .     S
Cu605  O647    1.930   .     S
Cu606  O644    1.992   .     S
Cu606  O642    1.996   .     S
Cu606  O646    1.931   .     S
Cu606  N640    2.008   .     S
Cu606  O648    1.930   .     S
H637   C442    1.107   1_655 S
C649   C652    1.481   .     S
C649   O716    1.313   .     A
C649   O713    1.278   .     A
C650   C652    1.434   .     A
C650   C667    1.544   .     S
C650   C819    1.420   1_455 S
C651   C675    1.448   .     A
C651   C676    1.425   .     A
C651   C660    1.494   .     S
C652   C674    1.402   .     A
C653   N712    1.367   .     A
C653   H679    1.081   .     S
C653   C1088   1.414   1_545 S
C654   N711    1.367   .     A
C654   H690    1.081   .     S
C654   C871    1.413   .     S
C655   N712    1.365   .     A
C655   H701    1.080   .     S
C655   C1086   1.413   1_545 S
C656   H705    1.081   .     S
C656   N711    1.367   .     A
C656   C869    1.414   .     S
C657   C658    1.536   .     S
C657   H681    1.107   .     S
C657   C674    1.531   .     S
C657   H680    1.109   .     S
C658   H710    1.112   .     S
C658   C659    1.527   .     S
C658   H853    1.107   1_455 S
C659   H706    1.111   .     S
C659   H708    1.108   .     S
C659   H707    1.111   .     S
C660   O715    1.286   .     A
C660   O714    1.312   .     A
C661   H687    1.103   .     S
C661   C675    1.544   .     S
C661   H688    1.099   .     S
C661   C662    1.542   .     S
C662   H686    1.109   .     S
C662   H685    1.112   .     S
C662   C663    1.519   .     S
C663   H684    1.110   .     S
C663   H682    1.107   .     S
C663   H899    1.104   .     S
C664   C676    1.528   .     S
C664   H696    1.102   .     S
C664   H695    1.103   .     S
C664   C665    1.539   .     S
C665   C666    1.527   .     S
C665   H694    1.110   .     S
C665   H693    1.112   .     S
C666   H692    1.110   .     S
C666   H691    1.108   .     S
C666   H689    1.107   .     S
C667   H704    1.104   .     S
C667   C668    1.544   .     S
C667   H703    1.102   .     S
C668   H702    1.110   .     S
C668   H700    1.111   .     S
C668   C669    1.523   .     S
C669   H697    1.103   .     S
C669   H699    1.111   .     S
C669   H914    1.104   .     S
C670   O717    1.285   .     A
C670   O720    1.285   .     A
C670   C672    1.406   .     S
C671   O718    1.285   .     A
C671   C673    1.406   .     S
C671   O719    1.285   .     A
C673   C1320   1.189   .     S
C674   C820    1.404   1_455 S
C675   C722    1.420   .     S
C676   C746    1.404   .     S
Cu677  N711    2.008   .     S
Cu677  O713    1.996   .     S
Cu677  Cu678   2.672   .     S
Cu677  O717    1.931   .     S
Cu677  O715    1.992   .     S
Cu677  O719    1.930   .     S
Cu678  O716    1.992   .     S
Cu678  O714    1.996   .     S
Cu678  O718    1.931   .     S
Cu678  N712    2.008   .     S
Cu678  O720    1.930   .     S
H683   C1095   1.104   1_545 S
H698   C1101   1.104   1_545 S
H709   C730    1.107   .     S
C721   C724    1.481   .     S
C721   O788    1.313   .     A
C721   O785    1.278   .     A
C722   C724    1.434   .     A
C722   C739    1.544   .     S
C723   C747    1.448   .     A
C723   C748    1.425   .     A
C723   C732    1.494   .     S
C724   C746    1.402   .     A
C725   N784    1.367   .     A
C725   H751    1.081   .     S
C725   C1160   1.414   1_545 S
C726   N783    1.367   .     A
C726   H762    1.081   .     S
C726   C943    1.413   .     S
C727   N784    1.365   .     A
C727   H773    1.080   .     S
C727   C1158   1.413   1_545 S
C728   H777    1.081   .     S
C728   N783    1.367   .     A
C728   C941    1.414   .     S
C729   C730    1.536   .     S
C729   H753    1.107   .     S
C729   C746    1.531   .     S
C729   H752    1.109   .     S
C730   H782    1.112   .     S
C730   C731    1.527   .     S
C731   H778    1.111   .     S
C731   H780    1.108   .     S
C731   H779    1.111   .     S
C732   O787    1.286   .     A
C732   O786    1.312   .     A
C733   H759    1.103   .     S
C733   C747    1.544   .     S
C733   H760    1.099   .     S
C733   C734    1.542   .     S
C734   H758    1.109   .     S
C734   H757    1.112   .     S
C734   C735    1.519   .     S
C735   H756    1.110   .     S
C735   H754    1.107   .     S
C735   H971    1.104   .     S
C736   C748    1.528   .     S
C736   H768    1.102   .     S
C736   H767    1.103   .     S
C736   C737    1.539   .     S
C737   C738    1.527   .     S
C737   H766    1.110   .     S
C737   H765    1.112   .     S
C738   H764    1.110   .     S
C738   H763    1.108   .     S
C738   H761    1.107   .     S
C739   H776    1.104   .     S
C739   C740    1.544   .     S
C739   H775    1.102   .     S
C740   H774    1.110   .     S
C740   H772    1.111   .     S
C740   C741    1.523   .     S
C741   H769    1.103   .     S
C741   H771    1.111   .     S
C741   H986    1.104   .     S
C742   O789    1.285   .     A
C742   O792    1.285   .     A
C742   C744    1.406   .     S
C743   O790    1.285   .     A
C743   C745    1.406   .     S
C743   O791    1.285   .     A
C745   C1392   1.189   .     S
C747   C794    1.420   .     S
C748   C818    1.404   .     S
Cu749  N783    2.008   .     S
Cu749  O785    1.996   .     S
Cu749  Cu750   2.672   .     S
Cu749  O789    1.931   .     S
Cu749  O787    1.992   .     S
Cu749  O791    1.930   .     S
Cu750  O788    1.992   .     S
Cu750  O786    1.996   .     S
Cu750  O790    1.931   .     S
Cu750  N784    2.008   .     S
Cu750  O792    1.930   .     S
H755   C1167   1.104   1_545 S
H770   C1173   1.104   1_545 S
H781   C802    1.107   .     S
C793   C796    1.481   .     S
C793   O860    1.313   .     A
C793   O857    1.278   .     A
C794   C796    1.434   .     A
C794   C811    1.544   .     S
C795   C819    1.448   .     A
C795   C820    1.425   .     A
C795   C804    1.494   .     S
C796   C818    1.402   .     A
C797   N856    1.367   .     A
C797   H823    1.081   .     S
C797   C1232   1.414   1_545 S
C798   N855    1.367   .     A
C798   H834    1.081   .     S
C798   C1015   1.413   .     S
C799   N856    1.365   .     A
C799   H845    1.080   .     S
C799   C1230   1.413   1_545 S
C800   H849    1.081   .     S
C800   N855    1.367   .     A
C800   C1013   1.414   .     S
C801   C802    1.536   .     S
C801   H825    1.107   .     S
C801   C818    1.531   .     S
C801   H824    1.109   .     S
C802   H854    1.112   .     S
C802   C803    1.527   .     S
C803   H850    1.111   .     S
C803   H852    1.108   .     S
C803   H851    1.111   .     S
C804   O859    1.286   .     A
C804   O858    1.312   .     A
C805   H831    1.103   .     S
C805   C819    1.544   .     S
C805   H832    1.099   .     S
C805   C806    1.542   .     S
C806   H830    1.109   .     S
C806   H829    1.112   .     S
C806   C807    1.519   .     S
C807   H828    1.110   .     S
C807   H826    1.107   .     S
C807   H1043   1.104   .     S
C808   C820    1.528   .     S
C808   H840    1.102   .     S
C808   H839    1.103   .     S
C808   C809    1.539   .     S
C809   C810    1.527   .     S
C809   H838    1.110   .     S
C809   H837    1.112   .     S
C810   H836    1.110   .     S
C810   H835    1.108   .     S
C810   H833    1.107   .     S
C811   H848    1.104   .     S
C811   C812    1.544   .     S
C811   H847    1.102   .     S
C812   H846    1.110   .     S
C812   H844    1.111   .     S
C812   C813    1.523   .     S
C813   H841    1.103   .     S
C813   H843    1.111   .     S
C813   H1058   1.104   .     S
C814   O861    1.285   .     A
C814   O864    1.285   .     A
C814   C816    1.406   .     S
C815   O862    1.285   .     A
C815   C817    1.406   .     S
C815   O863    1.285   .     A
C817   C1464   1.189   .     S
C819   C650    1.420   1_655 S
C820   C674    1.404   1_655 S
Cu821  N855    2.008   .     S
Cu821  O857    1.996   .     S
Cu821  Cu822   2.672   .     S
Cu821  O861    1.931   .     S
Cu821  O859    1.992   .     S
Cu821  O863    1.930   .     S
Cu822  O860    1.992   .     S
Cu822  O858    1.996   .     S
Cu822  O862    1.931   .     S
Cu822  N856    2.008   .     S
Cu822  O864    1.930   .     S
H827   C1239   1.104   1_545 S
H842   C1245   1.104   1_545 S
H853   C658    1.107   1_655 S
C865   C868    1.481   .     S
C865   O932    1.313   .     A
C865   O929    1.278   .     A
C866   C868    1.434   .     A
C866   C883    1.544   .     S
C866   C1035   1.420   1_455 S
C867   C891    1.448   .     A
C867   C892    1.425   .     A
C867   C876    1.494   .     S
C868   C890    1.402   .     A
C869   N928    1.367   .     A
C869   H895    1.081   .     S
C870   N927    1.367   .     A
C870   H906    1.081   .     S
C870   C1087   1.413   .     S
C871   N928    1.365   .     A
C871   H917    1.080   .     S
C872   H921    1.081   .     S
C872   N927    1.367   .     A
C872   C1085   1.414   .     S
C873   C874    1.536   .     S
C873   H897    1.107   .     S
C873   C890    1.531   .     S
C873   H896    1.109   .     S
C874   H926    1.112   .     S
C874   C875    1.527   .     S
C874   H1069   1.107   1_455 S
C875   H922    1.111   .     S
C875   H924    1.108   .     S
C875   H923    1.111   .     S
C876   O931    1.286   .     A
C876   O930    1.312   .     A
C877   H903    1.103   .     S
C877   C891    1.544   .     S
C877   H904    1.099   .     S
C877   C878    1.542   .     S
C878   H902    1.109   .     S
C878   H901    1.112   .     S
C878   C879    1.519   .     S
C879   H900    1.110   .     S
C879   H898    1.107   .     S
C879   H1115   1.104   .     S
C880   C892    1.528   .     S
C880   H912    1.102   .     S
C880   H911    1.103   .     S
C880   C881    1.539   .     S
C881   C882    1.527   .     S
C881   H910    1.110   .     S
C881   H909    1.112   .     S
C882   H908    1.110   .     S
C882   H907    1.108   .     S
C882   H905    1.107   .     S
C883   H920    1.104   .     S
C883   C884    1.544   .     S
C883   H919    1.102   .     S
C884   H918    1.110   .     S
C884   H916    1.111   .     S
C884   C885    1.523   .     S
C885   H913    1.103   .     S
C885   H915    1.111   .     S
C885   H1130   1.104   .     S
C886   O933    1.285   .     A
C886   O936    1.285   .     A
C886   C888    1.406   .     S
C887   O934    1.285   .     A
C887   C889    1.406   .     S
C887   O935    1.285   .     A
C889   C1536   1.189   .     S
C890   C1036   1.404   1_455 S
C891   C938    1.420   .     S
C892   C962    1.404   .     S
Cu893  N927    2.008   .     S
Cu893  O929    1.996   .     S
Cu893  Cu894   2.672   .     S
Cu893  O933    1.931   .     S
Cu893  O931    1.992   .     S
Cu893  O935    1.930   .     S
Cu894  O932    1.992   .     S
Cu894  O930    1.996   .     S
Cu894  O934    1.931   .     S
Cu894  N928    2.008   .     S
Cu894  O936    1.930   .     S
H925   C946    1.107   .     S
C937   C940    1.481   .     S
C937   O1004   1.313   .     A
C937   O1001   1.278   .     A
C938   C940    1.434   .     A
C938   C955    1.544   .     S
C939   C963    1.448   .     A
C939   C964    1.425   .     A
C939   C948    1.494   .     S
C940   C962    1.402   .     A
C941   N1000   1.367   .     A
C941   H967    1.081   .     S
C942   N999    1.367   .     A
C942   H978    1.081   .     S
C942   C1159   1.413   .     S
C943   N1000   1.365   .     A
C943   H989    1.080   .     S
C944   H993    1.081   .     S
C944   N999    1.367   .     A
C944   C1157   1.414   .     S
C945   C946    1.536   .     S
C945   H969    1.107   .     S
C945   C962    1.531   .     S
C945   H968    1.109   .     S
C946   H998    1.112   .     S
C946   C947    1.527   .     S
C947   H994    1.111   .     S
C947   H996    1.108   .     S
C947   H995    1.111   .     S
C948   O1003   1.286   .     A
C948   O1002   1.312   .     A
C949   H975    1.103   .     S
C949   C963    1.544   .     S
C949   H976    1.099   .     S
C949   C950    1.542   .     S
C950   H974    1.109   .     S
C950   H973    1.112   .     S
C950   C951    1.519   .     S
C951   H972    1.110   .     S
C951   H970    1.107   .     S
C951   H1187   1.104   .     S
C952   C964    1.528   .     S
C952   H984    1.102   .     S
C952   H983    1.103   .     S
C952   C953    1.539   .     S
C953   C954    1.527   .     S
C953   H982    1.110   .     S
C953   H981    1.112   .     S
C954   H980    1.110   .     S
C954   H979    1.108   .     S
C954   H977    1.107   .     S
C955   H992    1.104   .     S
C955   C956    1.544   .     S
C955   H991    1.102   .     S
C956   H990    1.110   .     S
C956   H988    1.111   .     S
C956   C957    1.523   .     S
C957   H985    1.103   .     S
C957   H987    1.111   .     S
C957   H1202   1.104   .     S
C958   O1005   1.285   .     A
C958   O1008   1.285   .     A
C958   C960    1.406   .     S
C959   O1006   1.285   .     A
C959   C961    1.406   .     S
C959   O1007   1.285   .     A
C961   C1608   1.189   .     S
C963   C1010   1.420   .     S
C964   C1034   1.404   .     S
Cu965  N999    2.008   .     S
Cu965  O1001   1.996   .     S
Cu965  Cu966   2.672   .     S
Cu965  O1005   1.931   .     S
Cu965  O1003   1.992   .     S
Cu965  O1007   1.930   .     S
Cu966  O1004   1.992   .     S
Cu966  O1002   1.996   .     S
Cu966  O1006   1.931   .     S
Cu966  N1000   2.008   .     S
Cu966  O1008   1.930   .     S
H997   C1018   1.107   .     S
C1009  C1012   1.481   .     S
C1009  O1076   1.313   .     A
C1009  O1073   1.278   .     A
C1010  C1012   1.434   .     A
C1010  C1027   1.544   .     S
C1011  C1035   1.448   .     A
C1011  C1036   1.425   .     A
C1011  C1020   1.494   .     S
C1012  C1034   1.402   .     A
C1013  N1072   1.367   .     A
C1013  H1039   1.081   .     S
C1014  N1071   1.367   .     A
C1014  H1050   1.081   .     S
C1014  C1231   1.413   .     S
C1015  N1072   1.365   .     A
C1015  H1061   1.080   .     S
C1016  H1065   1.081   .     S
C1016  N1071   1.367   .     A
C1016  C1229   1.414   .     S
C1017  C1018   1.536   .     S
C1017  H1041   1.107   .     S
C1017  C1034   1.531   .     S
C1017  H1040   1.109   .     S
C1018  H1070   1.112   .     S
C1018  C1019   1.527   .     S
C1019  H1066   1.111   .     S
C1019  H1068   1.108   .     S
C1019  H1067   1.111   .     S
C1020  O1075   1.286   .     A
C1020  O1074   1.312   .     A
C1021  H1047   1.103   .     S
C1021  C1035   1.544   .     S
C1021  H1048   1.099   .     S
C1021  C1022   1.542   .     S
C1022  H1046   1.109   .     S
C1022  H1045   1.112   .     S
C1022  C1023   1.519   .     S
C1023  H1044   1.110   .     S
C1023  H1042   1.107   .     S
C1023  H1259   1.104   .     S
C1024  C1036   1.528   .     S
C1024  H1056   1.102   .     S
C1024  H1055   1.103   .     S
C1024  C1025   1.539   .     S
C1025  C1026   1.527   .     S
C1025  H1054   1.110   .     S
C1025  H1053   1.112   .     S
C1026  H1052   1.110   .     S
C1026  H1051   1.108   .     S
C1026  H1049   1.107   .     S
C1027  H1064   1.104   .     S
C1027  C1028   1.544   .     S
C1027  H1063   1.102   .     S
C1028  H1062   1.110   .     S
C1028  H1060   1.111   .     S
C1028  C1029   1.523   .     S
C1029  H1057   1.103   .     S
C1029  H1059   1.111   .     S
C1029  H1274   1.104   .     S
C1030  O1077   1.285   .     A
C1030  O1080   1.285   .     A
C1030  C1032   1.406   .     S
C1031  O1078   1.285   .     A
C1031  C1033   1.406   .     S
C1031  O1079   1.285   .     A
C1033  C1680   1.189   .     S
C1035  C866    1.420   1_655 S
C1036  C890    1.404   1_655 S
Cu1037 N1071   2.008   .     S
Cu1037 O1073   1.996   .     S
Cu1037 Cu1038  2.672   .     S
Cu1037 O1077   1.931   .     S
Cu1037 O1075   1.992   .     S
Cu1037 O1079   1.930   .     S
Cu1038 O1076   1.992   .     S
Cu1038 O1074   1.996   .     S
Cu1038 O1078   1.931   .     S
Cu1038 N1072   2.008   .     S
Cu1038 O1080   1.930   .     S
H1069  C874    1.107   1_655 S
C1081  C1084   1.481   .     S
C1081  O1148   1.313   .     A
C1081  O1145   1.278   .     A
C1082  C1084   1.434   .     A
C1082  C1099   1.544   .     S
C1082  C1251   1.420   1_455 S
C1083  C1107   1.448   .     A
C1083  C1108   1.425   .     A
C1083  C1092   1.494   .     S
C1084  C1106   1.402   .     A
C1085  N1144   1.367   .     A
C1085  H1111   1.081   .     S
C1086  N1143   1.367   .     A
C1086  H1122   1.081   .     S
C1086  C655    1.413   1_565 S
C1087  N1144   1.365   .     A
C1087  H1133   1.080   .     S
C1088  H1137   1.081   .     S
C1088  N1143   1.367   .     A
C1088  C653    1.414   1_565 S
C1089  C1090   1.536   .     S
C1089  H1113   1.107   .     S
C1089  C1106   1.531   .     S
C1089  H1112   1.109   .     S
C1090  H1142   1.112   .     S
C1090  C1091   1.527   .     S
C1090  H1285   1.107   1_455 S
C1091  H1138   1.111   .     S
C1091  H1140   1.108   .     S
C1091  H1139   1.111   .     S
C1092  O1147   1.286   .     A
C1092  O1146   1.312   .     A
C1093  H1119   1.103   .     S
C1093  C1107   1.544   .     S
C1093  H1120   1.099   .     S
C1093  C1094   1.542   .     S
C1094  H1118   1.109   .     S
C1094  H1117   1.112   .     S
C1094  C1095   1.519   .     S
C1095  H1116   1.110   .     S
C1095  H1114   1.107   .     S
C1095  H683    1.104   1_565 S
C1096  C1108   1.528   .     S
C1096  H1128   1.102   .     S
C1096  H1127   1.103   .     S
C1096  C1097   1.539   .     S
C1097  C1098   1.527   .     S
C1097  H1126   1.110   .     S
C1097  H1125   1.112   .     S
C1098  H1124   1.110   .     S
C1098  H1123   1.108   .     S
C1098  H1121   1.107   .     S
C1099  H1136   1.104   .     S
C1099  C1100   1.544   .     S
C1099  H1135   1.102   .     S
C1100  H1134   1.110   .     S
C1100  H1132   1.111   .     S
C1100  C1101   1.523   .     S
C1101  H1129   1.103   .     S
C1101  H1131   1.111   .     S
C1101  H698    1.104   1_565 S
C1102  O1149   1.285   .     A
C1102  O1152   1.285   .     A
C1102  C1104   1.406   .     S
C1103  O1150   1.285   .     A
C1103  C1105   1.406   .     S
C1103  O1151   1.285   .     A
C1105  C1752   1.189   .     S
C1106  C1252   1.404   1_455 S
C1107  C1154   1.420   .     S
C1108  C1178   1.404   .     S
Cu1109 N1143   2.008   .     S
Cu1109 O1145   1.996   .     S
Cu1109 Cu1110  2.672   .     S
Cu1109 O1149   1.931   .     S
Cu1109 O1147   1.992   .     S
Cu1109 O1151   1.930   .     S
Cu1110 O1148   1.992   .     S
Cu1110 O1146   1.996   .     S
Cu1110 O1150   1.931   .     S
Cu1110 N1144   2.008   .     S
Cu1110 O1152   1.930   .     S
H1141  C1162   1.107   .     S
C1153  C1156   1.481   .     S
C1153  O1220   1.313   .     A
C1153  O1217   1.278   .     A
C1154  C1156   1.434   .     A
C1154  C1171   1.544   .     S
C1155  C1179   1.448   .     A
C1155  C1180   1.425   .     A
C1155  C1164   1.494   .     S
C1156  C1178   1.402   .     A
C1157  N1216   1.367   .     A
C1157  H1183   1.081   .     S
C1158  N1215   1.367   .     A
C1158  H1194   1.081   .     S
C1158  C727    1.413   1_565 S
C1159  N1216   1.365   .     A
C1159  H1205   1.080   .     S
C1160  H1209   1.081   .     S
C1160  N1215   1.367   .     A
C1160  C725    1.414   1_565 S
C1161  C1162   1.536   .     S
C1161  H1185   1.107   .     S
C1161  C1178   1.531   .     S
C1161  H1184   1.109   .     S
C1162  H1214   1.112   .     S
C1162  C1163   1.527   .     S
C1163  H1210   1.111   .     S
C1163  H1212   1.108   .     S
C1163  H1211   1.111   .     S
C1164  O1219   1.286   .     A
C1164  O1218   1.312   .     A
C1165  H1191   1.103   .     S
C1165  C1179   1.544   .     S
C1165  H1192   1.099   .     S
C1165  C1166   1.542   .     S
C1166  H1190   1.109   .     S
C1166  H1189   1.112   .     S
C1166  C1167   1.519   .     S
C1167  H1188   1.110   .     S
C1167  H1186   1.107   .     S
C1167  H755    1.104   1_565 S
C1168  C1180   1.528   .     S
C1168  H1200   1.102   .     S
C1168  H1199   1.103   .     S
C1168  C1169   1.539   .     S
C1169  C1170   1.527   .     S
C1169  H1198   1.110   .     S
C1169  H1197   1.112   .     S
C1170  H1196   1.110   .     S
C1170  H1195   1.108   .     S
C1170  H1193   1.107   .     S
C1171  H1208   1.104   .     S
C1171  C1172   1.544   .     S
C1171  H1207   1.102   .     S
C1172  H1206   1.110   .     S
C1172  H1204   1.111   .     S
C1172  C1173   1.523   .     S
C1173  H1201   1.103   .     S
C1173  H1203   1.111   .     S
C1173  H770    1.104   1_565 S
C1174  O1221   1.285   .     A
C1174  O1224   1.285   .     A
C1174  C1176   1.406   .     S
C1175  O1222   1.285   .     A
C1175  C1177   1.406   .     S
C1175  O1223   1.285   .     A
C1177  C1824   1.189   .     S
C1179  C1226   1.420   .     S
C1180  C1250   1.404   .     S
Cu1181 N1215   2.008   .     S
Cu1181 O1217   1.996   .     S
Cu1181 Cu1182  2.672   .     S
Cu1181 O1221   1.931   .     S
Cu1181 O1219   1.992   .     S
Cu1181 O1223   1.930   .     S
Cu1182 O1220   1.992   .     S
Cu1182 O1218   1.996   .     S
Cu1182 O1222   1.931   .     S
Cu1182 N1216   2.008   .     S
Cu1182 O1224   1.930   .     S
H1213  C1234   1.107   .     S
C1225  C1228   1.481   .     S
C1225  O1292   1.313   .     A
C1225  O1289   1.278   .     A
C1226  C1228   1.434   .     A
C1226  C1243   1.544   .     S
C1227  C1251   1.448   .     A
C1227  C1252   1.425   .     A
C1227  C1236   1.494   .     S
C1228  C1250   1.402   .     A
C1229  N1288   1.367   .     A
C1229  H1255   1.081   .     S
C1230  N1287   1.367   .     A
C1230  H1266   1.081   .     S
C1230  C799    1.413   1_565 S
C1231  N1288   1.365   .     A
C1231  H1277   1.080   .     S
C1232  H1281   1.081   .     S
C1232  N1287   1.367   .     A
C1232  C797    1.414   1_565 S
C1233  C1234   1.536   .     S
C1233  H1257   1.107   .     S
C1233  C1250   1.531   .     S
C1233  H1256   1.109   .     S
C1234  H1286   1.112   .     S
C1234  C1235   1.527   .     S
C1235  H1282   1.111   .     S
C1235  H1284   1.108   .     S
C1235  H1283   1.111   .     S
C1236  O1291   1.286   .     A
C1236  O1290   1.312   .     A
C1237  H1263   1.103   .     S
C1237  C1251   1.544   .     S
C1237  H1264   1.099   .     S
C1237  C1238   1.542   .     S
C1238  H1262   1.109   .     S
C1238  H1261   1.112   .     S
C1238  C1239   1.519   .     S
C1239  H1260   1.110   .     S
C1239  H1258   1.107   .     S
C1239  H827    1.104   1_565 S
C1240  C1252   1.528   .     S
C1240  H1272   1.102   .     S
C1240  H1271   1.103   .     S
C1240  C1241   1.539   .     S
C1241  C1242   1.527   .     S
C1241  H1270   1.110   .     S
C1241  H1269   1.112   .     S
C1242  H1268   1.110   .     S
C1242  H1267   1.108   .     S
C1242  H1265   1.107   .     S
C1243  H1280   1.104   .     S
C1243  C1244   1.544   .     S
C1243  H1279   1.102   .     S
C1244  H1278   1.110   .     S
C1244  H1276   1.111   .     S
C1244  C1245   1.523   .     S
C1245  H1273   1.103   .     S
C1245  H1275   1.111   .     S
C1245  H842    1.104   1_565 S
C1246  O1293   1.285   .     A
C1246  O1296   1.285   .     A
C1246  C1248   1.406   .     S
C1247  O1294   1.285   .     A
C1247  C1249   1.406   .     S
C1247  O1295   1.285   .     A
C1249  C1896   1.189   .     S
C1251  C1082   1.420   1_655 S
C1252  C1106   1.404   1_655 S
Cu1253 N1287   2.008   .     S
Cu1253 O1289   1.996   .     S
Cu1253 Cu1254  2.672   .     S
Cu1253 O1293   1.931   .     S
Cu1253 O1291   1.992   .     S
Cu1253 O1295   1.930   .     S
Cu1254 O1292   1.992   .     S
Cu1254 O1290   1.996   .     S
Cu1254 O1294   1.931   .     S
Cu1254 N1288   2.008   .     S
Cu1254 O1296   1.930   .     S
H1285  C1090   1.107   1_655 S
C1297  C1300   1.481   .     S
C1297  O1364   1.313   .     A
C1297  O1361   1.278   .     A
C1298  C1300   1.434   .     A
C1298  C1315   1.544   .     S
C1298  C1467   1.420   1_455 S
C1299  C1323   1.448   .     A
C1299  C1324   1.425   .     A
C1299  C1308   1.494   .     S
C1300  C1322   1.402   .     A
C1301  N1360   1.367   .     A
C1301  H1327   1.081   .     S
C1301  C1736   1.414   1_545 S
C1302  N1359   1.367   .     A
C1302  H1338   1.081   .     S
C1302  C1519   1.413   .     S
C1303  N1360   1.365   .     A
C1303  H1349   1.080   .     S
C1303  C1734   1.413   1_545 S
C1304  H1353   1.081   .     S
C1304  N1359   1.367   .     A
C1304  C1517   1.414   .     S
C1305  C1306   1.536   .     S
C1305  H1329   1.107   .     S
C1305  C1322   1.531   .     S
C1305  H1328   1.109   .     S
C1306  H1358   1.112   .     S
C1306  C1307   1.527   .     S
C1306  H1501   1.107   1_455 S
C1307  H1354   1.111   .     S
C1307  H1356   1.108   .     S
C1307  H1355   1.111   .     S
C1308  O1363   1.286   .     A
C1308  O1362   1.312   .     A
C1309  H1335   1.103   .     S
C1309  C1323   1.544   .     S
C1309  H1336   1.099   .     S
C1309  C1310   1.542   .     S
C1310  H1334   1.109   .     S
C1310  H1333   1.112   .     S
C1310  C1311   1.519   .     S
C1311  H1332   1.110   .     S
C1311  H1330   1.107   .     S
C1311  H1547   1.104   .     S
C1312  C1324   1.528   .     S
C1312  H1344   1.102   .     S
C1312  H1343   1.103   .     S
C1312  C1313   1.539   .     S
C1313  C1314   1.527   .     S
C1313  H1342   1.110   .     S
C1313  H1341   1.112   .     S
C1314  H1340   1.110   .     S
C1314  H1339   1.108   .     S
C1314  H1337   1.107   .     S
C1315  H1352   1.104   .     S
C1315  C1316   1.544   .     S
C1315  H1351   1.102   .     S
C1316  H1350   1.110   .     S
C1316  H1348   1.111   .     S
C1316  C1317   1.523   .     S
C1317  H1345   1.103   .     S
C1317  H1347   1.111   .     S
C1317  H1562   1.104   .     S
C1318  O1365   1.285   .     A
C1318  O1368   1.285   .     A
C1318  C1320   1.406   .     S
C1319  O1366   1.285   .     A
C1319  C1321   1.406   .     S
C1319  O1367   1.285   .     A
C1321  C24     1.189   1_556 S
C1322  C1468   1.404   1_455 S
C1323  C1370   1.420   .     S
C1324  C1394   1.404   .     S
Cu1325 N1359   2.008   .     S
Cu1325 O1361   1.996   .     S
Cu1325 Cu1326  2.672   .     S
Cu1325 O1365   1.931   .     S
Cu1325 O1363   1.992   .     S
Cu1325 O1367   1.930   .     S
Cu1326 O1364   1.992   .     S
Cu1326 O1362   1.996   .     S
Cu1326 O1366   1.931   .     S
Cu1326 N1360   2.008   .     S
Cu1326 O1368   1.930   .     S
H1331  C1743   1.104   1_545 S
H1346  C1749   1.104   1_545 S
H1357  C1378   1.107   .     S
C1369  C1372   1.481   .     S
C1369  O1436   1.313   .     A
C1369  O1433   1.278   .     A
C1370  C1372   1.434   .     A
C1370  C1387   1.544   .     S
C1371  C1395   1.448   .     A
C1371  C1396   1.425   .     A
C1371  C1380   1.494   .     S
C1372  C1394   1.402   .     A
C1373  N1432   1.367   .     A
C1373  H1399   1.081   .     S
C1373  C1808   1.414   1_545 S
C1374  N1431   1.367   .     A
C1374  H1410   1.081   .     S
C1374  C1591   1.413   .     S
C1375  N1432   1.365   .     A
C1375  H1421   1.080   .     S
C1375  C1806   1.413   1_545 S
C1376  H1425   1.081   .     S
C1376  N1431   1.367   .     A
C1376  C1589   1.414   .     S
C1377  C1378   1.536   .     S
C1377  H1401   1.107   .     S
C1377  C1394   1.531   .     S
C1377  H1400   1.109   .     S
C1378  H1430   1.112   .     S
C1378  C1379   1.527   .     S
C1379  H1426   1.111   .     S
C1379  H1428   1.108   .     S
C1379  H1427   1.111   .     S
C1380  O1435   1.286   .     A
C1380  O1434   1.312   .     A
C1381  H1407   1.103   .     S
C1381  C1395   1.544   .     S
C1381  H1408   1.099   .     S
C1381  C1382   1.542   .     S
C1382  H1406   1.109   .     S
C1382  H1405   1.112   .     S
C1382  C1383   1.519   .     S
C1383  H1404   1.110   .     S
C1383  H1402   1.107   .     S
C1383  H1619   1.104   .     S
C1384  C1396   1.528   .     S
C1384  H1416   1.102   .     S
C1384  H1415   1.103   .     S
C1384  C1385   1.539   .     S
C1385  C1386   1.527   .     S
C1385  H1414   1.110   .     S
C1385  H1413   1.112   .     S
C1386  H1412   1.110   .     S
C1386  H1411   1.108   .     S
C1386  H1409   1.107   .     S
C1387  H1424   1.104   .     S
C1387  C1388   1.544   .     S
C1387  H1423   1.102   .     S
C1388  H1422   1.110   .     S
C1388  H1420   1.111   .     S
C1388  C1389   1.523   .     S
C1389  H1417   1.103   .     S
C1389  H1419   1.111   .     S
C1389  H1634   1.104   .     S
C1390  O1437   1.285   .     A
C1390  O1440   1.285   .     A
C1390  C1392   1.406   .     S
C1391  O1438   1.285   .     A
C1391  C1393   1.406   .     S
C1391  O1439   1.285   .     A
C1393  C96     1.189   1_556 S
C1395  C1442   1.420   .     S
C1396  C1466   1.404   .     S
Cu1397 N1431   2.008   .     S
Cu1397 O1433   1.996   .     S
Cu1397 Cu1398  2.672   .     S
Cu1397 O1437   1.931   .     S
Cu1397 O1435   1.992   .     S
Cu1397 O1439   1.930   .     S
Cu1398 O1436   1.992   .     S
Cu1398 O1434   1.996   .     S
Cu1398 O1438   1.931   .     S
Cu1398 N1432   2.008   .     S
Cu1398 O1440   1.930   .     S
H1403  C1815   1.104   1_545 S
H1418  C1821   1.104   1_545 S
H1429  C1450   1.107   .     S
C1441  C1444   1.481   .     S
C1441  O1508   1.313   .     A
C1441  O1505   1.278   .     A
C1442  C1444   1.434   .     A
C1442  C1459   1.544   .     S
C1443  C1467   1.448   .     A
C1443  C1468   1.425   .     A
C1443  C1452   1.494   .     S
C1444  C1466   1.402   .     A
C1445  N1504   1.367   .     A
C1445  H1471   1.081   .     S
C1445  C1880   1.414   1_545 S
C1446  N1503   1.367   .     A
C1446  H1482   1.081   .     S
C1446  C1663   1.413   .     S
C1447  N1504   1.365   .     A
C1447  H1493   1.080   .     S
C1447  C1878   1.413   1_545 S
C1448  H1497   1.081   .     S
C1448  N1503   1.367   .     A
C1448  C1661   1.414   .     S
C1449  C1450   1.536   .     S
C1449  H1473   1.107   .     S
C1449  C1466   1.531   .     S
C1449  H1472   1.109   .     S
C1450  H1502   1.112   .     S
C1450  C1451   1.527   .     S
C1451  H1498   1.111   .     S
C1451  H1500   1.108   .     S
C1451  H1499   1.111   .     S
C1452  O1507   1.286   .     A
C1452  O1506   1.312   .     A
C1453  H1479   1.103   .     S
C1453  C1467   1.544   .     S
C1453  H1480   1.099   .     S
C1453  C1454   1.542   .     S
C1454  H1478   1.109   .     S
C1454  H1477   1.112   .     S
C1454  C1455   1.519   .     S
C1455  H1476   1.110   .     S
C1455  H1474   1.107   .     S
C1455  H1691   1.104   .     S
C1456  C1468   1.528   .     S
C1456  H1488   1.102   .     S
C1456  H1487   1.103   .     S
C1456  C1457   1.539   .     S
C1457  C1458   1.527   .     S
C1457  H1486   1.110   .     S
C1457  H1485   1.112   .     S
C1458  H1484   1.110   .     S
C1458  H1483   1.108   .     S
C1458  H1481   1.107   .     S
C1459  H1496   1.104   .     S
C1459  C1460   1.544   .     S
C1459  H1495   1.102   .     S
C1460  H1494   1.110   .     S
C1460  H1492   1.111   .     S
C1460  C1461   1.523   .     S
C1461  H1489   1.103   .     S
C1461  H1491   1.111   .     S
C1461  H1706   1.104   .     S
C1462  O1509   1.285   .     A
C1462  O1512   1.285   .     A
C1462  C1464   1.406   .     S
C1463  O1510   1.285   .     A
C1463  C1465   1.406   .     S
C1463  O1511   1.285   .     A
C1465  C168    1.189   1_556 S
C1467  C1298   1.420   1_655 S
C1468  C1322   1.404   1_655 S
Cu1469 N1503   2.008   .     S
Cu1469 O1505   1.996   .     S
Cu1469 Cu1470  2.672   .     S
Cu1469 O1509   1.931   .     S
Cu1469 O1507   1.992   .     S
Cu1469 O1511   1.930   .     S
Cu1470 O1508   1.992   .     S
Cu1470 O1506   1.996   .     S
Cu1470 O1510   1.931   .     S
Cu1470 N1504   2.008   .     S
Cu1470 O1512   1.930   .     S
H1475  C1887   1.104   1_545 S
H1490  C1893   1.104   1_545 S
H1501  C1306   1.107   1_655 S
C1513  C1516   1.481   .     S
C1513  O1580   1.313   .     A
C1513  O1577   1.278   .     A
C1514  C1516   1.434   .     A
C1514  C1531   1.544   .     S
C1514  C1683   1.420   1_455 S
C1515  C1539   1.448   .     A
C1515  C1540   1.425   .     A
C1515  C1524   1.494   .     S
C1516  C1538   1.402   .     A
C1517  N1576   1.367   .     A
C1517  H1543   1.081   .     S
C1518  N1575   1.367   .     A
C1518  H1554   1.081   .     S
C1518  C1735   1.413   .     S
C1519  N1576   1.365   .     A
C1519  H1565   1.080   .     S
C1520  H1569   1.081   .     S
C1520  N1575   1.367   .     A
C1520  C1733   1.414   .     S
C1521  C1522   1.536   .     S
C1521  H1545   1.107   .     S
C1521  C1538   1.531   .     S
C1521  H1544   1.109   .     S
C1522  H1574   1.112   .     S
C1522  C1523   1.527   .     S
C1522  H1717   1.107   1_455 S
C1523  H1570   1.111   .     S
C1523  H1572   1.108   .     S
C1523  H1571   1.111   .     S
C1524  O1579   1.286   .     A
C1524  O1578   1.312   .     A
C1525  H1551   1.103   .     S
C1525  C1539   1.544   .     S
C1525  H1552   1.099   .     S
C1525  C1526   1.542   .     S
C1526  H1550   1.109   .     S
C1526  H1549   1.112   .     S
C1526  C1527   1.519   .     S
C1527  H1548   1.110   .     S
C1527  H1546   1.107   .     S
C1527  H1763   1.104   .     S
C1528  C1540   1.528   .     S
C1528  H1560   1.102   .     S
C1528  H1559   1.103   .     S
C1528  C1529   1.539   .     S
C1529  C1530   1.527   .     S
C1529  H1558   1.110   .     S
C1529  H1557   1.112   .     S
C1530  H1556   1.110   .     S
C1530  H1555   1.108   .     S
C1530  H1553   1.107   .     S
C1531  H1568   1.104   .     S
C1531  C1532   1.544   .     S
C1531  H1567   1.102   .     S
C1532  H1566   1.110   .     S
C1532  H1564   1.111   .     S
C1532  C1533   1.523   .     S
C1533  H1561   1.103   .     S
C1533  H1563   1.111   .     S
C1533  H1778   1.104   .     S
C1534  O1581   1.285   .     A
C1534  O1584   1.285   .     A
C1534  C1536   1.406   .     S
C1535  O1582   1.285   .     A
C1535  C1537   1.406   .     S
C1535  O1583   1.285   .     A
C1537  C240    1.189   1_556 S
C1538  C1684   1.404   1_455 S
C1539  C1586   1.420   .     S
C1540  C1610   1.404   .     S
Cu1541 N1575   2.008   .     S
Cu1541 O1577   1.996   .     S
Cu1541 Cu1542  2.672   .     S
Cu1541 O1581   1.931   .     S
Cu1541 O1579   1.992   .     S
Cu1541 O1583   1.930   .     S
Cu1542 O1580   1.992   .     S
Cu1542 O1578   1.996   .     S
Cu1542 O1582   1.931   .     S
Cu1542 N1576   2.008   .     S
Cu1542 O1584   1.930   .     S
H1573  C1594   1.107   .     S
C1585  C1588   1.481   .     S
C1585  O1652   1.313   .     A
C1585  O1649   1.278   .     A
C1586  C1588   1.434   .     A
C1586  C1603   1.544   .     S
C1587  C1611   1.448   .     A
C1587  C1612   1.425   .     A
C1587  C1596   1.494   .     S
C1588  C1610   1.402   .     A
C1589  N1648   1.367   .     A
C1589  H1615   1.081   .     S
C1590  N1647   1.367   .     A
C1590  H1626   1.081   .     S
C1590  C1807   1.413   .     S
C1591  N1648   1.365   .     A
C1591  H1637   1.080   .     S
C1592  H1641   1.081   .     S
C1592  N1647   1.367   .     A
C1592  C1805   1.414   .     S
C1593  C1594   1.536   .     S
C1593  H1617   1.107   .     S
C1593  C1610   1.531   .     S
C1593  H1616   1.109   .     S
C1594  H1646   1.112   .     S
C1594  C1595   1.527   .     S
C1595  H1642   1.111   .     S
C1595  H1644   1.108   .     S
C1595  H1643   1.111   .     S
C1596  O1651   1.286   .     A
C1596  O1650   1.312   .     A
C1597  H1623   1.103   .     S
C1597  C1611   1.544   .     S
C1597  H1624   1.099   .     S
C1597  C1598   1.542   .     S
C1598  H1622   1.109   .     S
C1598  H1621   1.112   .     S
C1598  C1599   1.519   .     S
C1599  H1620   1.110   .     S
C1599  H1618   1.107   .     S
C1599  H1835   1.104   .     S
C1600  C1612   1.528   .     S
C1600  H1632   1.102   .     S
C1600  H1631   1.103   .     S
C1600  C1601   1.539   .     S
C1601  C1602   1.527   .     S
C1601  H1630   1.110   .     S
C1601  H1629   1.112   .     S
C1602  H1628   1.110   .     S
C1602  H1627   1.108   .     S
C1602  H1625   1.107   .     S
C1603  H1640   1.104   .     S
C1603  C1604   1.544   .     S
C1603  H1639   1.102   .     S
C1604  H1638   1.110   .     S
C1604  H1636   1.111   .     S
C1604  C1605   1.523   .     S
C1605  H1633   1.103   .     S
C1605  H1635   1.111   .     S
C1605  H1850   1.104   .     S
C1606  O1653   1.285   .     A
C1606  O1656   1.285   .     A
C1606  C1608   1.406   .     S
C1607  O1654   1.285   .     A
C1607  C1609   1.406   .     S
C1607  O1655   1.285   .     A
C1609  C312    1.189   1_556 S
C1611  C1658   1.420   .     S
C1612  C1682   1.404   .     S
Cu1613 N1647   2.008   .     S
Cu1613 O1649   1.996   .     S
Cu1613 Cu1614  2.672   .     S
Cu1613 O1653   1.931   .     S
Cu1613 O1651   1.992   .     S
Cu1613 O1655   1.930   .     S
Cu1614 O1652   1.992   .     S
Cu1614 O1650   1.996   .     S
Cu1614 O1654   1.931   .     S
Cu1614 N1648   2.008   .     S
Cu1614 O1656   1.930   .     S
H1645  C1666   1.107   .     S
C1657  C1660   1.481   .     S
C1657  O1724   1.313   .     A
C1657  O1721   1.278   .     A
C1658  C1660   1.434   .     A
C1658  C1675   1.544   .     S
C1659  C1683   1.448   .     A
C1659  C1684   1.425   .     A
C1659  C1668   1.494   .     S
C1660  C1682   1.402   .     A
C1661  N1720   1.367   .     A
C1661  H1687   1.081   .     S
C1662  N1719   1.367   .     A
C1662  H1698   1.081   .     S
C1662  C1879   1.413   .     S
C1663  N1720   1.365   .     A
C1663  H1709   1.080   .     S
C1664  H1713   1.081   .     S
C1664  N1719   1.367   .     A
C1664  C1877   1.414   .     S
C1665  C1666   1.536   .     S
C1665  H1689   1.107   .     S
C1665  C1682   1.531   .     S
C1665  H1688   1.109   .     S
C1666  H1718   1.112   .     S
C1666  C1667   1.527   .     S
C1667  H1714   1.111   .     S
C1667  H1716   1.108   .     S
C1667  H1715   1.111   .     S
C1668  O1723   1.286   .     A
C1668  O1722   1.312   .     A
C1669  H1695   1.103   .     S
C1669  C1683   1.544   .     S
C1669  H1696   1.099   .     S
C1669  C1670   1.542   .     S
C1670  H1694   1.109   .     S
C1670  H1693   1.112   .     S
C1670  C1671   1.519   .     S
C1671  H1692   1.110   .     S
C1671  H1690   1.107   .     S
C1671  H1907   1.104   .     S
C1672  C1684   1.528   .     S
C1672  H1704   1.102   .     S
C1672  H1703   1.103   .     S
C1672  C1673   1.539   .     S
C1673  C1674   1.527   .     S
C1673  H1702   1.110   .     S
C1673  H1701   1.112   .     S
C1674  H1700   1.110   .     S
C1674  H1699   1.108   .     S
C1674  H1697   1.107   .     S
C1675  H1712   1.104   .     S
C1675  C1676   1.544   .     S
C1675  H1711   1.102   .     S
C1676  H1710   1.110   .     S
C1676  H1708   1.111   .     S
C1676  C1677   1.523   .     S
C1677  H1705   1.103   .     S
C1677  H1707   1.111   .     S
C1677  H1922   1.104   .     S
C1678  O1725   1.285   .     A
C1678  O1728   1.285   .     A
C1678  C1680   1.406   .     S
C1679  O1726   1.285   .     A
C1679  C1681   1.406   .     S
C1679  O1727   1.285   .     A
C1681  C384    1.189   1_556 S
C1683  C1514   1.420   1_655 S
C1684  C1538   1.404   1_655 S
Cu1685 N1719   2.008   .     S
Cu1685 O1721   1.996   .     S
Cu1685 Cu1686  2.672   .     S
Cu1685 O1725   1.931   .     S
Cu1685 O1723   1.992   .     S
Cu1685 O1727   1.930   .     S
Cu1686 O1724   1.992   .     S
Cu1686 O1722   1.996   .     S
Cu1686 O1726   1.931   .     S
Cu1686 N1720   2.008   .     S
Cu1686 O1728   1.930   .     S
H1717  C1522   1.107   1_655 S
C1729  C1732   1.481   .     S
C1729  O1796   1.313   .     A
C1729  O1793   1.278   .     A
C1730  C1732   1.434   .     A
C1730  C1747   1.544   .     S
C1730  C1899   1.420   1_455 S
C1731  C1755   1.448   .     A
C1731  C1756   1.425   .     A
C1731  C1740   1.494   .     S
C1732  C1754   1.402   .     A
C1733  N1792   1.367   .     A
C1733  H1759   1.081   .     S
C1734  N1791   1.367   .     A
C1734  H1770   1.081   .     S
C1734  C1303   1.413   1_565 S
C1735  N1792   1.365   .     A
C1735  H1781   1.080   .     S
C1736  H1785   1.081   .     S
C1736  N1791   1.367   .     A
C1736  C1301   1.414   1_565 S
C1737  C1738   1.536   .     S
C1737  H1761   1.107   .     S
C1737  C1754   1.531   .     S
C1737  H1760   1.109   .     S
C1738  H1790   1.112   .     S
C1738  C1739   1.527   .     S
C1738  H1933   1.107   1_455 S
C1739  H1786   1.111   .     S
C1739  H1788   1.108   .     S
C1739  H1787   1.111   .     S
C1740  O1795   1.286   .     A
C1740  O1794   1.312   .     A
C1741  H1767   1.103   .     S
C1741  C1755   1.544   .     S
C1741  H1768   1.099   .     S
C1741  C1742   1.542   .     S
C1742  H1766   1.109   .     S
C1742  H1765   1.112   .     S
C1742  C1743   1.519   .     S
C1743  H1764   1.110   .     S
C1743  H1762   1.107   .     S
C1743  H1331   1.104   1_565 S
C1744  C1756   1.528   .     S
C1744  H1776   1.102   .     S
C1744  H1775   1.103   .     S
C1744  C1745   1.539   .     S
C1745  C1746   1.527   .     S
C1745  H1774   1.110   .     S
C1745  H1773   1.112   .     S
C1746  H1772   1.110   .     S
C1746  H1771   1.108   .     S
C1746  H1769   1.107   .     S
C1747  H1784   1.104   .     S
C1747  C1748   1.544   .     S
C1747  H1783   1.102   .     S
C1748  H1782   1.110   .     S
C1748  H1780   1.111   .     S
C1748  C1749   1.523   .     S
C1749  H1777   1.103   .     S
C1749  H1779   1.111   .     S
C1749  H1346   1.104   1_565 S
C1750  O1797   1.285   .     A
C1750  O1800   1.285   .     A
C1750  C1752   1.406   .     S
C1751  O1798   1.285   .     A
C1751  C1753   1.406   .     S
C1751  O1799   1.285   .     A
C1753  C456    1.189   1_556 S
C1754  C1900   1.404   1_455 S
C1755  C1802   1.420   .     S
C1756  C1826   1.404   .     S
Cu1757 N1791   2.008   .     S
Cu1757 O1793   1.996   .     S
Cu1757 Cu1758  2.672   .     S
Cu1757 O1797   1.931   .     S
Cu1757 O1795   1.992   .     S
Cu1757 O1799   1.930   .     S
Cu1758 O1796   1.992   .     S
Cu1758 O1794   1.996   .     S
Cu1758 O1798   1.931   .     S
Cu1758 N1792   2.008   .     S
Cu1758 O1800   1.930   .     S
H1789  C1810   1.107   .     S
C1801  C1804   1.481   .     S
C1801  O1868   1.313   .     A
C1801  O1865   1.278   .     A
C1802  C1804   1.434   .     A
C1802  C1819   1.544   .     S
C1803  C1827   1.448   .     A
C1803  C1828   1.425   .     A
C1803  C1812   1.494   .     S
C1804  C1826   1.402   .     A
C1805  N1864   1.367   .     A
C1805  H1831   1.081   .     S
C1806  N1863   1.367   .     A
C1806  H1842   1.081   .     S
C1806  C1375   1.413   1_565 S
C1807  N1864   1.365   .     A
C1807  H1853   1.080   .     S
C1808  H1857   1.081   .     S
C1808  N1863   1.367   .     A
C1808  C1373   1.414   1_565 S
C1809  C1810   1.536   .     S
C1809  H1833   1.107   .     S
C1809  C1826   1.531   .     S
C1809  H1832   1.109   .     S
C1810  H1862   1.112   .     S
C1810  C1811   1.527   .     S
C1811  H1858   1.111   .     S
C1811  H1860   1.108   .     S
C1811  H1859   1.111   .     S
C1812  O1867   1.286   .     A
C1812  O1866   1.312   .     A
C1813  H1839   1.103   .     S
C1813  C1827   1.544   .     S
C1813  H1840   1.099   .     S
C1813  C1814   1.542   .     S
C1814  H1838   1.109   .     S
C1814  H1837   1.112   .     S
C1814  C1815   1.519   .     S
C1815  H1836   1.110   .     S
C1815  H1834   1.107   .     S
C1815  H1403   1.104   1_565 S
C1816  C1828   1.528   .     S
C1816  H1848   1.102   .     S
C1816  H1847   1.103   .     S
C1816  C1817   1.539   .     S
C1817  C1818   1.527   .     S
C1817  H1846   1.110   .     S
C1817  H1845   1.112   .     S
C1818  H1844   1.110   .     S
C1818  H1843   1.108   .     S
C1818  H1841   1.107   .     S
C1819  H1856   1.104   .     S
C1819  C1820   1.544   .     S
C1819  H1855   1.102   .     S
C1820  H1854   1.110   .     S
C1820  H1852   1.111   .     S
C1820  C1821   1.523   .     S
C1821  H1849   1.103   .     S
C1821  H1851   1.111   .     S
C1821  H1418   1.104   1_565 S
C1822  O1869   1.285   .     A
C1822  O1872   1.285   .     A
C1822  C1824   1.406   .     S
C1823  O1870   1.285   .     A
C1823  C1825   1.406   .     S
C1823  O1871   1.285   .     A
C1825  C528    1.189   1_556 S
C1827  C1874   1.420   .     S
C1828  C1898   1.404   .     S
Cu1829 N1863   2.008   .     S
Cu1829 O1865   1.996   .     S
Cu1829 Cu1830  2.672   .     S
Cu1829 O1869   1.931   .     S
Cu1829 O1867   1.992   .     S
Cu1829 O1871   1.930   .     S
Cu1830 O1868   1.992   .     S
Cu1830 O1866   1.996   .     S
Cu1830 O1870   1.931   .     S
Cu1830 N1864   2.008   .     S
Cu1830 O1872   1.930   .     S
H1861  C1882   1.107   .     S
C1873  C1876   1.481   .     S
C1873  O1940   1.313   .     A
C1873  O1937   1.278   .     A
C1874  C1876   1.434   .     A
C1874  C1891   1.544   .     S
C1875  C1899   1.448   .     A
C1875  C1900   1.425   .     A
C1875  C1884   1.494   .     S
C1876  C1898   1.402   .     A
C1877  N1936   1.367   .     A
C1877  H1903   1.081   .     S
C1878  N1935   1.367   .     A
C1878  H1914   1.081   .     S
C1878  C1447   1.413   1_565 S
C1879  N1936   1.365   .     A
C1879  H1925   1.080   .     S
C1880  H1929   1.081   .     S
C1880  N1935   1.367   .     A
C1880  C1445   1.414   1_565 S
C1881  C1882   1.536   .     S
C1881  H1905   1.107   .     S
C1881  C1898   1.531   .     S
C1881  H1904   1.109   .     S
C1882  H1934   1.112   .     S
C1882  C1883   1.527   .     S
C1883  H1930   1.111   .     S
C1883  H1932   1.108   .     S
C1883  H1931   1.111   .     S
C1884  O1939   1.286   .     A
C1884  O1938   1.312   .     A
C1885  H1911   1.103   .     S
C1885  C1899   1.544   .     S
C1885  H1912   1.099   .     S
C1885  C1886   1.542   .     S
C1886  H1910   1.109   .     S
C1886  H1909   1.112   .     S
C1886  C1887   1.519   .     S
C1887  H1908   1.110   .     S
C1887  H1906   1.107   .     S
C1887  H1475   1.104   1_565 S
C1888  C1900   1.528   .     S
C1888  H1920   1.102   .     S
C1888  H1919   1.103   .     S
C1888  C1889   1.539   .     S
C1889  C1890   1.527   .     S
C1889  H1918   1.110   .     S
C1889  H1917   1.112   .     S
C1890  H1916   1.110   .     S
C1890  H1915   1.108   .     S
C1890  H1913   1.107   .     S
C1891  H1928   1.104   .     S
C1891  C1892   1.544   .     S
C1891  H1927   1.102   .     S
C1892  H1926   1.110   .     S
C1892  H1924   1.111   .     S
C1892  C1893   1.523   .     S
C1893  H1921   1.103   .     S
C1893  H1923   1.111   .     S
C1893  H1490   1.104   1_565 S
C1894  O1941   1.285   .     A
C1894  O1944   1.285   .     A
C1894  C1896   1.406   .     S
C1895  O1942   1.285   .     A
C1895  C1897   1.406   .     S
C1895  O1943   1.285   .     A
C1897  C600    1.189   1_556 S
C1899  C1730   1.420   1_655 S
C1900  C1754   1.404   1_655 S
Cu1901 N1935   2.008   .     S
Cu1901 O1937   1.996   .     S
Cu1901 Cu1902  2.672   .     S
Cu1901 O1941   1.931   .     S
Cu1901 O1939   1.992   .     S
Cu1901 O1943   1.930   .     S
Cu1902 O1940   1.992   .     S
Cu1902 O1938   1.996   .     S
Cu1902 O1942   1.931   .     S
Cu1902 N1936   2.008   .     S
Cu1902 O1944   1.930   .     S
H1933  C1738   1.107   1_655 S
