data_str_m2_o1_o1_pcu_sym.62
_audit_creation_date              2020-01-03
_audit_creation_method            'Materials Studio'
_symmetry_space_group_name_H-M    'P1'
_symmetry_Int_Tables_number       1
_symmetry_cell_setting            triclinic
loop_
_symmetry_equiv_pos_as_xyz
  x,y,z
_cell_length_a                    30.9729
_cell_length_b                    30.5935
_cell_length_c                    28.4653
_cell_angle_alpha                 91.9327
_cell_angle_beta                  89.9561
_cell_angle_gamma                 90.0761
loop_
_atom_site_label
_atom_site_type_symbol
_atom_site_fract_x
_atom_site_fract_y
_atom_site_fract_z
_atom_site_U_iso_or_equiv
_atom_site_adp_type
_atom_site_occupancy
C1     C     0.06034   0.19137   0.16604   0.00000  Uiso   1.00
C2     C     0.49689   0.28823   0.30985   0.00000  Uiso   1.00
C3     C     0.49690   0.28828   0.02619   0.00000  Uiso   1.00
C4     C     0.00310   0.21172   0.30715   0.00000  Uiso   1.00
C5     C     0.25311   0.46177   0.02348   0.00000  Uiso   1.00
C6     C     0.24689   0.03823   0.30985   0.00000  Uiso   1.00
C7     C     0.24690   0.03828   0.02619   0.00000  Uiso   1.00
C8     C     0.25310   0.46172   0.30715   0.00000  Uiso   1.00
C9     C     0.40571   0.12442   0.12987   0.00000  Uiso   1.00
C10    C     0.09429   0.37558   0.20346   0.00000  Uiso   1.00
C11    C     0.12596   0.34001   0.13291   0.00000  Uiso   1.00
C12    C     0.43966   0.30863   0.16730   0.00000  Uiso   1.00
C13    C     0.37404   0.15999   0.20043   0.00000  Uiso   1.00
C14    C     0.12216   0.15611   0.20440   0.00000  Uiso   1.00
C15    C     0.37784   0.34389   0.12893   0.00000  Uiso   1.00
C16    C     0.40055   0.37070   0.20731   0.00000  Uiso   1.00
C17    C     0.09945   0.12930   0.12602   0.00000  Uiso   1.00
C18    C     0.15571   0.37442   0.12987   0.00000  Uiso   1.00
C19    C     0.34429   0.12558   0.20346   0.00000  Uiso   1.00
C20    C     0.37596   0.09001   0.13291   0.00000  Uiso   1.00
C21    C     0.12404   0.40999   0.20043   0.00000  Uiso   1.00
C22    C     0.37216   0.40611   0.20440   0.00000  Uiso   1.00
C23    C     0.43996   0.19109   0.16606   0.00000  Uiso   1.00
C24    C     0.12784   0.09389   0.12893   0.00000  Uiso   1.00
C25    C     0.15055   0.12070   0.20731   0.00000  Uiso   1.00
C26    C     0.34945   0.37930   0.12602   0.00000  Uiso   1.00
C27    C     0.09432   0.34165   0.16849   0.00000  Uiso   1.00
C28    C     0.40568   0.15835   0.16485   0.00000  Uiso   1.00
C29    C     0.40487   0.34093   0.16852   0.00000  Uiso   1.00
C30    C     0.09513   0.15907   0.16481   0.00000  Uiso   1.00
C31    C     0.34432   0.09165   0.16849   0.00000  Uiso   1.00
C32    C     0.15568   0.40835   0.16485   0.00000  Uiso   1.00
C33    C     0.15487   0.09093   0.16852   0.00000  Uiso   1.00
C34    C     0.06004   0.30891   0.16727   0.00000  Uiso   1.00
C35    C     0.34513   0.40907   0.16481   0.00000  Uiso   1.00
C36    C     0.41861   0.14633   0.05031   0.00000  Uiso   1.00
C37    C     0.08139   0.35367   0.28302   0.00000  Uiso   1.00
C38    C     0.11180   0.30137   0.05725   0.00000  Uiso   1.00
C39    C     0.38820   0.19863   0.27608   0.00000  Uiso   1.00
C40    C     0.14549   0.22844   0.23050   0.00000  Uiso   1.00
C41    C     0.35451   0.27155   0.10283   0.00000  Uiso   1.00
C42    C     0.40081   0.34027   0.28403   0.00000  Uiso   1.00
C43    C     0.09919   0.15973   0.04931   0.00000  Uiso   1.00
C44    C     0.16861   0.39633   0.05031   0.00000  Uiso   1.00
C45    C     0.31034   0.44137   0.16604   0.00000  Uiso   1.00
C46    C     0.33139   0.10367   0.28302   0.00000  Uiso   1.00
C47    C     0.36180   0.05137   0.05725   0.00000  Uiso   1.00
C48    C     0.13820   0.44863   0.27608   0.00000  Uiso   1.00
C49    C     0.39549   0.47844   0.23050   0.00000  Uiso   1.00
C50    C     0.10451   0.02155   0.10283   0.00000  Uiso   1.00
C51    C     0.15081   0.09027   0.28403   0.00000  Uiso   1.00
C52    C     0.34919   0.40973   0.04931   0.00000  Uiso   1.00
C53    C     0.18966   0.05863   0.16730   0.00000  Uiso   1.00
C54    C     0.18996   0.44109   0.16606   0.00000  Uiso   1.00
C55    C     0.31004   0.05891   0.16727   0.00000  Uiso   1.00
C56    C     0.00311   0.21177   0.02348   0.00000  Uiso   1.00
Cu57   Cu    0.00000   0.25000   0.21355   0.00000  Uiso   1.00
Cu58   Cu    0.00000   0.25000   0.11978   0.00000  Uiso   1.00
Cu59   Cu    0.25000  -0.00000   0.21355   0.00000  Uiso   1.00
Cu60   Cu    0.25000  -0.00000   0.11978   0.00000  Uiso   1.00
H61    H     0.00561   0.18125   0.04127   0.00000  Uiso   1.00
H62    H     0.38647   0.13340   0.04021   0.00000  Uiso   1.00
H63    H     0.44093   0.14069   0.02022   0.00000  Uiso   1.00
H64    H     0.41509   0.18202   0.05704   0.00000  Uiso   1.00
H65    H     0.05035   0.40445   0.25015   0.00000  Uiso   1.00
H66    H     0.11353   0.36659   0.29312   0.00000  Uiso   1.00
H67    H     0.08491   0.31798   0.27629   0.00000  Uiso   1.00
H68    H     0.05907   0.35931   0.31311   0.00000  Uiso   1.00
H69    H     0.16035   0.28630   0.10527   0.00000  Uiso   1.00
H70    H     0.13737   0.30590   0.03048   0.00000  Uiso   1.00
H71    H     0.08699   0.32736   0.05450   0.00000  Uiso   1.00
H72    H     0.49439   0.31875   0.29206   0.00000  Uiso   1.00
H73    H     0.09592   0.26944   0.04959   0.00000  Uiso   1.00
H74    H     0.33965   0.21370   0.22806   0.00000  Uiso   1.00
H75    H     0.36263   0.19410   0.30285   0.00000  Uiso   1.00
H76    H     0.40408   0.23055   0.28374   0.00000  Uiso   1.00
H77    H     0.41301   0.17264   0.27883   0.00000  Uiso   1.00
H78    H     0.12562   0.17950   0.27458   0.00000  Uiso   1.00
H79    H     0.18047   0.22070   0.22797   0.00000  Uiso   1.00
H80    H     0.14054   0.25355   0.25908   0.00000  Uiso   1.00
H81    H     0.13444   0.24227   0.19698   0.00000  Uiso   1.00
H82    H     0.37438   0.32050   0.05875   0.00000  Uiso   1.00
H83    H     0.49452   0.31897   0.04601   0.00000  Uiso   1.00
H84    H     0.31953   0.27929   0.10537   0.00000  Uiso   1.00
H85    H     0.36556   0.25773   0.13635   0.00000  Uiso   1.00
H86    H     0.35946   0.24645   0.07426   0.00000  Uiso   1.00
H87    H     0.43876   0.39258   0.26340   0.00000  Uiso   1.00
H88    H     0.36975   0.35646   0.29323   0.00000  Uiso   1.00
H89    H     0.42029   0.33805   0.31652   0.00000  Uiso   1.00
H90    H     0.39381   0.30673   0.27007   0.00000  Uiso   1.00
H91    H     0.06124   0.10742   0.06994   0.00000  Uiso   1.00
H92    H     0.13025   0.14354   0.04011   0.00000  Uiso   1.00
H93    H     0.10619   0.19327   0.06327   0.00000  Uiso   1.00
H94    H     0.00548   0.18103   0.28732   0.00000  Uiso   1.00
H95    H     0.07971   0.16195   0.01681   0.00000  Uiso   1.00
H96    H     0.19965   0.34555   0.08318   0.00000  Uiso   1.00
H97    H     0.13647   0.38340   0.04021   0.00000  Uiso   1.00
H98    H     0.19093   0.39069   0.02022   0.00000  Uiso   1.00
H99    H     0.16509   0.43202   0.05704   0.00000  Uiso   1.00
H100   H     0.30035   0.15445   0.25015   0.00000  Uiso   1.00
H101   H     0.36353   0.11659   0.29312   0.00000  Uiso   1.00
H102   H     0.33491   0.06798   0.27629   0.00000  Uiso   1.00
H103   H     0.30907   0.10931   0.31311   0.00000  Uiso   1.00
H104   H     0.41035   0.03630   0.10527   0.00000  Uiso   1.00
H105   H     0.25561   0.43125   0.04127   0.00000  Uiso   1.00
H106   H     0.38737   0.05590   0.03048   0.00000  Uiso   1.00
H107   H     0.33699   0.07736   0.05450   0.00000  Uiso   1.00
H108   H     0.34592   0.01944   0.04959   0.00000  Uiso   1.00
H109   H     0.08965   0.46370   0.22806   0.00000  Uiso   1.00
H110   H     0.11263   0.44410   0.30285   0.00000  Uiso   1.00
H111   H     0.15408   0.48055   0.28374   0.00000  Uiso   1.00
H112   H     0.16301   0.42264   0.27883   0.00000  Uiso   1.00
H113   H     0.37562   0.42950   0.27458   0.00000  Uiso   1.00
H114   H     0.43047   0.47070   0.22797   0.00000  Uiso   1.00
H115   H     0.39054   0.00355   0.25908   0.00000  Uiso   1.00
H116   H     0.24439   0.06875   0.29206   0.00000  Uiso   1.00
H117   H     0.38444   0.49227   0.19698   0.00000  Uiso   1.00
H118   H     0.12438   0.07050   0.05875   0.00000  Uiso   1.00
H119   H     0.06953   0.02929   0.10537   0.00000  Uiso   1.00
H120   H     0.11556   0.00773   0.13635   0.00000  Uiso   1.00
H121   H     0.10946   0.49645   0.07426   0.00000  Uiso   1.00
H122   H     0.18876   0.14258   0.26340   0.00000  Uiso   1.00
H123   H     0.11975   0.10646   0.29323   0.00000  Uiso   1.00
H124   H     0.17029   0.08805   0.31652   0.00000  Uiso   1.00
H125   H     0.14381   0.05673   0.27007   0.00000  Uiso   1.00
H126   H     0.31124   0.35742   0.06994   0.00000  Uiso   1.00
H127   H     0.24452   0.06897   0.04601   0.00000  Uiso   1.00
H128   H     0.38025   0.39354   0.04011   0.00000  Uiso   1.00
H129   H     0.35619   0.44327   0.06327   0.00000  Uiso   1.00
H130   H     0.32971   0.41195   0.01681   0.00000  Uiso   1.00
H131   H     0.25548   0.43103   0.28732   0.00000  Uiso   1.00
H132   H     0.44965   0.09555   0.08318   0.00000  Uiso   1.00
N133   N     0.00000   0.25000   0.28402   0.00000  Uiso   1.00
N134   N     0.37884   0.31050   0.09257   0.00000  Uiso   1.00
N135   N     0.42427   0.36470   0.24947   0.00000  Uiso   1.00
N136   N     0.07573   0.13530   0.08386   0.00000  Uiso   1.00
N137   N     0.18526   0.37517   0.09142   0.00000  Uiso   1.00
N138   N     0.31474   0.12482   0.24191   0.00000  Uiso   1.00
N139   N     0.38061   0.05128   0.10382   0.00000  Uiso   1.00
N140   N     0.11939   0.44872   0.22951   0.00000  Uiso   1.00
N141   N     0.37117   0.43950   0.24077   0.00000  Uiso   1.00
N142   N     0.12884   0.06050   0.09257   0.00000  Uiso   1.00
N143   N     0.17427   0.11470   0.24947   0.00000  Uiso   1.00
N144   N     0.00000   0.25000   0.04931   0.00000  Uiso   1.00
N145   N     0.32573   0.38530   0.08386   0.00000  Uiso   1.00
N146   N     0.25000  -0.00000   0.28402   0.00000  Uiso   1.00
N147   N     0.25000  -0.00000   0.04931   0.00000  Uiso   1.00
N148   N     0.43526   0.12517   0.09142   0.00000  Uiso   1.00
N149   N     0.06474   0.37482   0.24191   0.00000  Uiso   1.00
N150   N     0.13061   0.30128   0.10382   0.00000  Uiso   1.00
N151   N     0.36939   0.19872   0.22951   0.00000  Uiso   1.00
N152   N     0.12117   0.18950   0.24077   0.00000  Uiso   1.00
O153   O     0.04509   0.20491   0.20625   0.00000  Uiso   1.00
O154   O     0.20492   0.04509   0.12709   0.00000  Uiso   1.00
O155   O     0.20492   0.04509   0.20625   0.00000  Uiso   1.00
O156   O     0.29509   0.45491   0.12709   0.00000  Uiso   1.00
O157   O     0.20492   0.45491   0.12709   0.00000  Uiso   1.00
O158   O     0.29509   0.04509   0.20625   0.00000  Uiso   1.00
O159   O     0.29509   0.04509   0.12709   0.00000  Uiso   1.00
O160   O     0.20492   0.45491   0.20625   0.00000  Uiso   1.00
O161   O     0.45492   0.29509   0.12709   0.00000  Uiso   1.00
O162   O     0.45492   0.29509   0.20625   0.00000  Uiso   1.00
O163   O     0.04509   0.20491   0.12709   0.00000  Uiso   1.00
O164   O     0.45492   0.20491   0.12709   0.00000  Uiso   1.00
O165   O     0.04509   0.29509   0.20625   0.00000  Uiso   1.00
O166   O     0.04509   0.29509   0.12709   0.00000  Uiso   1.00
O167   O     0.45492   0.20491   0.20625   0.00000  Uiso   1.00
O168   O     0.29509   0.45491   0.20625   0.00000  Uiso   1.00
C169   C     0.56034   0.19137   0.16604   0.00000  Uiso   1.00
C170   C     0.99689   0.28823   0.30985   0.00000  Uiso   1.00
C171   C     0.99690   0.28828   0.02619   0.00000  Uiso   1.00
C172   C     0.50310   0.21172   0.30715   0.00000  Uiso   1.00
C173   C     0.75311   0.46177   0.02348   0.00000  Uiso   1.00
C174   C     0.74689   0.03823   0.30985   0.00000  Uiso   1.00
C175   C     0.74690   0.03828   0.02619   0.00000  Uiso   1.00
C176   C     0.75310   0.46172   0.30715   0.00000  Uiso   1.00
C177   C     0.90571   0.12442   0.12987   0.00000  Uiso   1.00
C178   C     0.59429   0.37558   0.20346   0.00000  Uiso   1.00
C179   C     0.62596   0.34001   0.13291   0.00000  Uiso   1.00
C180   C     0.93966   0.30863   0.16730   0.00000  Uiso   1.00
C181   C     0.87404   0.15999   0.20043   0.00000  Uiso   1.00
C182   C     0.62216   0.15611   0.20440   0.00000  Uiso   1.00
C183   C     0.87784   0.34389   0.12893   0.00000  Uiso   1.00
C184   C     0.90055   0.37070   0.20731   0.00000  Uiso   1.00
C185   C     0.59945   0.12930   0.12602   0.00000  Uiso   1.00
C186   C     0.65571   0.37442   0.12987   0.00000  Uiso   1.00
C187   C     0.84429   0.12558   0.20346   0.00000  Uiso   1.00
C188   C     0.87596   0.09001   0.13291   0.00000  Uiso   1.00
C189   C     0.62404   0.40999   0.20043   0.00000  Uiso   1.00
C190   C     0.87216   0.40611   0.20440   0.00000  Uiso   1.00
C191   C     0.93996   0.19109   0.16606   0.00000  Uiso   1.00
C192   C     0.62784   0.09389   0.12893   0.00000  Uiso   1.00
C193   C     0.65055   0.12070   0.20731   0.00000  Uiso   1.00
C194   C     0.84945   0.37930   0.12602   0.00000  Uiso   1.00
C195   C     0.59432   0.34165   0.16849   0.00000  Uiso   1.00
C196   C     0.90568   0.15835   0.16485   0.00000  Uiso   1.00
C197   C     0.90487   0.34093   0.16852   0.00000  Uiso   1.00
C198   C     0.59513   0.15907   0.16481   0.00000  Uiso   1.00
C199   C     0.84432   0.09165   0.16849   0.00000  Uiso   1.00
C200   C     0.65568   0.40835   0.16485   0.00000  Uiso   1.00
C201   C     0.65487   0.09093   0.16852   0.00000  Uiso   1.00
C202   C     0.56004   0.30891   0.16727   0.00000  Uiso   1.00
C203   C     0.84513   0.40907   0.16481   0.00000  Uiso   1.00
C204   C     0.91861   0.14633   0.05031   0.00000  Uiso   1.00
C205   C     0.58139   0.35367   0.28302   0.00000  Uiso   1.00
C206   C     0.61180   0.30137   0.05725   0.00000  Uiso   1.00
C207   C     0.88820   0.19863   0.27608   0.00000  Uiso   1.00
C208   C     0.64549   0.22844   0.23050   0.00000  Uiso   1.00
C209   C     0.85451   0.27155   0.10283   0.00000  Uiso   1.00
C210   C     0.90081   0.34027   0.28403   0.00000  Uiso   1.00
C211   C     0.59919   0.15973   0.04931   0.00000  Uiso   1.00
C212   C     0.66861   0.39633   0.05031   0.00000  Uiso   1.00
C213   C     0.81034   0.44137   0.16604   0.00000  Uiso   1.00
C214   C     0.83139   0.10367   0.28302   0.00000  Uiso   1.00
C215   C     0.86180   0.05137   0.05725   0.00000  Uiso   1.00
C216   C     0.63820   0.44863   0.27608   0.00000  Uiso   1.00
C217   C     0.89549   0.47844   0.23050   0.00000  Uiso   1.00
C218   C     0.60451   0.02155   0.10283   0.00000  Uiso   1.00
C219   C     0.65081   0.09027   0.28403   0.00000  Uiso   1.00
C220   C     0.84919   0.40973   0.04931   0.00000  Uiso   1.00
C221   C     0.68966   0.05863   0.16730   0.00000  Uiso   1.00
C222   C     0.68996   0.44109   0.16606   0.00000  Uiso   1.00
C223   C     0.81004   0.05891   0.16727   0.00000  Uiso   1.00
C224   C     0.50311   0.21177   0.02348   0.00000  Uiso   1.00
Cu225  Cu    0.50000   0.25000   0.21355   0.00000  Uiso   1.00
Cu226  Cu    0.50000   0.25000   0.11978   0.00000  Uiso   1.00
Cu227  Cu    0.75000  -0.00000   0.21355   0.00000  Uiso   1.00
Cu228  Cu    0.75000  -0.00000   0.11978   0.00000  Uiso   1.00
H229   H     0.50561   0.18125   0.04127   0.00000  Uiso   1.00
H230   H     0.88647   0.13340   0.04021   0.00000  Uiso   1.00
H231   H     0.94093   0.14069   0.02022   0.00000  Uiso   1.00
H232   H     0.91509   0.18202   0.05704   0.00000  Uiso   1.00
H233   H     0.55035   0.40445   0.25015   0.00000  Uiso   1.00
H234   H     0.61353   0.36659   0.29312   0.00000  Uiso   1.00
H235   H     0.58491   0.31798   0.27629   0.00000  Uiso   1.00
H236   H     0.55907   0.35931   0.31311   0.00000  Uiso   1.00
H237   H     0.66035   0.28630   0.10527   0.00000  Uiso   1.00
H238   H     0.63737   0.30590   0.03048   0.00000  Uiso   1.00
H239   H     0.58699   0.32736   0.05450   0.00000  Uiso   1.00
H240   H     0.99439   0.31875   0.29206   0.00000  Uiso   1.00
H241   H     0.59592   0.26944   0.04959   0.00000  Uiso   1.00
H242   H     0.83965   0.21370   0.22806   0.00000  Uiso   1.00
H243   H     0.86263   0.19410   0.30285   0.00000  Uiso   1.00
H244   H     0.90408   0.23055   0.28374   0.00000  Uiso   1.00
H245   H     0.91301   0.17264   0.27883   0.00000  Uiso   1.00
H246   H     0.62562   0.17950   0.27458   0.00000  Uiso   1.00
H247   H     0.68047   0.22070   0.22797   0.00000  Uiso   1.00
H248   H     0.64054   0.25355   0.25908   0.00000  Uiso   1.00
H249   H     0.63444   0.24227   0.19698   0.00000  Uiso   1.00
H250   H     0.87438   0.32050   0.05875   0.00000  Uiso   1.00
H251   H     0.99452   0.31897   0.04601   0.00000  Uiso   1.00
H252   H     0.81953   0.27929   0.10537   0.00000  Uiso   1.00
H253   H     0.86556   0.25773   0.13635   0.00000  Uiso   1.00
H254   H     0.85946   0.24645   0.07426   0.00000  Uiso   1.00
H255   H     0.93876   0.39258   0.26340   0.00000  Uiso   1.00
H256   H     0.86975   0.35646   0.29323   0.00000  Uiso   1.00
H257   H     0.92029   0.33805   0.31652   0.00000  Uiso   1.00
H258   H     0.89381   0.30673   0.27007   0.00000  Uiso   1.00
H259   H     0.56124   0.10742   0.06994   0.00000  Uiso   1.00
H260   H     0.63025   0.14354   0.04011   0.00000  Uiso   1.00
H261   H     0.60619   0.19327   0.06327   0.00000  Uiso   1.00
H262   H     0.50548   0.18103   0.28732   0.00000  Uiso   1.00
H263   H     0.57971   0.16195   0.01681   0.00000  Uiso   1.00
H264   H     0.69965   0.34555   0.08318   0.00000  Uiso   1.00
H265   H     0.63647   0.38340   0.04021   0.00000  Uiso   1.00
H266   H     0.69093   0.39069   0.02022   0.00000  Uiso   1.00
H267   H     0.66509   0.43202   0.05704   0.00000  Uiso   1.00
H268   H     0.80035   0.15445   0.25015   0.00000  Uiso   1.00
H269   H     0.86353   0.11659   0.29312   0.00000  Uiso   1.00
H270   H     0.83491   0.06798   0.27629   0.00000  Uiso   1.00
H271   H     0.80907   0.10931   0.31311   0.00000  Uiso   1.00
H272   H     0.91035   0.03630   0.10527   0.00000  Uiso   1.00
H273   H     0.75561   0.43125   0.04127   0.00000  Uiso   1.00
H274   H     0.88737   0.05590   0.03048   0.00000  Uiso   1.00
H275   H     0.83699   0.07736   0.05450   0.00000  Uiso   1.00
H276   H     0.84592   0.01944   0.04959   0.00000  Uiso   1.00
H277   H     0.58965   0.46370   0.22806   0.00000  Uiso   1.00
H278   H     0.61263   0.44410   0.30285   0.00000  Uiso   1.00
H279   H     0.65408   0.48055   0.28374   0.00000  Uiso   1.00
H280   H     0.66301   0.42264   0.27883   0.00000  Uiso   1.00
H281   H     0.87562   0.42950   0.27458   0.00000  Uiso   1.00
H282   H     0.93047   0.47070   0.22797   0.00000  Uiso   1.00
H283   H     0.89054   0.00355   0.25908   0.00000  Uiso   1.00
H284   H     0.74439   0.06875   0.29206   0.00000  Uiso   1.00
H285   H     0.88444   0.49227   0.19698   0.00000  Uiso   1.00
H286   H     0.62438   0.07050   0.05875   0.00000  Uiso   1.00
H287   H     0.56953   0.02929   0.10537   0.00000  Uiso   1.00
H288   H     0.61556   0.00773   0.13635   0.00000  Uiso   1.00
H289   H     0.60946   0.49645   0.07426   0.00000  Uiso   1.00
H290   H     0.68876   0.14258   0.26340   0.00000  Uiso   1.00
H291   H     0.61975   0.10646   0.29323   0.00000  Uiso   1.00
H292   H     0.67029   0.08805   0.31652   0.00000  Uiso   1.00
H293   H     0.64381   0.05673   0.27007   0.00000  Uiso   1.00
H294   H     0.81124   0.35742   0.06994   0.00000  Uiso   1.00
H295   H     0.74452   0.06897   0.04601   0.00000  Uiso   1.00
H296   H     0.88025   0.39354   0.04011   0.00000  Uiso   1.00
H297   H     0.85619   0.44327   0.06327   0.00000  Uiso   1.00
H298   H     0.82971   0.41195   0.01681   0.00000  Uiso   1.00
H299   H     0.75548   0.43103   0.28732   0.00000  Uiso   1.00
H300   H     0.94965   0.09555   0.08318   0.00000  Uiso   1.00
N301   N     0.50000   0.25000   0.28402   0.00000  Uiso   1.00
N302   N     0.87884   0.31050   0.09257   0.00000  Uiso   1.00
N303   N     0.92427   0.36470   0.24947   0.00000  Uiso   1.00
N304   N     0.57573   0.13530   0.08386   0.00000  Uiso   1.00
N305   N     0.68526   0.37517   0.09142   0.00000  Uiso   1.00
N306   N     0.81474   0.12482   0.24191   0.00000  Uiso   1.00
N307   N     0.88061   0.05128   0.10382   0.00000  Uiso   1.00
N308   N     0.61939   0.44872   0.22951   0.00000  Uiso   1.00
N309   N     0.87117   0.43950   0.24077   0.00000  Uiso   1.00
N310   N     0.62884   0.06050   0.09257   0.00000  Uiso   1.00
N311   N     0.67427   0.11470   0.24947   0.00000  Uiso   1.00
N312   N     0.50000   0.25000   0.04931   0.00000  Uiso   1.00
N313   N     0.82573   0.38530   0.08386   0.00000  Uiso   1.00
N314   N     0.75000  -0.00000   0.28402   0.00000  Uiso   1.00
N315   N     0.75000  -0.00000   0.04931   0.00000  Uiso   1.00
N316   N     0.93526   0.12517   0.09142   0.00000  Uiso   1.00
N317   N     0.56474   0.37482   0.24191   0.00000  Uiso   1.00
N318   N     0.63061   0.30128   0.10382   0.00000  Uiso   1.00
N319   N     0.86939   0.19872   0.22951   0.00000  Uiso   1.00
N320   N     0.62117   0.18950   0.24077   0.00000  Uiso   1.00
O321   O     0.54509   0.20491   0.20625   0.00000  Uiso   1.00
O322   O     0.70492   0.04509   0.12709   0.00000  Uiso   1.00
O323   O     0.70492   0.04509   0.20625   0.00000  Uiso   1.00
O324   O     0.79509   0.45491   0.12709   0.00000  Uiso   1.00
O325   O     0.70492   0.45491   0.12709   0.00000  Uiso   1.00
O326   O     0.79509   0.04509   0.20625   0.00000  Uiso   1.00
O327   O     0.79509   0.04509   0.12709   0.00000  Uiso   1.00
O328   O     0.70492   0.45491   0.20625   0.00000  Uiso   1.00
O329   O     0.95492   0.29509   0.12709   0.00000  Uiso   1.00
O330   O     0.95492   0.29509   0.20625   0.00000  Uiso   1.00
O331   O     0.54509   0.20491   0.12709   0.00000  Uiso   1.00
O332   O     0.95492   0.20491   0.12709   0.00000  Uiso   1.00
O333   O     0.54509   0.29509   0.20625   0.00000  Uiso   1.00
O334   O     0.54509   0.29509   0.12709   0.00000  Uiso   1.00
O335   O     0.95492   0.20491   0.20625   0.00000  Uiso   1.00
O336   O     0.79509   0.45491   0.20625   0.00000  Uiso   1.00
C337   C     0.06034   0.69137   0.16604   0.00000  Uiso   1.00
C338   C     0.49689   0.78823   0.30985   0.00000  Uiso   1.00
C339   C     0.49690   0.78828   0.02619   0.00000  Uiso   1.00
C340   C     0.00310   0.71172   0.30715   0.00000  Uiso   1.00
C341   C     0.25311   0.96177   0.02348   0.00000  Uiso   1.00
C342   C     0.24689   0.53823   0.30985   0.00000  Uiso   1.00
C343   C     0.24690   0.53828   0.02619   0.00000  Uiso   1.00
C344   C     0.25310   0.96172   0.30715   0.00000  Uiso   1.00
C345   C     0.40571   0.62442   0.12987   0.00000  Uiso   1.00
C346   C     0.09429   0.87558   0.20346   0.00000  Uiso   1.00
C347   C     0.12596   0.84001   0.13291   0.00000  Uiso   1.00
C348   C     0.43966   0.80863   0.16730   0.00000  Uiso   1.00
C349   C     0.37404   0.65999   0.20043   0.00000  Uiso   1.00
C350   C     0.12216   0.65611   0.20440   0.00000  Uiso   1.00
C351   C     0.37784   0.84389   0.12893   0.00000  Uiso   1.00
C352   C     0.40055   0.87070   0.20731   0.00000  Uiso   1.00
C353   C     0.09945   0.62930   0.12602   0.00000  Uiso   1.00
C354   C     0.15571   0.87442   0.12987   0.00000  Uiso   1.00
C355   C     0.34429   0.62558   0.20346   0.00000  Uiso   1.00
C356   C     0.37596   0.59001   0.13291   0.00000  Uiso   1.00
C357   C     0.12404   0.90999   0.20043   0.00000  Uiso   1.00
C358   C     0.37216   0.90611   0.20440   0.00000  Uiso   1.00
C359   C     0.43996   0.69109   0.16606   0.00000  Uiso   1.00
C360   C     0.12784   0.59389   0.12893   0.00000  Uiso   1.00
C361   C     0.15055   0.62070   0.20731   0.00000  Uiso   1.00
C362   C     0.34945   0.87930   0.12602   0.00000  Uiso   1.00
C363   C     0.09432   0.84165   0.16849   0.00000  Uiso   1.00
C364   C     0.40568   0.65835   0.16485   0.00000  Uiso   1.00
C365   C     0.40487   0.84093   0.16852   0.00000  Uiso   1.00
C366   C     0.09513   0.65907   0.16481   0.00000  Uiso   1.00
C367   C     0.34432   0.59165   0.16849   0.00000  Uiso   1.00
C368   C     0.15568   0.90835   0.16485   0.00000  Uiso   1.00
C369   C     0.15487   0.59093   0.16852   0.00000  Uiso   1.00
C370   C     0.06004   0.80891   0.16727   0.00000  Uiso   1.00
C371   C     0.34513   0.90907   0.16481   0.00000  Uiso   1.00
C372   C     0.41861   0.64633   0.05031   0.00000  Uiso   1.00
C373   C     0.08139   0.85367   0.28302   0.00000  Uiso   1.00
C374   C     0.11180   0.80137   0.05725   0.00000  Uiso   1.00
C375   C     0.38820   0.69863   0.27608   0.00000  Uiso   1.00
C376   C     0.14549   0.72844   0.23050   0.00000  Uiso   1.00
C377   C     0.35451   0.77155   0.10283   0.00000  Uiso   1.00
C378   C     0.40081   0.84027   0.28403   0.00000  Uiso   1.00
C379   C     0.09919   0.65973   0.04931   0.00000  Uiso   1.00
C380   C     0.16861   0.89633   0.05031   0.00000  Uiso   1.00
C381   C     0.31034   0.94137   0.16604   0.00000  Uiso   1.00
C382   C     0.33139   0.60367   0.28302   0.00000  Uiso   1.00
C383   C     0.36180   0.55137   0.05725   0.00000  Uiso   1.00
C384   C     0.13820   0.94863   0.27608   0.00000  Uiso   1.00
C385   C     0.39549   0.97844   0.23050   0.00000  Uiso   1.00
C386   C     0.10451   0.52155   0.10283   0.00000  Uiso   1.00
C387   C     0.15081   0.59027   0.28403   0.00000  Uiso   1.00
C388   C     0.34919   0.90973   0.04931   0.00000  Uiso   1.00
C389   C     0.18966   0.55863   0.16730   0.00000  Uiso   1.00
C390   C     0.18996   0.94109   0.16606   0.00000  Uiso   1.00
C391   C     0.31004   0.55891   0.16727   0.00000  Uiso   1.00
C392   C     0.00311   0.71177   0.02348   0.00000  Uiso   1.00
Cu393  Cu    0.00000   0.75000   0.21355   0.00000  Uiso   1.00
Cu394  Cu    0.00000   0.75000   0.11978   0.00000  Uiso   1.00
Cu395  Cu    0.25000   0.50000   0.21355   0.00000  Uiso   1.00
Cu396  Cu    0.25000   0.50000   0.11978   0.00000  Uiso   1.00
H397   H     0.00561   0.68125   0.04127   0.00000  Uiso   1.00
H398   H     0.38647   0.63340   0.04021   0.00000  Uiso   1.00
H399   H     0.44093   0.64069   0.02022   0.00000  Uiso   1.00
H400   H     0.41509   0.68202   0.05704   0.00000  Uiso   1.00
H401   H     0.05035   0.90445   0.25015   0.00000  Uiso   1.00
H402   H     0.11353   0.86659   0.29312   0.00000  Uiso   1.00
H403   H     0.08491   0.81798   0.27629   0.00000  Uiso   1.00
H404   H     0.05907   0.85931   0.31311   0.00000  Uiso   1.00
H405   H     0.16035   0.78630   0.10527   0.00000  Uiso   1.00
H406   H     0.13737   0.80590   0.03048   0.00000  Uiso   1.00
H407   H     0.08699   0.82736   0.05450   0.00000  Uiso   1.00
H408   H     0.49439   0.81875   0.29206   0.00000  Uiso   1.00
H409   H     0.09592   0.76944   0.04959   0.00000  Uiso   1.00
H410   H     0.33965   0.71370   0.22806   0.00000  Uiso   1.00
H411   H     0.36263   0.69410   0.30285   0.00000  Uiso   1.00
H412   H     0.40408   0.73055   0.28374   0.00000  Uiso   1.00
H413   H     0.41301   0.67264   0.27883   0.00000  Uiso   1.00
H414   H     0.12562   0.67950   0.27458   0.00000  Uiso   1.00
H415   H     0.18047   0.72070   0.22797   0.00000  Uiso   1.00
H416   H     0.14054   0.75355   0.25908   0.00000  Uiso   1.00
H417   H     0.13444   0.74227   0.19698   0.00000  Uiso   1.00
H418   H     0.37438   0.82050   0.05875   0.00000  Uiso   1.00
H419   H     0.49452   0.81897   0.04601   0.00000  Uiso   1.00
H420   H     0.31953   0.77929   0.10537   0.00000  Uiso   1.00
H421   H     0.36556   0.75773   0.13635   0.00000  Uiso   1.00
H422   H     0.35946   0.74645   0.07426   0.00000  Uiso   1.00
H423   H     0.43876   0.89258   0.26340   0.00000  Uiso   1.00
H424   H     0.36975   0.85646   0.29323   0.00000  Uiso   1.00
H425   H     0.42029   0.83805   0.31652   0.00000  Uiso   1.00
H426   H     0.39381   0.80673   0.27007   0.00000  Uiso   1.00
H427   H     0.06124   0.60742   0.06994   0.00000  Uiso   1.00
H428   H     0.13025   0.64354   0.04011   0.00000  Uiso   1.00
H429   H     0.10619   0.69327   0.06327   0.00000  Uiso   1.00
H430   H     0.00548   0.68103   0.28732   0.00000  Uiso   1.00
H431   H     0.07971   0.66195   0.01681   0.00000  Uiso   1.00
H432   H     0.19965   0.84555   0.08318   0.00000  Uiso   1.00
H433   H     0.13647   0.88340   0.04021   0.00000  Uiso   1.00
H434   H     0.19093   0.89069   0.02022   0.00000  Uiso   1.00
H435   H     0.16509   0.93202   0.05704   0.00000  Uiso   1.00
H436   H     0.30035   0.65445   0.25015   0.00000  Uiso   1.00
H437   H     0.36353   0.61659   0.29312   0.00000  Uiso   1.00
H438   H     0.33491   0.56798   0.27629   0.00000  Uiso   1.00
H439   H     0.30907   0.60931   0.31311   0.00000  Uiso   1.00
H440   H     0.41035   0.53630   0.10527   0.00000  Uiso   1.00
H441   H     0.25561   0.93125   0.04127   0.00000  Uiso   1.00
H442   H     0.38737   0.55590   0.03048   0.00000  Uiso   1.00
H443   H     0.33699   0.57736   0.05450   0.00000  Uiso   1.00
H444   H     0.34592   0.51944   0.04959   0.00000  Uiso   1.00
H445   H     0.08965   0.96370   0.22806   0.00000  Uiso   1.00
H446   H     0.11263   0.94410   0.30285   0.00000  Uiso   1.00
H447   H     0.15408   0.98055   0.28374   0.00000  Uiso   1.00
H448   H     0.16301   0.92264   0.27883   0.00000  Uiso   1.00
H449   H     0.37562   0.92950   0.27458   0.00000  Uiso   1.00
H450   H     0.43047   0.97070   0.22797   0.00000  Uiso   1.00
H451   H     0.39054   0.50355   0.25908   0.00000  Uiso   1.00
H452   H     0.24439   0.56875   0.29206   0.00000  Uiso   1.00
H453   H     0.38444   0.99227   0.19698   0.00000  Uiso   1.00
H454   H     0.12438   0.57050   0.05875   0.00000  Uiso   1.00
H455   H     0.06953   0.52929   0.10537   0.00000  Uiso   1.00
H456   H     0.11556   0.50773   0.13635   0.00000  Uiso   1.00
H457   H     0.10946   0.99645   0.07426   0.00000  Uiso   1.00
H458   H     0.18876   0.64258   0.26340   0.00000  Uiso   1.00
H459   H     0.11975   0.60646   0.29323   0.00000  Uiso   1.00
H460   H     0.17029   0.58805   0.31652   0.00000  Uiso   1.00
H461   H     0.14381   0.55673   0.27007   0.00000  Uiso   1.00
H462   H     0.31124   0.85742   0.06994   0.00000  Uiso   1.00
H463   H     0.24452   0.56897   0.04601   0.00000  Uiso   1.00
H464   H     0.38025   0.89354   0.04011   0.00000  Uiso   1.00
H465   H     0.35619   0.94327   0.06327   0.00000  Uiso   1.00
H466   H     0.32971   0.91195   0.01681   0.00000  Uiso   1.00
H467   H     0.25548   0.93103   0.28732   0.00000  Uiso   1.00
H468   H     0.44965   0.59555   0.08318   0.00000  Uiso   1.00
N469   N     0.00000   0.75000   0.28402   0.00000  Uiso   1.00
N470   N     0.37884   0.81050   0.09257   0.00000  Uiso   1.00
N471   N     0.42427   0.86470   0.24947   0.00000  Uiso   1.00
N472   N     0.07573   0.63530   0.08386   0.00000  Uiso   1.00
N473   N     0.18526   0.87517   0.09142   0.00000  Uiso   1.00
N474   N     0.31474   0.62482   0.24191   0.00000  Uiso   1.00
N475   N     0.38061   0.55128   0.10382   0.00000  Uiso   1.00
N476   N     0.11939   0.94872   0.22951   0.00000  Uiso   1.00
N477   N     0.37117   0.93950   0.24077   0.00000  Uiso   1.00
N478   N     0.12884   0.56050   0.09257   0.00000  Uiso   1.00
N479   N     0.17427   0.61470   0.24947   0.00000  Uiso   1.00
N480   N     0.00000   0.75000   0.04931   0.00000  Uiso   1.00
N481   N     0.32573   0.88530   0.08386   0.00000  Uiso   1.00
N482   N     0.25000   0.50000   0.28402   0.00000  Uiso   1.00
N483   N     0.25000   0.50000   0.04931   0.00000  Uiso   1.00
N484   N     0.43526   0.62517   0.09142   0.00000  Uiso   1.00
N485   N     0.06474   0.87482   0.24191   0.00000  Uiso   1.00
N486   N     0.13061   0.80128   0.10382   0.00000  Uiso   1.00
N487   N     0.36939   0.69872   0.22951   0.00000  Uiso   1.00
N488   N     0.12117   0.68950   0.24077   0.00000  Uiso   1.00
O489   O     0.04509   0.70491   0.20625   0.00000  Uiso   1.00
O490   O     0.20492   0.54509   0.12709   0.00000  Uiso   1.00
O491   O     0.20492   0.54509   0.20625   0.00000  Uiso   1.00
O492   O     0.29509   0.95491   0.12709   0.00000  Uiso   1.00
O493   O     0.20492   0.95491   0.12709   0.00000  Uiso   1.00
O494   O     0.29509   0.54509   0.20625   0.00000  Uiso   1.00
O495   O     0.29509   0.54509   0.12709   0.00000  Uiso   1.00
O496   O     0.20492   0.95491   0.20625   0.00000  Uiso   1.00
O497   O     0.45492   0.79509   0.12709   0.00000  Uiso   1.00
O498   O     0.45492   0.79509   0.20625   0.00000  Uiso   1.00
O499   O     0.04509   0.70491   0.12709   0.00000  Uiso   1.00
O500   O     0.45492   0.70491   0.12709   0.00000  Uiso   1.00
O501   O     0.04509   0.79509   0.20625   0.00000  Uiso   1.00
O502   O     0.04509   0.79509   0.12709   0.00000  Uiso   1.00
O503   O     0.45492   0.70491   0.20625   0.00000  Uiso   1.00
O504   O     0.29509   0.95491   0.20625   0.00000  Uiso   1.00
C505   C     0.56034   0.69137   0.16604   0.00000  Uiso   1.00
C506   C     0.99689   0.78823   0.30985   0.00000  Uiso   1.00
C507   C     0.99690   0.78828   0.02619   0.00000  Uiso   1.00
C508   C     0.50310   0.71172   0.30715   0.00000  Uiso   1.00
C509   C     0.75311   0.96177   0.02348   0.00000  Uiso   1.00
C510   C     0.74689   0.53823   0.30985   0.00000  Uiso   1.00
C511   C     0.74690   0.53828   0.02619   0.00000  Uiso   1.00
C512   C     0.75310   0.96172   0.30715   0.00000  Uiso   1.00
C513   C     0.90571   0.62442   0.12987   0.00000  Uiso   1.00
C514   C     0.59429   0.87558   0.20346   0.00000  Uiso   1.00
C515   C     0.62596   0.84001   0.13291   0.00000  Uiso   1.00
C516   C     0.93966   0.80863   0.16730   0.00000  Uiso   1.00
C517   C     0.87404   0.65999   0.20043   0.00000  Uiso   1.00
C518   C     0.62216   0.65611   0.20440   0.00000  Uiso   1.00
C519   C     0.87784   0.84389   0.12893   0.00000  Uiso   1.00
C520   C     0.90055   0.87070   0.20731   0.00000  Uiso   1.00
C521   C     0.59945   0.62930   0.12602   0.00000  Uiso   1.00
C522   C     0.65571   0.87442   0.12987   0.00000  Uiso   1.00
C523   C     0.84429   0.62558   0.20346   0.00000  Uiso   1.00
C524   C     0.87596   0.59001   0.13291   0.00000  Uiso   1.00
C525   C     0.62404   0.90999   0.20043   0.00000  Uiso   1.00
C526   C     0.87216   0.90611   0.20440   0.00000  Uiso   1.00
C527   C     0.93996   0.69109   0.16606   0.00000  Uiso   1.00
C528   C     0.62784   0.59389   0.12893   0.00000  Uiso   1.00
C529   C     0.65055   0.62070   0.20731   0.00000  Uiso   1.00
C530   C     0.84945   0.87930   0.12602   0.00000  Uiso   1.00
C531   C     0.59432   0.84165   0.16849   0.00000  Uiso   1.00
C532   C     0.90568   0.65835   0.16485   0.00000  Uiso   1.00
C533   C     0.90487   0.84093   0.16852   0.00000  Uiso   1.00
C534   C     0.59513   0.65907   0.16481   0.00000  Uiso   1.00
C535   C     0.84432   0.59165   0.16849   0.00000  Uiso   1.00
C536   C     0.65568   0.90835   0.16485   0.00000  Uiso   1.00
C537   C     0.65487   0.59093   0.16852   0.00000  Uiso   1.00
C538   C     0.56004   0.80891   0.16727   0.00000  Uiso   1.00
C539   C     0.84513   0.90907   0.16481   0.00000  Uiso   1.00
C540   C     0.91861   0.64633   0.05031   0.00000  Uiso   1.00
C541   C     0.58139   0.85367   0.28302   0.00000  Uiso   1.00
C542   C     0.61180   0.80137   0.05725   0.00000  Uiso   1.00
C543   C     0.88820   0.69863   0.27608   0.00000  Uiso   1.00
C544   C     0.64549   0.72844   0.23050   0.00000  Uiso   1.00
C545   C     0.85451   0.77155   0.10283   0.00000  Uiso   1.00
C546   C     0.90081   0.84027   0.28403   0.00000  Uiso   1.00
C547   C     0.59919   0.65973   0.04931   0.00000  Uiso   1.00
C548   C     0.66861   0.89633   0.05031   0.00000  Uiso   1.00
C549   C     0.81034   0.94137   0.16604   0.00000  Uiso   1.00
C550   C     0.83139   0.60367   0.28302   0.00000  Uiso   1.00
C551   C     0.86180   0.55137   0.05725   0.00000  Uiso   1.00
C552   C     0.63820   0.94863   0.27608   0.00000  Uiso   1.00
C553   C     0.89549   0.97844   0.23050   0.00000  Uiso   1.00
C554   C     0.60451   0.52155   0.10283   0.00000  Uiso   1.00
C555   C     0.65081   0.59027   0.28403   0.00000  Uiso   1.00
C556   C     0.84919   0.90973   0.04931   0.00000  Uiso   1.00
C557   C     0.68966   0.55863   0.16730   0.00000  Uiso   1.00
C558   C     0.68996   0.94109   0.16606   0.00000  Uiso   1.00
C559   C     0.81004   0.55891   0.16727   0.00000  Uiso   1.00
C560   C     0.50311   0.71177   0.02348   0.00000  Uiso   1.00
Cu561  Cu    0.50000   0.75000   0.21355   0.00000  Uiso   1.00
Cu562  Cu    0.50000   0.75000   0.11978   0.00000  Uiso   1.00
Cu563  Cu    0.75000   0.50000   0.21355   0.00000  Uiso   1.00
Cu564  Cu    0.75000   0.50000   0.11978   0.00000  Uiso   1.00
H565   H     0.50561   0.68125   0.04127   0.00000  Uiso   1.00
H566   H     0.88647   0.63340   0.04021   0.00000  Uiso   1.00
H567   H     0.94093   0.64069   0.02022   0.00000  Uiso   1.00
H568   H     0.91509   0.68202   0.05704   0.00000  Uiso   1.00
H569   H     0.55035   0.90445   0.25015   0.00000  Uiso   1.00
H570   H     0.61353   0.86659   0.29312   0.00000  Uiso   1.00
H571   H     0.58491   0.81798   0.27629   0.00000  Uiso   1.00
H572   H     0.55907   0.85931   0.31311   0.00000  Uiso   1.00
H573   H     0.66035   0.78630   0.10527   0.00000  Uiso   1.00
H574   H     0.63737   0.80590   0.03048   0.00000  Uiso   1.00
H575   H     0.58699   0.82736   0.05450   0.00000  Uiso   1.00
H576   H     0.99439   0.81875   0.29206   0.00000  Uiso   1.00
H577   H     0.59592   0.76944   0.04959   0.00000  Uiso   1.00
H578   H     0.83965   0.71370   0.22806   0.00000  Uiso   1.00
H579   H     0.86263   0.69410   0.30285   0.00000  Uiso   1.00
H580   H     0.90408   0.73055   0.28374   0.00000  Uiso   1.00
H581   H     0.91301   0.67264   0.27883   0.00000  Uiso   1.00
H582   H     0.62562   0.67950   0.27458   0.00000  Uiso   1.00
H583   H     0.68047   0.72070   0.22797   0.00000  Uiso   1.00
H584   H     0.64054   0.75355   0.25908   0.00000  Uiso   1.00
H585   H     0.63444   0.74227   0.19698   0.00000  Uiso   1.00
H586   H     0.87438   0.82050   0.05875   0.00000  Uiso   1.00
H587   H     0.99452   0.81897   0.04601   0.00000  Uiso   1.00
H588   H     0.81953   0.77929   0.10537   0.00000  Uiso   1.00
H589   H     0.86556   0.75773   0.13635   0.00000  Uiso   1.00
H590   H     0.85946   0.74645   0.07426   0.00000  Uiso   1.00
H591   H     0.93876   0.89258   0.26340   0.00000  Uiso   1.00
H592   H     0.86975   0.85646   0.29323   0.00000  Uiso   1.00
H593   H     0.92029   0.83805   0.31652   0.00000  Uiso   1.00
H594   H     0.89381   0.80673   0.27007   0.00000  Uiso   1.00
H595   H     0.56124   0.60742   0.06994   0.00000  Uiso   1.00
H596   H     0.63025   0.64354   0.04011   0.00000  Uiso   1.00
H597   H     0.60619   0.69327   0.06327   0.00000  Uiso   1.00
H598   H     0.50548   0.68103   0.28732   0.00000  Uiso   1.00
H599   H     0.57971   0.66195   0.01681   0.00000  Uiso   1.00
H600   H     0.69965   0.84555   0.08318   0.00000  Uiso   1.00
H601   H     0.63647   0.88340   0.04021   0.00000  Uiso   1.00
H602   H     0.69093   0.89069   0.02022   0.00000  Uiso   1.00
H603   H     0.66509   0.93202   0.05704   0.00000  Uiso   1.00
H604   H     0.80035   0.65445   0.25015   0.00000  Uiso   1.00
H605   H     0.86353   0.61659   0.29312   0.00000  Uiso   1.00
H606   H     0.83491   0.56798   0.27629   0.00000  Uiso   1.00
H607   H     0.80907   0.60931   0.31311   0.00000  Uiso   1.00
H608   H     0.91035   0.53630   0.10527   0.00000  Uiso   1.00
H609   H     0.75561   0.93125   0.04127   0.00000  Uiso   1.00
H610   H     0.88737   0.55590   0.03048   0.00000  Uiso   1.00
H611   H     0.83699   0.57736   0.05450   0.00000  Uiso   1.00
H612   H     0.84592   0.51944   0.04959   0.00000  Uiso   1.00
H613   H     0.58965   0.96370   0.22806   0.00000  Uiso   1.00
H614   H     0.61263   0.94410   0.30285   0.00000  Uiso   1.00
H615   H     0.65408   0.98055   0.28374   0.00000  Uiso   1.00
H616   H     0.66301   0.92264   0.27883   0.00000  Uiso   1.00
H617   H     0.87562   0.92950   0.27458   0.00000  Uiso   1.00
H618   H     0.93047   0.97070   0.22797   0.00000  Uiso   1.00
H619   H     0.89054   0.50355   0.25908   0.00000  Uiso   1.00
H620   H     0.74439   0.56875   0.29206   0.00000  Uiso   1.00
H621   H     0.88444   0.99227   0.19698   0.00000  Uiso   1.00
H622   H     0.62438   0.57050   0.05875   0.00000  Uiso   1.00
H623   H     0.56953   0.52929   0.10537   0.00000  Uiso   1.00
H624   H     0.61556   0.50773   0.13635   0.00000  Uiso   1.00
H625   H     0.60946   0.99645   0.07426   0.00000  Uiso   1.00
H626   H     0.68876   0.64258   0.26340   0.00000  Uiso   1.00
H627   H     0.61975   0.60646   0.29323   0.00000  Uiso   1.00
H628   H     0.67029   0.58805   0.31652   0.00000  Uiso   1.00
H629   H     0.64381   0.55673   0.27007   0.00000  Uiso   1.00
H630   H     0.81124   0.85742   0.06994   0.00000  Uiso   1.00
H631   H     0.74452   0.56897   0.04601   0.00000  Uiso   1.00
H632   H     0.88025   0.89354   0.04011   0.00000  Uiso   1.00
H633   H     0.85619   0.94327   0.06327   0.00000  Uiso   1.00
H634   H     0.82971   0.91195   0.01681   0.00000  Uiso   1.00
H635   H     0.75548   0.93103   0.28732   0.00000  Uiso   1.00
H636   H     0.94965   0.59555   0.08318   0.00000  Uiso   1.00
N637   N     0.50000   0.75000   0.28402   0.00000  Uiso   1.00
N638   N     0.87884   0.81050   0.09257   0.00000  Uiso   1.00
N639   N     0.92427   0.86470   0.24947   0.00000  Uiso   1.00
N640   N     0.57573   0.63530   0.08386   0.00000  Uiso   1.00
N641   N     0.68526   0.87517   0.09142   0.00000  Uiso   1.00
N642   N     0.81474   0.62482   0.24191   0.00000  Uiso   1.00
N643   N     0.88061   0.55128   0.10382   0.00000  Uiso   1.00
N644   N     0.61939   0.94872   0.22951   0.00000  Uiso   1.00
N645   N     0.87117   0.93950   0.24077   0.00000  Uiso   1.00
N646   N     0.62884   0.56050   0.09257   0.00000  Uiso   1.00
N647   N     0.67427   0.61470   0.24947   0.00000  Uiso   1.00
N648   N     0.50000   0.75000   0.04931   0.00000  Uiso   1.00
N649   N     0.82573   0.88530   0.08386   0.00000  Uiso   1.00
N650   N     0.75000   0.50000   0.28402   0.00000  Uiso   1.00
N651   N     0.75000   0.50000   0.04931   0.00000  Uiso   1.00
N652   N     0.93526   0.62517   0.09142   0.00000  Uiso   1.00
N653   N     0.56474   0.87482   0.24191   0.00000  Uiso   1.00
N654   N     0.63061   0.80128   0.10382   0.00000  Uiso   1.00
N655   N     0.86939   0.69872   0.22951   0.00000  Uiso   1.00
N656   N     0.62117   0.68950   0.24077   0.00000  Uiso   1.00
O657   O     0.54509   0.70491   0.20625   0.00000  Uiso   1.00
O658   O     0.70492   0.54509   0.12709   0.00000  Uiso   1.00
O659   O     0.70492   0.54509   0.20625   0.00000  Uiso   1.00
O660   O     0.79509   0.95491   0.12709   0.00000  Uiso   1.00
O661   O     0.70492   0.95491   0.12709   0.00000  Uiso   1.00
O662   O     0.79509   0.54509   0.20625   0.00000  Uiso   1.00
O663   O     0.79509   0.54509   0.12709   0.00000  Uiso   1.00
O664   O     0.70492   0.95491   0.20625   0.00000  Uiso   1.00
O665   O     0.95492   0.79509   0.12709   0.00000  Uiso   1.00
O666   O     0.95492   0.79509   0.20625   0.00000  Uiso   1.00
O667   O     0.54509   0.70491   0.12709   0.00000  Uiso   1.00
O668   O     0.95492   0.70491   0.12709   0.00000  Uiso   1.00
O669   O     0.54509   0.79509   0.20625   0.00000  Uiso   1.00
O670   O     0.54509   0.79509   0.12709   0.00000  Uiso   1.00
O671   O     0.95492   0.70491   0.20625   0.00000  Uiso   1.00
O672   O     0.79509   0.95491   0.20625   0.00000  Uiso   1.00
C673   C     0.06034   0.19137   0.49937   0.00000  Uiso   1.00
C674   C     0.49689   0.28823   0.64318   0.00000  Uiso   1.00
C675   C     0.49690   0.28828   0.35952   0.00000  Uiso   1.00
C676   C     0.00310   0.21172   0.64048   0.00000  Uiso   1.00
C677   C     0.25311   0.46177   0.35682   0.00000  Uiso   1.00
C678   C     0.24689   0.03823   0.64318   0.00000  Uiso   1.00
C679   C     0.24690   0.03828   0.35952   0.00000  Uiso   1.00
C680   C     0.25310   0.46172   0.64048   0.00000  Uiso   1.00
C681   C     0.40571   0.12442   0.46321   0.00000  Uiso   1.00
C682   C     0.09429   0.37558   0.53679   0.00000  Uiso   1.00
C683   C     0.12596   0.34001   0.46624   0.00000  Uiso   1.00
C684   C     0.43966   0.30863   0.50063   0.00000  Uiso   1.00
C685   C     0.37404   0.15999   0.53376   0.00000  Uiso   1.00
C686   C     0.12216   0.15611   0.53774   0.00000  Uiso   1.00
C687   C     0.37784   0.34389   0.46226   0.00000  Uiso   1.00
C688   C     0.40055   0.37070   0.54065   0.00000  Uiso   1.00
C689   C     0.09945   0.12930   0.45935   0.00000  Uiso   1.00
C690   C     0.15571   0.37442   0.46321   0.00000  Uiso   1.00
C691   C     0.34429   0.12558   0.53679   0.00000  Uiso   1.00
C692   C     0.37596   0.09001   0.46624   0.00000  Uiso   1.00
C693   C     0.12404   0.40999   0.53376   0.00000  Uiso   1.00
C694   C     0.37216   0.40611   0.53774   0.00000  Uiso   1.00
C695   C     0.43996   0.19109   0.49939   0.00000  Uiso   1.00
C696   C     0.12784   0.09389   0.46226   0.00000  Uiso   1.00
C697   C     0.15055   0.12070   0.54065   0.00000  Uiso   1.00
C698   C     0.34945   0.37930   0.45935   0.00000  Uiso   1.00
C699   C     0.09432   0.34165   0.50182   0.00000  Uiso   1.00
C700   C     0.40568   0.15835   0.49818   0.00000  Uiso   1.00
C701   C     0.40487   0.34093   0.50185   0.00000  Uiso   1.00
C702   C     0.09513   0.15907   0.49815   0.00000  Uiso   1.00
C703   C     0.34432   0.09165   0.50182   0.00000  Uiso   1.00
C704   C     0.15568   0.40835   0.49818   0.00000  Uiso   1.00
C705   C     0.15487   0.09093   0.50185   0.00000  Uiso   1.00
C706   C     0.06004   0.30891   0.50061   0.00000  Uiso   1.00
C707   C     0.34513   0.40907   0.49815   0.00000  Uiso   1.00
C708   C     0.41861   0.14633   0.38365   0.00000  Uiso   1.00
C709   C     0.08139   0.35367   0.61636   0.00000  Uiso   1.00
C710   C     0.11180   0.30137   0.39058   0.00000  Uiso   1.00
C711   C     0.38820   0.19863   0.60942   0.00000  Uiso   1.00
C712   C     0.14549   0.22844   0.56383   0.00000  Uiso   1.00
C713   C     0.35451   0.27155   0.43617   0.00000  Uiso   1.00
C714   C     0.40081   0.34027   0.61736   0.00000  Uiso   1.00
C715   C     0.09919   0.15973   0.38264   0.00000  Uiso   1.00
C716   C     0.16861   0.39633   0.38365   0.00000  Uiso   1.00
C717   C     0.31034   0.44137   0.49937   0.00000  Uiso   1.00
C718   C     0.33139   0.10367   0.61636   0.00000  Uiso   1.00
C719   C     0.36180   0.05137   0.39058   0.00000  Uiso   1.00
C720   C     0.13820   0.44863   0.60942   0.00000  Uiso   1.00
C721   C     0.39549   0.47844   0.56383   0.00000  Uiso   1.00
C722   C     0.10451   0.02155   0.43617   0.00000  Uiso   1.00
C723   C     0.15081   0.09027   0.61736   0.00000  Uiso   1.00
C724   C     0.34919   0.40973   0.38264   0.00000  Uiso   1.00
C725   C     0.18966   0.05863   0.50063   0.00000  Uiso   1.00
C726   C     0.18996   0.44109   0.49939   0.00000  Uiso   1.00
C727   C     0.31004   0.05891   0.50061   0.00000  Uiso   1.00
C728   C     0.00311   0.21177   0.35682   0.00000  Uiso   1.00
Cu729  Cu    0.00000   0.25000   0.54689   0.00000  Uiso   1.00
Cu730  Cu    0.00000   0.25000   0.45311   0.00000  Uiso   1.00
Cu731  Cu    0.25000  -0.00000   0.54689   0.00000  Uiso   1.00
Cu732  Cu    0.25000  -0.00000   0.45311   0.00000  Uiso   1.00
H733   H     0.00561   0.18125   0.37461   0.00000  Uiso   1.00
H734   H     0.38647   0.13340   0.37354   0.00000  Uiso   1.00
H735   H     0.44093   0.14069   0.35355   0.00000  Uiso   1.00
H736   H     0.41509   0.18202   0.39037   0.00000  Uiso   1.00
H737   H     0.05035   0.40445   0.58348   0.00000  Uiso   1.00
H738   H     0.11353   0.36659   0.62646   0.00000  Uiso   1.00
H739   H     0.08491   0.31798   0.60963   0.00000  Uiso   1.00
H740   H     0.05907   0.35931   0.64645   0.00000  Uiso   1.00
H741   H     0.16035   0.28630   0.43861   0.00000  Uiso   1.00
H742   H     0.13737   0.30590   0.36381   0.00000  Uiso   1.00
H743   H     0.08699   0.32736   0.38783   0.00000  Uiso   1.00
H744   H     0.49439   0.31875   0.62539   0.00000  Uiso   1.00
H745   H     0.09592   0.26944   0.38292   0.00000  Uiso   1.00
H746   H     0.33965   0.21370   0.56139   0.00000  Uiso   1.00
H747   H     0.36263   0.19410   0.63619   0.00000  Uiso   1.00
H748   H     0.40408   0.23055   0.61708   0.00000  Uiso   1.00
H749   H     0.41301   0.17264   0.61217   0.00000  Uiso   1.00
H750   H     0.12562   0.17950   0.60791   0.00000  Uiso   1.00
H751   H     0.18047   0.22070   0.56130   0.00000  Uiso   1.00
H752   H     0.14054   0.25355   0.59241   0.00000  Uiso   1.00
H753   H     0.13444   0.24227   0.53032   0.00000  Uiso   1.00
H754   H     0.37438   0.32050   0.39209   0.00000  Uiso   1.00
H755   H     0.49452   0.31897   0.37934   0.00000  Uiso   1.00
H756   H     0.31953   0.27929   0.43870   0.00000  Uiso   1.00
H757   H     0.36556   0.25773   0.46968   0.00000  Uiso   1.00
H758   H     0.35946   0.24645   0.40759   0.00000  Uiso   1.00
H759   H     0.43876   0.39258   0.59673   0.00000  Uiso   1.00
H760   H     0.36975   0.35646   0.62656   0.00000  Uiso   1.00
H761   H     0.42029   0.33805   0.64985   0.00000  Uiso   1.00
H762   H     0.39381   0.30673   0.60340   0.00000  Uiso   1.00
H763   H     0.06124   0.10742   0.40327   0.00000  Uiso   1.00
H764   H     0.13025   0.14354   0.37344   0.00000  Uiso   1.00
H765   H     0.10619   0.19327   0.39660   0.00000  Uiso   1.00
H766   H     0.00548   0.18103   0.62066   0.00000  Uiso   1.00
H767   H     0.07971   0.16195   0.35015   0.00000  Uiso   1.00
H768   H     0.19965   0.34555   0.41652   0.00000  Uiso   1.00
H769   H     0.13647   0.38340   0.37354   0.00000  Uiso   1.00
H770   H     0.19093   0.39069   0.35355   0.00000  Uiso   1.00
H771   H     0.16509   0.43202   0.39037   0.00000  Uiso   1.00
H772   H     0.30035   0.15445   0.58348   0.00000  Uiso   1.00
H773   H     0.36353   0.11659   0.62646   0.00000  Uiso   1.00
H774   H     0.33491   0.06798   0.60963   0.00000  Uiso   1.00
H775   H     0.30907   0.10931   0.64645   0.00000  Uiso   1.00
H776   H     0.41035   0.03630   0.43861   0.00000  Uiso   1.00
H777   H     0.25561   0.43125   0.37461   0.00000  Uiso   1.00
H778   H     0.38737   0.05590   0.36381   0.00000  Uiso   1.00
H779   H     0.33699   0.07736   0.38783   0.00000  Uiso   1.00
H780   H     0.34592   0.01944   0.38292   0.00000  Uiso   1.00
H781   H     0.08965   0.46370   0.56139   0.00000  Uiso   1.00
H782   H     0.11263   0.44410   0.63619   0.00000  Uiso   1.00
H783   H     0.15408   0.48055   0.61708   0.00000  Uiso   1.00
H784   H     0.16301   0.42264   0.61217   0.00000  Uiso   1.00
H785   H     0.37562   0.42950   0.60791   0.00000  Uiso   1.00
H786   H     0.43047   0.47070   0.56130   0.00000  Uiso   1.00
H787   H     0.39054   0.00355   0.59241   0.00000  Uiso   1.00
H788   H     0.24439   0.06875   0.62539   0.00000  Uiso   1.00
H789   H     0.38444   0.49227   0.53032   0.00000  Uiso   1.00
H790   H     0.12438   0.07050   0.39209   0.00000  Uiso   1.00
H791   H     0.06953   0.02929   0.43870   0.00000  Uiso   1.00
H792   H     0.11556   0.00773   0.46968   0.00000  Uiso   1.00
H793   H     0.10946   0.49645   0.40759   0.00000  Uiso   1.00
H794   H     0.18876   0.14258   0.59673   0.00000  Uiso   1.00
H795   H     0.11975   0.10646   0.62656   0.00000  Uiso   1.00
H796   H     0.17029   0.08805   0.64985   0.00000  Uiso   1.00
H797   H     0.14381   0.05673   0.60340   0.00000  Uiso   1.00
H798   H     0.31124   0.35742   0.40327   0.00000  Uiso   1.00
H799   H     0.24452   0.06897   0.37934   0.00000  Uiso   1.00
H800   H     0.38025   0.39354   0.37344   0.00000  Uiso   1.00
H801   H     0.35619   0.44327   0.39660   0.00000  Uiso   1.00
H802   H     0.32971   0.41195   0.35015   0.00000  Uiso   1.00
H803   H     0.25548   0.43103   0.62066   0.00000  Uiso   1.00
H804   H     0.44965   0.09555   0.41652   0.00000  Uiso   1.00
N805   N     0.00000   0.25000   0.61736   0.00000  Uiso   1.00
N806   N     0.37884   0.31050   0.42590   0.00000  Uiso   1.00
N807   N     0.42427   0.36470   0.58280   0.00000  Uiso   1.00
N808   N     0.07573   0.13530   0.41720   0.00000  Uiso   1.00
N809   N     0.18526   0.37517   0.42476   0.00000  Uiso   1.00
N810   N     0.31474   0.12482   0.57524   0.00000  Uiso   1.00
N811   N     0.38061   0.05128   0.43716   0.00000  Uiso   1.00
N812   N     0.11939   0.44872   0.56284   0.00000  Uiso   1.00
N813   N     0.37117   0.43950   0.57410   0.00000  Uiso   1.00
N814   N     0.12884   0.06050   0.42590   0.00000  Uiso   1.00
N815   N     0.17427   0.11470   0.58280   0.00000  Uiso   1.00
N816   N     0.00000   0.25000   0.38264   0.00000  Uiso   1.00
N817   N     0.32573   0.38530   0.41720   0.00000  Uiso   1.00
N818   N     0.25000  -0.00000   0.61736   0.00000  Uiso   1.00
N819   N     0.25000  -0.00000   0.38264   0.00000  Uiso   1.00
N820   N     0.43526   0.12517   0.42476   0.00000  Uiso   1.00
N821   N     0.06474   0.37482   0.57524   0.00000  Uiso   1.00
N822   N     0.13061   0.30128   0.43716   0.00000  Uiso   1.00
N823   N     0.36939   0.19872   0.56284   0.00000  Uiso   1.00
N824   N     0.12117   0.18950   0.57410   0.00000  Uiso   1.00
O825   O     0.04509   0.20491   0.53958   0.00000  Uiso   1.00
O826   O     0.20492   0.04509   0.46042   0.00000  Uiso   1.00
O827   O     0.20492   0.04509   0.53958   0.00000  Uiso   1.00
O828   O     0.29509   0.45491   0.46042   0.00000  Uiso   1.00
O829   O     0.20492   0.45491   0.46042   0.00000  Uiso   1.00
O830   O     0.29509   0.04509   0.53958   0.00000  Uiso   1.00
O831   O     0.29509   0.04509   0.46042   0.00000  Uiso   1.00
O832   O     0.20492   0.45491   0.53958   0.00000  Uiso   1.00
O833   O     0.45492   0.29509   0.46042   0.00000  Uiso   1.00
O834   O     0.45492   0.29509   0.53958   0.00000  Uiso   1.00
O835   O     0.04509   0.20491   0.46042   0.00000  Uiso   1.00
O836   O     0.45492   0.20491   0.46042   0.00000  Uiso   1.00
O837   O     0.04509   0.29509   0.53958   0.00000  Uiso   1.00
O838   O     0.04509   0.29509   0.46042   0.00000  Uiso   1.00
O839   O     0.45492   0.20491   0.53958   0.00000  Uiso   1.00
O840   O     0.29509   0.45491   0.53958   0.00000  Uiso   1.00
C841   C     0.56034   0.19137   0.49937   0.00000  Uiso   1.00
C842   C     0.99689   0.28823   0.64318   0.00000  Uiso   1.00
C843   C     0.99690   0.28828   0.35952   0.00000  Uiso   1.00
C844   C     0.50310   0.21172   0.64048   0.00000  Uiso   1.00
C845   C     0.75311   0.46177   0.35682   0.00000  Uiso   1.00
C846   C     0.74689   0.03823   0.64318   0.00000  Uiso   1.00
C847   C     0.74690   0.03828   0.35952   0.00000  Uiso   1.00
C848   C     0.75310   0.46172   0.64048   0.00000  Uiso   1.00
C849   C     0.90571   0.12442   0.46321   0.00000  Uiso   1.00
C850   C     0.59429   0.37558   0.53679   0.00000  Uiso   1.00
C851   C     0.62596   0.34001   0.46624   0.00000  Uiso   1.00
C852   C     0.93966   0.30863   0.50063   0.00000  Uiso   1.00
C853   C     0.87404   0.15999   0.53376   0.00000  Uiso   1.00
C854   C     0.62216   0.15611   0.53774   0.00000  Uiso   1.00
C855   C     0.87784   0.34389   0.46226   0.00000  Uiso   1.00
C856   C     0.90055   0.37070   0.54065   0.00000  Uiso   1.00
C857   C     0.59945   0.12930   0.45935   0.00000  Uiso   1.00
C858   C     0.65571   0.37442   0.46321   0.00000  Uiso   1.00
C859   C     0.84429   0.12558   0.53679   0.00000  Uiso   1.00
C860   C     0.87596   0.09001   0.46624   0.00000  Uiso   1.00
C861   C     0.62404   0.40999   0.53376   0.00000  Uiso   1.00
C862   C     0.87216   0.40611   0.53774   0.00000  Uiso   1.00
C863   C     0.93996   0.19109   0.49939   0.00000  Uiso   1.00
C864   C     0.62784   0.09389   0.46226   0.00000  Uiso   1.00
C865   C     0.65055   0.12070   0.54065   0.00000  Uiso   1.00
C866   C     0.84945   0.37930   0.45935   0.00000  Uiso   1.00
C867   C     0.59432   0.34165   0.50182   0.00000  Uiso   1.00
C868   C     0.90568   0.15835   0.49818   0.00000  Uiso   1.00
C869   C     0.90487   0.34093   0.50185   0.00000  Uiso   1.00
C870   C     0.59513   0.15907   0.49815   0.00000  Uiso   1.00
C871   C     0.84432   0.09165   0.50182   0.00000  Uiso   1.00
C872   C     0.65568   0.40835   0.49818   0.00000  Uiso   1.00
C873   C     0.65487   0.09093   0.50185   0.00000  Uiso   1.00
C874   C     0.56004   0.30891   0.50061   0.00000  Uiso   1.00
C875   C     0.84513   0.40907   0.49815   0.00000  Uiso   1.00
C876   C     0.91861   0.14633   0.38365   0.00000  Uiso   1.00
C877   C     0.58139   0.35367   0.61636   0.00000  Uiso   1.00
C878   C     0.61180   0.30137   0.39058   0.00000  Uiso   1.00
C879   C     0.88820   0.19863   0.60942   0.00000  Uiso   1.00
C880   C     0.64549   0.22844   0.56383   0.00000  Uiso   1.00
C881   C     0.85451   0.27155   0.43617   0.00000  Uiso   1.00
C882   C     0.90081   0.34027   0.61736   0.00000  Uiso   1.00
C883   C     0.59919   0.15973   0.38264   0.00000  Uiso   1.00
C884   C     0.66861   0.39633   0.38365   0.00000  Uiso   1.00
C885   C     0.81034   0.44137   0.49937   0.00000  Uiso   1.00
C886   C     0.83139   0.10367   0.61636   0.00000  Uiso   1.00
C887   C     0.86180   0.05137   0.39058   0.00000  Uiso   1.00
C888   C     0.63820   0.44863   0.60942   0.00000  Uiso   1.00
C889   C     0.89549   0.47844   0.56383   0.00000  Uiso   1.00
C890   C     0.60451   0.02155   0.43617   0.00000  Uiso   1.00
C891   C     0.65081   0.09027   0.61736   0.00000  Uiso   1.00
C892   C     0.84919   0.40973   0.38264   0.00000  Uiso   1.00
C893   C     0.68966   0.05863   0.50063   0.00000  Uiso   1.00
C894   C     0.68996   0.44109   0.49939   0.00000  Uiso   1.00
C895   C     0.81004   0.05891   0.50061   0.00000  Uiso   1.00
C896   C     0.50311   0.21177   0.35682   0.00000  Uiso   1.00
Cu897  Cu    0.50000   0.25000   0.54689   0.00000  Uiso   1.00
Cu898  Cu    0.50000   0.25000   0.45311   0.00000  Uiso   1.00
Cu899  Cu    0.75000  -0.00000   0.54689   0.00000  Uiso   1.00
Cu900  Cu    0.75000  -0.00000   0.45311   0.00000  Uiso   1.00
H901   H     0.50561   0.18125   0.37461   0.00000  Uiso   1.00
H902   H     0.88647   0.13340   0.37354   0.00000  Uiso   1.00
H903   H     0.94093   0.14069   0.35355   0.00000  Uiso   1.00
H904   H     0.91509   0.18202   0.39037   0.00000  Uiso   1.00
H905   H     0.55035   0.40445   0.58348   0.00000  Uiso   1.00
H906   H     0.61353   0.36659   0.62646   0.00000  Uiso   1.00
H907   H     0.58491   0.31798   0.60963   0.00000  Uiso   1.00
H908   H     0.55907   0.35931   0.64645   0.00000  Uiso   1.00
H909   H     0.66035   0.28630   0.43861   0.00000  Uiso   1.00
H910   H     0.63737   0.30590   0.36381   0.00000  Uiso   1.00
H911   H     0.58699   0.32736   0.38783   0.00000  Uiso   1.00
H912   H     0.99439   0.31875   0.62539   0.00000  Uiso   1.00
H913   H     0.59592   0.26944   0.38292   0.00000  Uiso   1.00
H914   H     0.83965   0.21370   0.56139   0.00000  Uiso   1.00
H915   H     0.86263   0.19410   0.63619   0.00000  Uiso   1.00
H916   H     0.90408   0.23055   0.61708   0.00000  Uiso   1.00
H917   H     0.91301   0.17264   0.61217   0.00000  Uiso   1.00
H918   H     0.62562   0.17950   0.60791   0.00000  Uiso   1.00
H919   H     0.68047   0.22070   0.56130   0.00000  Uiso   1.00
H920   H     0.64054   0.25355   0.59241   0.00000  Uiso   1.00
H921   H     0.63444   0.24227   0.53032   0.00000  Uiso   1.00
H922   H     0.87438   0.32050   0.39209   0.00000  Uiso   1.00
H923   H     0.99452   0.31897   0.37934   0.00000  Uiso   1.00
H924   H     0.81953   0.27929   0.43870   0.00000  Uiso   1.00
H925   H     0.86556   0.25773   0.46968   0.00000  Uiso   1.00
H926   H     0.85946   0.24645   0.40759   0.00000  Uiso   1.00
H927   H     0.93876   0.39258   0.59673   0.00000  Uiso   1.00
H928   H     0.86975   0.35646   0.62656   0.00000  Uiso   1.00
H929   H     0.92029   0.33805   0.64985   0.00000  Uiso   1.00
H930   H     0.89381   0.30673   0.60340   0.00000  Uiso   1.00
H931   H     0.56124   0.10742   0.40327   0.00000  Uiso   1.00
H932   H     0.63025   0.14354   0.37344   0.00000  Uiso   1.00
H933   H     0.60619   0.19327   0.39660   0.00000  Uiso   1.00
H934   H     0.50548   0.18103   0.62066   0.00000  Uiso   1.00
H935   H     0.57971   0.16195   0.35015   0.00000  Uiso   1.00
H936   H     0.69965   0.34555   0.41652   0.00000  Uiso   1.00
H937   H     0.63647   0.38340   0.37354   0.00000  Uiso   1.00
H938   H     0.69093   0.39069   0.35355   0.00000  Uiso   1.00
H939   H     0.66509   0.43202   0.39037   0.00000  Uiso   1.00
H940   H     0.80035   0.15445   0.58348   0.00000  Uiso   1.00
H941   H     0.86353   0.11659   0.62646   0.00000  Uiso   1.00
H942   H     0.83491   0.06798   0.60963   0.00000  Uiso   1.00
H943   H     0.80907   0.10931   0.64645   0.00000  Uiso   1.00
H944   H     0.91035   0.03630   0.43861   0.00000  Uiso   1.00
H945   H     0.75561   0.43125   0.37461   0.00000  Uiso   1.00
H946   H     0.88737   0.05590   0.36381   0.00000  Uiso   1.00
H947   H     0.83699   0.07736   0.38783   0.00000  Uiso   1.00
H948   H     0.84592   0.01944   0.38292   0.00000  Uiso   1.00
H949   H     0.58965   0.46370   0.56139   0.00000  Uiso   1.00
H950   H     0.61263   0.44410   0.63619   0.00000  Uiso   1.00
H951   H     0.65408   0.48055   0.61708   0.00000  Uiso   1.00
H952   H     0.66301   0.42264   0.61217   0.00000  Uiso   1.00
H953   H     0.87562   0.42950   0.60791   0.00000  Uiso   1.00
H954   H     0.93047   0.47070   0.56130   0.00000  Uiso   1.00
H955   H     0.89054   0.00355   0.59241   0.00000  Uiso   1.00
H956   H     0.74439   0.06875   0.62539   0.00000  Uiso   1.00
H957   H     0.88444   0.49227   0.53032   0.00000  Uiso   1.00
H958   H     0.62438   0.07050   0.39209   0.00000  Uiso   1.00
H959   H     0.56953   0.02929   0.43870   0.00000  Uiso   1.00
H960   H     0.61556   0.00773   0.46968   0.00000  Uiso   1.00
H961   H     0.60946   0.49645   0.40759   0.00000  Uiso   1.00
H962   H     0.68876   0.14258   0.59673   0.00000  Uiso   1.00
H963   H     0.61975   0.10646   0.62656   0.00000  Uiso   1.00
H964   H     0.67029   0.08805   0.64985   0.00000  Uiso   1.00
H965   H     0.64381   0.05673   0.60340   0.00000  Uiso   1.00
H966   H     0.81124   0.35742   0.40327   0.00000  Uiso   1.00
H967   H     0.74452   0.06897   0.37934   0.00000  Uiso   1.00
H968   H     0.88025   0.39354   0.37344   0.00000  Uiso   1.00
H969   H     0.85619   0.44327   0.39660   0.00000  Uiso   1.00
H970   H     0.82971   0.41195   0.35015   0.00000  Uiso   1.00
H971   H     0.75548   0.43103   0.62066   0.00000  Uiso   1.00
H972   H     0.94965   0.09555   0.41652   0.00000  Uiso   1.00
N973   N     0.50000   0.25000   0.61736   0.00000  Uiso   1.00
N974   N     0.87884   0.31050   0.42590   0.00000  Uiso   1.00
N975   N     0.92427   0.36470   0.58280   0.00000  Uiso   1.00
N976   N     0.57573   0.13530   0.41720   0.00000  Uiso   1.00
N977   N     0.68526   0.37517   0.42476   0.00000  Uiso   1.00
N978   N     0.81474   0.12482   0.57524   0.00000  Uiso   1.00
N979   N     0.88061   0.05128   0.43716   0.00000  Uiso   1.00
N980   N     0.61939   0.44872   0.56284   0.00000  Uiso   1.00
N981   N     0.87117   0.43950   0.57410   0.00000  Uiso   1.00
N982   N     0.62884   0.06050   0.42590   0.00000  Uiso   1.00
N983   N     0.67427   0.11470   0.58280   0.00000  Uiso   1.00
N984   N     0.50000   0.25000   0.38264   0.00000  Uiso   1.00
N985   N     0.82573   0.38530   0.41720   0.00000  Uiso   1.00
N986   N     0.75000  -0.00000   0.61736   0.00000  Uiso   1.00
N987   N     0.75000  -0.00000   0.38264   0.00000  Uiso   1.00
N988   N     0.93526   0.12517   0.42476   0.00000  Uiso   1.00
N989   N     0.56474   0.37482   0.57524   0.00000  Uiso   1.00
N990   N     0.63061   0.30128   0.43716   0.00000  Uiso   1.00
N991   N     0.86939   0.19872   0.56284   0.00000  Uiso   1.00
N992   N     0.62117   0.18950   0.57410   0.00000  Uiso   1.00
O993   O     0.54509   0.20491   0.53958   0.00000  Uiso   1.00
O994   O     0.70492   0.04509   0.46042   0.00000  Uiso   1.00
O995   O     0.70492   0.04509   0.53958   0.00000  Uiso   1.00
O996   O     0.79509   0.45491   0.46042   0.00000  Uiso   1.00
O997   O     0.70492   0.45491   0.46042   0.00000  Uiso   1.00
O998   O     0.79509   0.04509   0.53958   0.00000  Uiso   1.00
O999   O     0.79509   0.04509   0.46042   0.00000  Uiso   1.00
O1000  O     0.70492   0.45491   0.53958   0.00000  Uiso   1.00
O1001  O     0.95492   0.29509   0.46042   0.00000  Uiso   1.00
O1002  O     0.95492   0.29509   0.53958   0.00000  Uiso   1.00
O1003  O     0.54509   0.20491   0.46042   0.00000  Uiso   1.00
O1004  O     0.95492   0.20491   0.46042   0.00000  Uiso   1.00
O1005  O     0.54509   0.29509   0.53958   0.00000  Uiso   1.00
O1006  O     0.54509   0.29509   0.46042   0.00000  Uiso   1.00
O1007  O     0.95492   0.20491   0.53958   0.00000  Uiso   1.00
O1008  O     0.79509   0.45491   0.53958   0.00000  Uiso   1.00
C1009  C     0.06034   0.69137   0.49937   0.00000  Uiso   1.00
C1010  C     0.49689   0.78823   0.64318   0.00000  Uiso   1.00
C1011  C     0.49690   0.78828   0.35952   0.00000  Uiso   1.00
C1012  C     0.00310   0.71172   0.64048   0.00000  Uiso   1.00
C1013  C     0.25311   0.96177   0.35682   0.00000  Uiso   1.00
C1014  C     0.24689   0.53823   0.64318   0.00000  Uiso   1.00
C1015  C     0.24690   0.53828   0.35952   0.00000  Uiso   1.00
C1016  C     0.25310   0.96172   0.64048   0.00000  Uiso   1.00
C1017  C     0.40571   0.62442   0.46321   0.00000  Uiso   1.00
C1018  C     0.09429   0.87558   0.53679   0.00000  Uiso   1.00
C1019  C     0.12596   0.84001   0.46624   0.00000  Uiso   1.00
C1020  C     0.43966   0.80863   0.50063   0.00000  Uiso   1.00
C1021  C     0.37404   0.65999   0.53376   0.00000  Uiso   1.00
C1022  C     0.12216   0.65611   0.53774   0.00000  Uiso   1.00
C1023  C     0.37784   0.84389   0.46226   0.00000  Uiso   1.00
C1024  C     0.40055   0.87070   0.54065   0.00000  Uiso   1.00
C1025  C     0.09945   0.62930   0.45935   0.00000  Uiso   1.00
C1026  C     0.15571   0.87442   0.46321   0.00000  Uiso   1.00
C1027  C     0.34429   0.62558   0.53679   0.00000  Uiso   1.00
C1028  C     0.37596   0.59001   0.46624   0.00000  Uiso   1.00
C1029  C     0.12404   0.90999   0.53376   0.00000  Uiso   1.00
C1030  C     0.37216   0.90611   0.53774   0.00000  Uiso   1.00
C1031  C     0.43996   0.69109   0.49939   0.00000  Uiso   1.00
C1032  C     0.12784   0.59389   0.46226   0.00000  Uiso   1.00
C1033  C     0.15055   0.62070   0.54065   0.00000  Uiso   1.00
C1034  C     0.34945   0.87930   0.45935   0.00000  Uiso   1.00
C1035  C     0.09432   0.84165   0.50182   0.00000  Uiso   1.00
C1036  C     0.40568   0.65835   0.49818   0.00000  Uiso   1.00
C1037  C     0.40487   0.84093   0.50185   0.00000  Uiso   1.00
C1038  C     0.09513   0.65907   0.49815   0.00000  Uiso   1.00
C1039  C     0.34432   0.59165   0.50182   0.00000  Uiso   1.00
C1040  C     0.15568   0.90835   0.49818   0.00000  Uiso   1.00
C1041  C     0.15487   0.59093   0.50185   0.00000  Uiso   1.00
C1042  C     0.06004   0.80891   0.50061   0.00000  Uiso   1.00
C1043  C     0.34513   0.90907   0.49815   0.00000  Uiso   1.00
C1044  C     0.41861   0.64633   0.38365   0.00000  Uiso   1.00
C1045  C     0.08139   0.85367   0.61636   0.00000  Uiso   1.00
C1046  C     0.11180   0.80137   0.39058   0.00000  Uiso   1.00
C1047  C     0.38820   0.69863   0.60942   0.00000  Uiso   1.00
C1048  C     0.14549   0.72844   0.56383   0.00000  Uiso   1.00
C1049  C     0.35451   0.77155   0.43617   0.00000  Uiso   1.00
C1050  C     0.40081   0.84027   0.61736   0.00000  Uiso   1.00
C1051  C     0.09919   0.65973   0.38264   0.00000  Uiso   1.00
C1052  C     0.16861   0.89633   0.38365   0.00000  Uiso   1.00
C1053  C     0.31034   0.94137   0.49937   0.00000  Uiso   1.00
C1054  C     0.33139   0.60367   0.61636   0.00000  Uiso   1.00
C1055  C     0.36180   0.55137   0.39058   0.00000  Uiso   1.00
C1056  C     0.13820   0.94863   0.60942   0.00000  Uiso   1.00
C1057  C     0.39549   0.97844   0.56383   0.00000  Uiso   1.00
C1058  C     0.10451   0.52155   0.43617   0.00000  Uiso   1.00
C1059  C     0.15081   0.59027   0.61736   0.00000  Uiso   1.00
C1060  C     0.34919   0.90973   0.38264   0.00000  Uiso   1.00
C1061  C     0.18966   0.55863   0.50063   0.00000  Uiso   1.00
C1062  C     0.18996   0.94109   0.49939   0.00000  Uiso   1.00
C1063  C     0.31004   0.55891   0.50061   0.00000  Uiso   1.00
C1064  C     0.00311   0.71177   0.35682   0.00000  Uiso   1.00
Cu1065 Cu    0.00000   0.75000   0.54689   0.00000  Uiso   1.00
Cu1066 Cu    0.00000   0.75000   0.45311   0.00000  Uiso   1.00
Cu1067 Cu    0.25000   0.50000   0.54689   0.00000  Uiso   1.00
Cu1068 Cu    0.25000   0.50000   0.45311   0.00000  Uiso   1.00
H1069  H     0.00561   0.68125   0.37461   0.00000  Uiso   1.00
H1070  H     0.38647   0.63340   0.37354   0.00000  Uiso   1.00
H1071  H     0.44093   0.64069   0.35355   0.00000  Uiso   1.00
H1072  H     0.41509   0.68202   0.39037   0.00000  Uiso   1.00
H1073  H     0.05035   0.90445   0.58348   0.00000  Uiso   1.00
H1074  H     0.11353   0.86659   0.62646   0.00000  Uiso   1.00
H1075  H     0.08491   0.81798   0.60963   0.00000  Uiso   1.00
H1076  H     0.05907   0.85931   0.64645   0.00000  Uiso   1.00
H1077  H     0.16035   0.78630   0.43861   0.00000  Uiso   1.00
H1078  H     0.13737   0.80590   0.36381   0.00000  Uiso   1.00
H1079  H     0.08699   0.82736   0.38783   0.00000  Uiso   1.00
H1080  H     0.49439   0.81875   0.62539   0.00000  Uiso   1.00
H1081  H     0.09592   0.76944   0.38292   0.00000  Uiso   1.00
H1082  H     0.33965   0.71370   0.56139   0.00000  Uiso   1.00
H1083  H     0.36263   0.69410   0.63619   0.00000  Uiso   1.00
H1084  H     0.40408   0.73055   0.61708   0.00000  Uiso   1.00
H1085  H     0.41301   0.67264   0.61217   0.00000  Uiso   1.00
H1086  H     0.12562   0.67950   0.60791   0.00000  Uiso   1.00
H1087  H     0.18047   0.72070   0.56130   0.00000  Uiso   1.00
H1088  H     0.14054   0.75355   0.59241   0.00000  Uiso   1.00
H1089  H     0.13444   0.74227   0.53032   0.00000  Uiso   1.00
H1090  H     0.37438   0.82050   0.39209   0.00000  Uiso   1.00
H1091  H     0.49452   0.81897   0.37934   0.00000  Uiso   1.00
H1092  H     0.31953   0.77929   0.43870   0.00000  Uiso   1.00
H1093  H     0.36556   0.75773   0.46968   0.00000  Uiso   1.00
H1094  H     0.35946   0.74645   0.40759   0.00000  Uiso   1.00
H1095  H     0.43876   0.89258   0.59673   0.00000  Uiso   1.00
H1096  H     0.36975   0.85646   0.62656   0.00000  Uiso   1.00
H1097  H     0.42029   0.83805   0.64985   0.00000  Uiso   1.00
H1098  H     0.39381   0.80673   0.60340   0.00000  Uiso   1.00
H1099  H     0.06124   0.60742   0.40327   0.00000  Uiso   1.00
H1100  H     0.13025   0.64354   0.37344   0.00000  Uiso   1.00
H1101  H     0.10619   0.69327   0.39660   0.00000  Uiso   1.00
H1102  H     0.00548   0.68103   0.62066   0.00000  Uiso   1.00
H1103  H     0.07971   0.66195   0.35015   0.00000  Uiso   1.00
H1104  H     0.19965   0.84555   0.41652   0.00000  Uiso   1.00
H1105  H     0.13647   0.88340   0.37354   0.00000  Uiso   1.00
H1106  H     0.19093   0.89069   0.35355   0.00000  Uiso   1.00
H1107  H     0.16509   0.93202   0.39037   0.00000  Uiso   1.00
H1108  H     0.30035   0.65445   0.58348   0.00000  Uiso   1.00
H1109  H     0.36353   0.61659   0.62646   0.00000  Uiso   1.00
H1110  H     0.33491   0.56798   0.60963   0.00000  Uiso   1.00
H1111  H     0.30907   0.60931   0.64645   0.00000  Uiso   1.00
H1112  H     0.41035   0.53630   0.43861   0.00000  Uiso   1.00
H1113  H     0.25561   0.93125   0.37461   0.00000  Uiso   1.00
H1114  H     0.38737   0.55590   0.36381   0.00000  Uiso   1.00
H1115  H     0.33699   0.57736   0.38783   0.00000  Uiso   1.00
H1116  H     0.34592   0.51944   0.38292   0.00000  Uiso   1.00
H1117  H     0.08965   0.96370   0.56139   0.00000  Uiso   1.00
H1118  H     0.11263   0.94410   0.63619   0.00000  Uiso   1.00
H1119  H     0.15408   0.98055   0.61708   0.00000  Uiso   1.00
H1120  H     0.16301   0.92264   0.61217   0.00000  Uiso   1.00
H1121  H     0.37562   0.92950   0.60791   0.00000  Uiso   1.00
H1122  H     0.43047   0.97070   0.56130   0.00000  Uiso   1.00
H1123  H     0.39054   0.50355   0.59241   0.00000  Uiso   1.00
H1124  H     0.24439   0.56875   0.62539   0.00000  Uiso   1.00
H1125  H     0.38444   0.99227   0.53032   0.00000  Uiso   1.00
H1126  H     0.12438   0.57050   0.39209   0.00000  Uiso   1.00
H1127  H     0.06953   0.52929   0.43870   0.00000  Uiso   1.00
H1128  H     0.11556   0.50773   0.46968   0.00000  Uiso   1.00
H1129  H     0.10946   0.99645   0.40759   0.00000  Uiso   1.00
H1130  H     0.18876   0.64258   0.59673   0.00000  Uiso   1.00
H1131  H     0.11975   0.60646   0.62656   0.00000  Uiso   1.00
H1132  H     0.17029   0.58805   0.64985   0.00000  Uiso   1.00
H1133  H     0.14381   0.55673   0.60340   0.00000  Uiso   1.00
H1134  H     0.31124   0.85742   0.40327   0.00000  Uiso   1.00
H1135  H     0.24452   0.56897   0.37934   0.00000  Uiso   1.00
H1136  H     0.38025   0.89354   0.37344   0.00000  Uiso   1.00
H1137  H     0.35619   0.94327   0.39660   0.00000  Uiso   1.00
H1138  H     0.32971   0.91195   0.35015   0.00000  Uiso   1.00
H1139  H     0.25548   0.93103   0.62066   0.00000  Uiso   1.00
H1140  H     0.44965   0.59555   0.41652   0.00000  Uiso   1.00
N1141  N     0.00000   0.75000   0.61736   0.00000  Uiso   1.00
N1142  N     0.37884   0.81050   0.42590   0.00000  Uiso   1.00
N1143  N     0.42427   0.86470   0.58280   0.00000  Uiso   1.00
N1144  N     0.07573   0.63530   0.41720   0.00000  Uiso   1.00
N1145  N     0.18526   0.87517   0.42476   0.00000  Uiso   1.00
N1146  N     0.31474   0.62482   0.57524   0.00000  Uiso   1.00
N1147  N     0.38061   0.55128   0.43716   0.00000  Uiso   1.00
N1148  N     0.11939   0.94872   0.56284   0.00000  Uiso   1.00
N1149  N     0.37117   0.93950   0.57410   0.00000  Uiso   1.00
N1150  N     0.12884   0.56050   0.42590   0.00000  Uiso   1.00
N1151  N     0.17427   0.61470   0.58280   0.00000  Uiso   1.00
N1152  N     0.00000   0.75000   0.38264   0.00000  Uiso   1.00
N1153  N     0.32573   0.88530   0.41720   0.00000  Uiso   1.00
N1154  N     0.25000   0.50000   0.61736   0.00000  Uiso   1.00
N1155  N     0.25000   0.50000   0.38264   0.00000  Uiso   1.00
N1156  N     0.43526   0.62517   0.42476   0.00000  Uiso   1.00
N1157  N     0.06474   0.87482   0.57524   0.00000  Uiso   1.00
N1158  N     0.13061   0.80128   0.43716   0.00000  Uiso   1.00
N1159  N     0.36939   0.69872   0.56284   0.00000  Uiso   1.00
N1160  N     0.12117   0.68950   0.57410   0.00000  Uiso   1.00
O1161  O     0.04509   0.70491   0.53958   0.00000  Uiso   1.00
O1162  O     0.20492   0.54509   0.46042   0.00000  Uiso   1.00
O1163  O     0.20492   0.54509   0.53958   0.00000  Uiso   1.00
O1164  O     0.29509   0.95491   0.46042   0.00000  Uiso   1.00
O1165  O     0.20492   0.95491   0.46042   0.00000  Uiso   1.00
O1166  O     0.29509   0.54509   0.53958   0.00000  Uiso   1.00
O1167  O     0.29509   0.54509   0.46042   0.00000  Uiso   1.00
O1168  O     0.20492   0.95491   0.53958   0.00000  Uiso   1.00
O1169  O     0.45492   0.79509   0.46042   0.00000  Uiso   1.00
O1170  O     0.45492   0.79509   0.53958   0.00000  Uiso   1.00
O1171  O     0.04509   0.70491   0.46042   0.00000  Uiso   1.00
O1172  O     0.45492   0.70491   0.46042   0.00000  Uiso   1.00
O1173  O     0.04509   0.79509   0.53958   0.00000  Uiso   1.00
O1174  O     0.04509   0.79509   0.46042   0.00000  Uiso   1.00
O1175  O     0.45492   0.70491   0.53958   0.00000  Uiso   1.00
O1176  O     0.29509   0.95491   0.53958   0.00000  Uiso   1.00
C1177  C     0.56034   0.69137   0.49937   0.00000  Uiso   1.00
C1178  C     0.99689   0.78823   0.64318   0.00000  Uiso   1.00
C1179  C     0.99690   0.78828   0.35952   0.00000  Uiso   1.00
C1180  C     0.50310   0.71172   0.64048   0.00000  Uiso   1.00
C1181  C     0.75311   0.96177   0.35682   0.00000  Uiso   1.00
C1182  C     0.74689   0.53823   0.64318   0.00000  Uiso   1.00
C1183  C     0.74690   0.53828   0.35952   0.00000  Uiso   1.00
C1184  C     0.75310   0.96172   0.64048   0.00000  Uiso   1.00
C1185  C     0.90571   0.62442   0.46321   0.00000  Uiso   1.00
C1186  C     0.59429   0.87558   0.53679   0.00000  Uiso   1.00
C1187  C     0.62596   0.84001   0.46624   0.00000  Uiso   1.00
C1188  C     0.93966   0.80863   0.50063   0.00000  Uiso   1.00
C1189  C     0.87404   0.65999   0.53376   0.00000  Uiso   1.00
C1190  C     0.62216   0.65611   0.53774   0.00000  Uiso   1.00
C1191  C     0.87784   0.84389   0.46226   0.00000  Uiso   1.00
C1192  C     0.90055   0.87070   0.54065   0.00000  Uiso   1.00
C1193  C     0.59945   0.62930   0.45935   0.00000  Uiso   1.00
C1194  C     0.65571   0.87442   0.46321   0.00000  Uiso   1.00
C1195  C     0.84429   0.62558   0.53679   0.00000  Uiso   1.00
C1196  C     0.87596   0.59001   0.46624   0.00000  Uiso   1.00
C1197  C     0.62404   0.90999   0.53376   0.00000  Uiso   1.00
C1198  C     0.87216   0.90611   0.53774   0.00000  Uiso   1.00
C1199  C     0.93996   0.69109   0.49939   0.00000  Uiso   1.00
C1200  C     0.62784   0.59389   0.46226   0.00000  Uiso   1.00
C1201  C     0.65055   0.62070   0.54065   0.00000  Uiso   1.00
C1202  C     0.84945   0.87930   0.45935   0.00000  Uiso   1.00
C1203  C     0.59432   0.84165   0.50182   0.00000  Uiso   1.00
C1204  C     0.90568   0.65835   0.49818   0.00000  Uiso   1.00
C1205  C     0.90487   0.84093   0.50185   0.00000  Uiso   1.00
C1206  C     0.59513   0.65907   0.49815   0.00000  Uiso   1.00
C1207  C     0.84432   0.59165   0.50182   0.00000  Uiso   1.00
C1208  C     0.65568   0.90835   0.49818   0.00000  Uiso   1.00
C1209  C     0.65487   0.59093   0.50185   0.00000  Uiso   1.00
C1210  C     0.56004   0.80891   0.50061   0.00000  Uiso   1.00
C1211  C     0.84513   0.90907   0.49815   0.00000  Uiso   1.00
C1212  C     0.91861   0.64633   0.38365   0.00000  Uiso   1.00
C1213  C     0.58139   0.85367   0.61636   0.00000  Uiso   1.00
C1214  C     0.61180   0.80137   0.39058   0.00000  Uiso   1.00
C1215  C     0.88820   0.69863   0.60942   0.00000  Uiso   1.00
C1216  C     0.64549   0.72844   0.56383   0.00000  Uiso   1.00
C1217  C     0.85451   0.77155   0.43617   0.00000  Uiso   1.00
C1218  C     0.90081   0.84027   0.61736   0.00000  Uiso   1.00
C1219  C     0.59919   0.65973   0.38264   0.00000  Uiso   1.00
C1220  C     0.66861   0.89633   0.38365   0.00000  Uiso   1.00
C1221  C     0.81034   0.94137   0.49937   0.00000  Uiso   1.00
C1222  C     0.83139   0.60367   0.61636   0.00000  Uiso   1.00
C1223  C     0.86180   0.55137   0.39058   0.00000  Uiso   1.00
C1224  C     0.63820   0.94863   0.60942   0.00000  Uiso   1.00
C1225  C     0.89549   0.97844   0.56383   0.00000  Uiso   1.00
C1226  C     0.60451   0.52155   0.43617   0.00000  Uiso   1.00
C1227  C     0.65081   0.59027   0.61736   0.00000  Uiso   1.00
C1228  C     0.84919   0.90973   0.38264   0.00000  Uiso   1.00
C1229  C     0.68966   0.55863   0.50063   0.00000  Uiso   1.00
C1230  C     0.68996   0.94109   0.49939   0.00000  Uiso   1.00
C1231  C     0.81004   0.55891   0.50061   0.00000  Uiso   1.00
C1232  C     0.50311   0.71177   0.35682   0.00000  Uiso   1.00
Cu1233 Cu    0.50000   0.75000   0.54689   0.00000  Uiso   1.00
Cu1234 Cu    0.50000   0.75000   0.45311   0.00000  Uiso   1.00
Cu1235 Cu    0.75000   0.50000   0.54689   0.00000  Uiso   1.00
Cu1236 Cu    0.75000   0.50000   0.45311   0.00000  Uiso   1.00
H1237  H     0.50561   0.68125   0.37461   0.00000  Uiso   1.00
H1238  H     0.88647   0.63340   0.37354   0.00000  Uiso   1.00
H1239  H     0.94093   0.64069   0.35355   0.00000  Uiso   1.00
H1240  H     0.91509   0.68202   0.39037   0.00000  Uiso   1.00
H1241  H     0.55035   0.90445   0.58348   0.00000  Uiso   1.00
H1242  H     0.61353   0.86659   0.62646   0.00000  Uiso   1.00
H1243  H     0.58491   0.81798   0.60963   0.00000  Uiso   1.00
H1244  H     0.55907   0.85931   0.64645   0.00000  Uiso   1.00
H1245  H     0.66035   0.78630   0.43861   0.00000  Uiso   1.00
H1246  H     0.63737   0.80590   0.36381   0.00000  Uiso   1.00
H1247  H     0.58699   0.82736   0.38783   0.00000  Uiso   1.00
H1248  H     0.99439   0.81875   0.62539   0.00000  Uiso   1.00
H1249  H     0.59592   0.76944   0.38292   0.00000  Uiso   1.00
H1250  H     0.83965   0.71370   0.56139   0.00000  Uiso   1.00
H1251  H     0.86263   0.69410   0.63619   0.00000  Uiso   1.00
H1252  H     0.90408   0.73055   0.61708   0.00000  Uiso   1.00
H1253  H     0.91301   0.67264   0.61217   0.00000  Uiso   1.00
H1254  H     0.62562   0.67950   0.60791   0.00000  Uiso   1.00
H1255  H     0.68047   0.72070   0.56130   0.00000  Uiso   1.00
H1256  H     0.64054   0.75355   0.59241   0.00000  Uiso   1.00
H1257  H     0.63444   0.74227   0.53032   0.00000  Uiso   1.00
H1258  H     0.87438   0.82050   0.39209   0.00000  Uiso   1.00
H1259  H     0.99452   0.81897   0.37934   0.00000  Uiso   1.00
H1260  H     0.81953   0.77929   0.43870   0.00000  Uiso   1.00
H1261  H     0.86556   0.75773   0.46968   0.00000  Uiso   1.00
H1262  H     0.85946   0.74645   0.40759   0.00000  Uiso   1.00
H1263  H     0.93876   0.89258   0.59673   0.00000  Uiso   1.00
H1264  H     0.86975   0.85646   0.62656   0.00000  Uiso   1.00
H1265  H     0.92029   0.83805   0.64985   0.00000  Uiso   1.00
H1266  H     0.89381   0.80673   0.60340   0.00000  Uiso   1.00
H1267  H     0.56124   0.60742   0.40327   0.00000  Uiso   1.00
H1268  H     0.63025   0.64354   0.37344   0.00000  Uiso   1.00
H1269  H     0.60619   0.69327   0.39660   0.00000  Uiso   1.00
H1270  H     0.50548   0.68103   0.62066   0.00000  Uiso   1.00
H1271  H     0.57971   0.66195   0.35015   0.00000  Uiso   1.00
H1272  H     0.69965   0.84555   0.41652   0.00000  Uiso   1.00
H1273  H     0.63647   0.88340   0.37354   0.00000  Uiso   1.00
H1274  H     0.69093   0.89069   0.35355   0.00000  Uiso   1.00
H1275  H     0.66509   0.93202   0.39037   0.00000  Uiso   1.00
H1276  H     0.80035   0.65445   0.58348   0.00000  Uiso   1.00
H1277  H     0.86353   0.61659   0.62646   0.00000  Uiso   1.00
H1278  H     0.83491   0.56798   0.60963   0.00000  Uiso   1.00
H1279  H     0.80907   0.60931   0.64645   0.00000  Uiso   1.00
H1280  H     0.91035   0.53630   0.43861   0.00000  Uiso   1.00
H1281  H     0.75561   0.93125   0.37461   0.00000  Uiso   1.00
H1282  H     0.88737   0.55590   0.36381   0.00000  Uiso   1.00
H1283  H     0.83699   0.57736   0.38783   0.00000  Uiso   1.00
H1284  H     0.84592   0.51944   0.38292   0.00000  Uiso   1.00
H1285  H     0.58965   0.96370   0.56139   0.00000  Uiso   1.00
H1286  H     0.61263   0.94410   0.63619   0.00000  Uiso   1.00
H1287  H     0.65408   0.98055   0.61708   0.00000  Uiso   1.00
H1288  H     0.66301   0.92264   0.61217   0.00000  Uiso   1.00
H1289  H     0.87562   0.92950   0.60791   0.00000  Uiso   1.00
H1290  H     0.93047   0.97070   0.56130   0.00000  Uiso   1.00
H1291  H     0.89054   0.50355   0.59241   0.00000  Uiso   1.00
H1292  H     0.74439   0.56875   0.62539   0.00000  Uiso   1.00
H1293  H     0.88444   0.99227   0.53032   0.00000  Uiso   1.00
H1294  H     0.62438   0.57050   0.39209   0.00000  Uiso   1.00
H1295  H     0.56953   0.52929   0.43870   0.00000  Uiso   1.00
H1296  H     0.61556   0.50773   0.46968   0.00000  Uiso   1.00
H1297  H     0.60946   0.99645   0.40759   0.00000  Uiso   1.00
H1298  H     0.68876   0.64258   0.59673   0.00000  Uiso   1.00
H1299  H     0.61975   0.60646   0.62656   0.00000  Uiso   1.00
H1300  H     0.67029   0.58805   0.64985   0.00000  Uiso   1.00
H1301  H     0.64381   0.55673   0.60340   0.00000  Uiso   1.00
H1302  H     0.81124   0.85742   0.40327   0.00000  Uiso   1.00
H1303  H     0.74452   0.56897   0.37934   0.00000  Uiso   1.00
H1304  H     0.88025   0.89354   0.37344   0.00000  Uiso   1.00
H1305  H     0.85619   0.94327   0.39660   0.00000  Uiso   1.00
H1306  H     0.82971   0.91195   0.35015   0.00000  Uiso   1.00
H1307  H     0.75548   0.93103   0.62066   0.00000  Uiso   1.00
H1308  H     0.94965   0.59555   0.41652   0.00000  Uiso   1.00
N1309  N     0.50000   0.75000   0.61736   0.00000  Uiso   1.00
N1310  N     0.87884   0.81050   0.42590   0.00000  Uiso   1.00
N1311  N     0.92427   0.86470   0.58280   0.00000  Uiso   1.00
N1312  N     0.57573   0.63530   0.41720   0.00000  Uiso   1.00
N1313  N     0.68526   0.87517   0.42476   0.00000  Uiso   1.00
N1314  N     0.81474   0.62482   0.57524   0.00000  Uiso   1.00
N1315  N     0.88061   0.55128   0.43716   0.00000  Uiso   1.00
N1316  N     0.61939   0.94872   0.56284   0.00000  Uiso   1.00
N1317  N     0.87117   0.93950   0.57410   0.00000  Uiso   1.00
N1318  N     0.62884   0.56050   0.42590   0.00000  Uiso   1.00
N1319  N     0.67427   0.61470   0.58280   0.00000  Uiso   1.00
N1320  N     0.50000   0.75000   0.38264   0.00000  Uiso   1.00
N1321  N     0.82573   0.88530   0.41720   0.00000  Uiso   1.00
N1322  N     0.75000   0.50000   0.61736   0.00000  Uiso   1.00
N1323  N     0.75000   0.50000   0.38264   0.00000  Uiso   1.00
N1324  N     0.93526   0.62517   0.42476   0.00000  Uiso   1.00
N1325  N     0.56474   0.87482   0.57524   0.00000  Uiso   1.00
N1326  N     0.63061   0.80128   0.43716   0.00000  Uiso   1.00
N1327  N     0.86939   0.69872   0.56284   0.00000  Uiso   1.00
N1328  N     0.62117   0.68950   0.57410   0.00000  Uiso   1.00
O1329  O     0.54509   0.70491   0.53958   0.00000  Uiso   1.00
O1330  O     0.70492   0.54509   0.46042   0.00000  Uiso   1.00
O1331  O     0.70492   0.54509   0.53958   0.00000  Uiso   1.00
O1332  O     0.79509   0.95491   0.46042   0.00000  Uiso   1.00
O1333  O     0.70492   0.95491   0.46042   0.00000  Uiso   1.00
O1334  O     0.79509   0.54509   0.53958   0.00000  Uiso   1.00
O1335  O     0.79509   0.54509   0.46042   0.00000  Uiso   1.00
O1336  O     0.70492   0.95491   0.53958   0.00000  Uiso   1.00
O1337  O     0.95492   0.79509   0.46042   0.00000  Uiso   1.00
O1338  O     0.95492   0.79509   0.53958   0.00000  Uiso   1.00
O1339  O     0.54509   0.70491   0.46042   0.00000  Uiso   1.00
O1340  O     0.95492   0.70491   0.46042   0.00000  Uiso   1.00
O1341  O     0.54509   0.79509   0.53958   0.00000  Uiso   1.00
O1342  O     0.54509   0.79509   0.46042   0.00000  Uiso   1.00
O1343  O     0.95492   0.70491   0.53958   0.00000  Uiso   1.00
O1344  O     0.79509   0.95491   0.53958   0.00000  Uiso   1.00
C1345  C     0.06034   0.19137   0.83270   0.00000  Uiso   1.00
C1346  C     0.49689   0.28823   0.97652   0.00000  Uiso   1.00
C1347  C     0.49690   0.28828   0.69285   0.00000  Uiso   1.00
C1348  C     0.00310   0.21172   0.97381   0.00000  Uiso   1.00
C1349  C     0.25311   0.46177   0.69015   0.00000  Uiso   1.00
C1350  C     0.24689   0.03823   0.97652   0.00000  Uiso   1.00
C1351  C     0.24690   0.03828   0.69285   0.00000  Uiso   1.00
C1352  C     0.25310   0.46172   0.97381   0.00000  Uiso   1.00
C1353  C     0.40571   0.12442   0.79654   0.00000  Uiso   1.00
C1354  C     0.09429   0.37558   0.87013   0.00000  Uiso   1.00
C1355  C     0.12596   0.34001   0.79957   0.00000  Uiso   1.00
C1356  C     0.43966   0.30863   0.83396   0.00000  Uiso   1.00
C1357  C     0.37404   0.15999   0.86709   0.00000  Uiso   1.00
C1358  C     0.12216   0.15611   0.87107   0.00000  Uiso   1.00
C1359  C     0.37784   0.34389   0.79560   0.00000  Uiso   1.00
C1360  C     0.40055   0.37070   0.87398   0.00000  Uiso   1.00
C1361  C     0.09945   0.12930   0.79269   0.00000  Uiso   1.00
C1362  C     0.15571   0.37442   0.79654   0.00000  Uiso   1.00
C1363  C     0.34429   0.12558   0.87013   0.00000  Uiso   1.00
C1364  C     0.37596   0.09001   0.79957   0.00000  Uiso   1.00
C1365  C     0.12404   0.40999   0.86709   0.00000  Uiso   1.00
C1366  C     0.37216   0.40611   0.87107   0.00000  Uiso   1.00
C1367  C     0.43996   0.19109   0.83273   0.00000  Uiso   1.00
C1368  C     0.12784   0.09389   0.79560   0.00000  Uiso   1.00
C1369  C     0.15055   0.12070   0.87398   0.00000  Uiso   1.00
C1370  C     0.34945   0.37930   0.79269   0.00000  Uiso   1.00
C1371  C     0.09432   0.34165   0.83515   0.00000  Uiso   1.00
C1372  C     0.40568   0.15835   0.83151   0.00000  Uiso   1.00
C1373  C     0.40487   0.34093   0.83519   0.00000  Uiso   1.00
C1374  C     0.09513   0.15907   0.83148   0.00000  Uiso   1.00
C1375  C     0.34432   0.09165   0.83515   0.00000  Uiso   1.00
C1376  C     0.15568   0.40835   0.83151   0.00000  Uiso   1.00
C1377  C     0.15487   0.09093   0.83519   0.00000  Uiso   1.00
C1378  C     0.06004   0.30891   0.83394   0.00000  Uiso   1.00
C1379  C     0.34513   0.40907   0.83148   0.00000  Uiso   1.00
C1380  C     0.41861   0.14633   0.71698   0.00000  Uiso   1.00
C1381  C     0.08139   0.35367   0.94969   0.00000  Uiso   1.00
C1382  C     0.11180   0.30137   0.72392   0.00000  Uiso   1.00
C1383  C     0.38820   0.19863   0.94275   0.00000  Uiso   1.00
C1384  C     0.14549   0.22844   0.89717   0.00000  Uiso   1.00
C1385  C     0.35451   0.27155   0.76950   0.00000  Uiso   1.00
C1386  C     0.40081   0.34027   0.95069   0.00000  Uiso   1.00
C1387  C     0.09919   0.15973   0.71597   0.00000  Uiso   1.00
C1388  C     0.16861   0.39633   0.71698   0.00000  Uiso   1.00
C1389  C     0.31034   0.44137   0.83270   0.00000  Uiso   1.00
C1390  C     0.33139   0.10367   0.94969   0.00000  Uiso   1.00
C1391  C     0.36180   0.05137   0.72392   0.00000  Uiso   1.00
C1392  C     0.13820   0.44863   0.94275   0.00000  Uiso   1.00
C1393  C     0.39549   0.47844   0.89717   0.00000  Uiso   1.00
C1394  C     0.10451   0.02155   0.76950   0.00000  Uiso   1.00
C1395  C     0.15081   0.09027   0.95069   0.00000  Uiso   1.00
C1396  C     0.34919   0.40973   0.71597   0.00000  Uiso   1.00
C1397  C     0.18966   0.05863   0.83396   0.00000  Uiso   1.00
C1398  C     0.18996   0.44109   0.83273   0.00000  Uiso   1.00
C1399  C     0.31004   0.05891   0.83394   0.00000  Uiso   1.00
C1400  C     0.00311   0.21177   0.69015   0.00000  Uiso   1.00
Cu1401 Cu    0.00000   0.25000   0.88022   0.00000  Uiso   1.00
Cu1402 Cu    0.00000   0.25000   0.78645   0.00000  Uiso   1.00
Cu1403 Cu    0.25000  -0.00000   0.88022   0.00000  Uiso   1.00
Cu1404 Cu    0.25000  -0.00000   0.78645   0.00000  Uiso   1.00
H1405  H     0.00561   0.18125   0.70794   0.00000  Uiso   1.00
H1406  H     0.38647   0.13340   0.70688   0.00000  Uiso   1.00
H1407  H     0.44093   0.14069   0.68689   0.00000  Uiso   1.00
H1408  H     0.41509   0.18202   0.72371   0.00000  Uiso   1.00
H1409  H     0.05035   0.40445   0.91682   0.00000  Uiso   1.00
H1410  H     0.11353   0.36659   0.95979   0.00000  Uiso   1.00
H1411  H     0.08491   0.31798   0.94296   0.00000  Uiso   1.00
H1412  H     0.05907   0.35931   0.97978   0.00000  Uiso   1.00
H1413  H     0.16035   0.28630   0.77194   0.00000  Uiso   1.00
H1414  H     0.13737   0.30590   0.69715   0.00000  Uiso   1.00
H1415  H     0.08699   0.32736   0.72117   0.00000  Uiso   1.00
H1416  H     0.49439   0.31875   0.95873   0.00000  Uiso   1.00
H1417  H     0.09592   0.26944   0.71626   0.00000  Uiso   1.00
H1418  H     0.33965   0.21370   0.89473   0.00000  Uiso   1.00
H1419  H     0.36263   0.19410   0.96952   0.00000  Uiso   1.00
H1420  H     0.40408   0.23055   0.95041   0.00000  Uiso   1.00
H1421  H     0.41301   0.17264   0.94550   0.00000  Uiso   1.00
H1422  H     0.12562   0.17950   0.94125   0.00000  Uiso   1.00
H1423  H     0.18047   0.22070   0.89463   0.00000  Uiso   1.00
H1424  H     0.14054   0.25355   0.92574   0.00000  Uiso   1.00
H1425  H     0.13444   0.24227   0.86365   0.00000  Uiso   1.00
H1426  H     0.37438   0.32050   0.72542   0.00000  Uiso   1.00
H1427  H     0.49452   0.31897   0.71268   0.00000  Uiso   1.00
H1428  H     0.31953   0.27929   0.77203   0.00000  Uiso   1.00
H1429  H     0.36556   0.25773   0.80302   0.00000  Uiso   1.00
H1430  H     0.35946   0.24645   0.74092   0.00000  Uiso   1.00
H1431  H     0.43876   0.39258   0.93006   0.00000  Uiso   1.00
H1432  H     0.36975   0.35646   0.95989   0.00000  Uiso   1.00
H1433  H     0.42029   0.33805   0.98319   0.00000  Uiso   1.00
H1434  H     0.39381   0.30673   0.93673   0.00000  Uiso   1.00
H1435  H     0.06124   0.10742   0.73660   0.00000  Uiso   1.00
H1436  H     0.13025   0.14354   0.70677   0.00000  Uiso   1.00
H1437  H     0.10619   0.19327   0.72993   0.00000  Uiso   1.00
H1438  H     0.00548   0.18103   0.95399   0.00000  Uiso   1.00
H1439  H     0.07971   0.16195   0.68348   0.00000  Uiso   1.00
H1440  H     0.19965   0.34555   0.74985   0.00000  Uiso   1.00
H1441  H     0.13647   0.38340   0.70688   0.00000  Uiso   1.00
H1442  H     0.19093   0.39069   0.68689   0.00000  Uiso   1.00
H1443  H     0.16509   0.43202   0.72371   0.00000  Uiso   1.00
H1444  H     0.30035   0.15445   0.91682   0.00000  Uiso   1.00
H1445  H     0.36353   0.11659   0.95979   0.00000  Uiso   1.00
H1446  H     0.33491   0.06798   0.94296   0.00000  Uiso   1.00
H1447  H     0.30907   0.10931   0.97978   0.00000  Uiso   1.00
H1448  H     0.41035   0.03630   0.77194   0.00000  Uiso   1.00
H1449  H     0.25561   0.43125   0.70794   0.00000  Uiso   1.00
H1450  H     0.38737   0.05590   0.69715   0.00000  Uiso   1.00
H1451  H     0.33699   0.07736   0.72117   0.00000  Uiso   1.00
H1452  H     0.34592   0.01944   0.71626   0.00000  Uiso   1.00
H1453  H     0.08965   0.46370   0.89473   0.00000  Uiso   1.00
H1454  H     0.11263   0.44410   0.96952   0.00000  Uiso   1.00
H1455  H     0.15408   0.48055   0.95041   0.00000  Uiso   1.00
H1456  H     0.16301   0.42264   0.94550   0.00000  Uiso   1.00
H1457  H     0.37562   0.42950   0.94125   0.00000  Uiso   1.00
H1458  H     0.43047   0.47070   0.89463   0.00000  Uiso   1.00
H1459  H     0.39054   0.00355   0.92574   0.00000  Uiso   1.00
H1460  H     0.24439   0.06875   0.95873   0.00000  Uiso   1.00
H1461  H     0.38444   0.49227   0.86365   0.00000  Uiso   1.00
H1462  H     0.12438   0.07050   0.72542   0.00000  Uiso   1.00
H1463  H     0.06953   0.02929   0.77203   0.00000  Uiso   1.00
H1464  H     0.11556   0.00773   0.80302   0.00000  Uiso   1.00
H1465  H     0.10946   0.49645   0.74092   0.00000  Uiso   1.00
H1466  H     0.18876   0.14258   0.93006   0.00000  Uiso   1.00
H1467  H     0.11975   0.10646   0.95989   0.00000  Uiso   1.00
H1468  H     0.17029   0.08805   0.98319   0.00000  Uiso   1.00
H1469  H     0.14381   0.05673   0.93673   0.00000  Uiso   1.00
H1470  H     0.31124   0.35742   0.73660   0.00000  Uiso   1.00
H1471  H     0.24452   0.06897   0.71268   0.00000  Uiso   1.00
H1472  H     0.38025   0.39354   0.70677   0.00000  Uiso   1.00
H1473  H     0.35619   0.44327   0.72993   0.00000  Uiso   1.00
H1474  H     0.32971   0.41195   0.68348   0.00000  Uiso   1.00
H1475  H     0.25548   0.43103   0.95399   0.00000  Uiso   1.00
H1476  H     0.44965   0.09555   0.74985   0.00000  Uiso   1.00
N1477  N     0.00000   0.25000   0.95069   0.00000  Uiso   1.00
N1478  N     0.37884   0.31050   0.75923   0.00000  Uiso   1.00
N1479  N     0.42427   0.36470   0.91614   0.00000  Uiso   1.00
N1480  N     0.07573   0.13530   0.75053   0.00000  Uiso   1.00
N1481  N     0.18526   0.37517   0.75809   0.00000  Uiso   1.00
N1482  N     0.31474   0.12482   0.90858   0.00000  Uiso   1.00
N1483  N     0.38061   0.05128   0.77049   0.00000  Uiso   1.00
N1484  N     0.11939   0.44872   0.89618   0.00000  Uiso   1.00
N1485  N     0.37117   0.43950   0.90743   0.00000  Uiso   1.00
N1486  N     0.12884   0.06050   0.75923   0.00000  Uiso   1.00
N1487  N     0.17427   0.11470   0.91614   0.00000  Uiso   1.00
N1488  N     0.00000   0.25000   0.71598   0.00000  Uiso   1.00
N1489  N     0.32573   0.38530   0.75053   0.00000  Uiso   1.00
N1490  N     0.25000  -0.00000   0.95069   0.00000  Uiso   1.00
N1491  N     0.25000  -0.00000   0.71598   0.00000  Uiso   1.00
N1492  N     0.43526   0.12517   0.75809   0.00000  Uiso   1.00
N1493  N     0.06474   0.37482   0.90858   0.00000  Uiso   1.00
N1494  N     0.13061   0.30128   0.77049   0.00000  Uiso   1.00
N1495  N     0.36939   0.19872   0.89618   0.00000  Uiso   1.00
N1496  N     0.12117   0.18950   0.90743   0.00000  Uiso   1.00
O1497  O     0.04509   0.20491   0.87291   0.00000  Uiso   1.00
O1498  O     0.20492   0.04509   0.79375   0.00000  Uiso   1.00
O1499  O     0.20492   0.04509   0.87291   0.00000  Uiso   1.00
O1500  O     0.29509   0.45491   0.79375   0.00000  Uiso   1.00
O1501  O     0.20492   0.45491   0.79375   0.00000  Uiso   1.00
O1502  O     0.29509   0.04509   0.87291   0.00000  Uiso   1.00
O1503  O     0.29509   0.04509   0.79375   0.00000  Uiso   1.00
O1504  O     0.20492   0.45491   0.87291   0.00000  Uiso   1.00
O1505  O     0.45492   0.29509   0.79375   0.00000  Uiso   1.00
O1506  O     0.45492   0.29509   0.87291   0.00000  Uiso   1.00
O1507  O     0.04509   0.20491   0.79375   0.00000  Uiso   1.00
O1508  O     0.45492   0.20491   0.79375   0.00000  Uiso   1.00
O1509  O     0.04509   0.29509   0.87291   0.00000  Uiso   1.00
O1510  O     0.04509   0.29509   0.79375   0.00000  Uiso   1.00
O1511  O     0.45492   0.20491   0.87291   0.00000  Uiso   1.00
O1512  O     0.29509   0.45491   0.87291   0.00000  Uiso   1.00
C1513  C     0.56034   0.19137   0.83270   0.00000  Uiso   1.00
C1514  C     0.99689   0.28823   0.97652   0.00000  Uiso   1.00
C1515  C     0.99690   0.28828   0.69285   0.00000  Uiso   1.00
C1516  C     0.50310   0.21172   0.97381   0.00000  Uiso   1.00
C1517  C     0.75311   0.46177   0.69015   0.00000  Uiso   1.00
C1518  C     0.74689   0.03823   0.97652   0.00000  Uiso   1.00
C1519  C     0.74690   0.03828   0.69285   0.00000  Uiso   1.00
C1520  C     0.75310   0.46172   0.97381   0.00000  Uiso   1.00
C1521  C     0.90571   0.12442   0.79654   0.00000  Uiso   1.00
C1522  C     0.59429   0.37558   0.87013   0.00000  Uiso   1.00
C1523  C     0.62596   0.34001   0.79957   0.00000  Uiso   1.00
C1524  C     0.93966   0.30863   0.83396   0.00000  Uiso   1.00
C1525  C     0.87404   0.15999   0.86709   0.00000  Uiso   1.00
C1526  C     0.62216   0.15611   0.87107   0.00000  Uiso   1.00
C1527  C     0.87784   0.34389   0.79560   0.00000  Uiso   1.00
C1528  C     0.90055   0.37070   0.87398   0.00000  Uiso   1.00
C1529  C     0.59945   0.12930   0.79269   0.00000  Uiso   1.00
C1530  C     0.65571   0.37442   0.79654   0.00000  Uiso   1.00
C1531  C     0.84429   0.12558   0.87013   0.00000  Uiso   1.00
C1532  C     0.87596   0.09001   0.79957   0.00000  Uiso   1.00
C1533  C     0.62404   0.40999   0.86709   0.00000  Uiso   1.00
C1534  C     0.87216   0.40611   0.87107   0.00000  Uiso   1.00
C1535  C     0.93996   0.19109   0.83273   0.00000  Uiso   1.00
C1536  C     0.62784   0.09389   0.79560   0.00000  Uiso   1.00
C1537  C     0.65055   0.12070   0.87398   0.00000  Uiso   1.00
C1538  C     0.84945   0.37930   0.79269   0.00000  Uiso   1.00
C1539  C     0.59432   0.34165   0.83515   0.00000  Uiso   1.00
C1540  C     0.90568   0.15835   0.83151   0.00000  Uiso   1.00
C1541  C     0.90487   0.34093   0.83519   0.00000  Uiso   1.00
C1542  C     0.59513   0.15907   0.83148   0.00000  Uiso   1.00
C1543  C     0.84432   0.09165   0.83515   0.00000  Uiso   1.00
C1544  C     0.65568   0.40835   0.83151   0.00000  Uiso   1.00
C1545  C     0.65487   0.09093   0.83519   0.00000  Uiso   1.00
C1546  C     0.56004   0.30891   0.83394   0.00000  Uiso   1.00
C1547  C     0.84513   0.40907   0.83148   0.00000  Uiso   1.00
C1548  C     0.91861   0.14633   0.71698   0.00000  Uiso   1.00
C1549  C     0.58139   0.35367   0.94969   0.00000  Uiso   1.00
C1550  C     0.61180   0.30137   0.72392   0.00000  Uiso   1.00
C1551  C     0.88820   0.19863   0.94275   0.00000  Uiso   1.00
C1552  C     0.64549   0.22844   0.89717   0.00000  Uiso   1.00
C1553  C     0.85451   0.27155   0.76950   0.00000  Uiso   1.00
C1554  C     0.90081   0.34027   0.95069   0.00000  Uiso   1.00
C1555  C     0.59919   0.15973   0.71597   0.00000  Uiso   1.00
C1556  C     0.66861   0.39633   0.71698   0.00000  Uiso   1.00
C1557  C     0.81034   0.44137   0.83270   0.00000  Uiso   1.00
C1558  C     0.83139   0.10367   0.94969   0.00000  Uiso   1.00
C1559  C     0.86180   0.05137   0.72392   0.00000  Uiso   1.00
C1560  C     0.63820   0.44863   0.94275   0.00000  Uiso   1.00
C1561  C     0.89549   0.47844   0.89717   0.00000  Uiso   1.00
C1562  C     0.60451   0.02155   0.76950   0.00000  Uiso   1.00
C1563  C     0.65081   0.09027   0.95069   0.00000  Uiso   1.00
C1564  C     0.84919   0.40973   0.71597   0.00000  Uiso   1.00
C1565  C     0.68966   0.05863   0.83396   0.00000  Uiso   1.00
C1566  C     0.68996   0.44109   0.83273   0.00000  Uiso   1.00
C1567  C     0.81004   0.05891   0.83394   0.00000  Uiso   1.00
C1568  C     0.50311   0.21177   0.69015   0.00000  Uiso   1.00
Cu1569 Cu    0.50000   0.25000   0.88022   0.00000  Uiso   1.00
Cu1570 Cu    0.50000   0.25000   0.78645   0.00000  Uiso   1.00
Cu1571 Cu    0.75000  -0.00000   0.88022   0.00000  Uiso   1.00
Cu1572 Cu    0.75000  -0.00000   0.78645   0.00000  Uiso   1.00
H1573  H     0.50561   0.18125   0.70794   0.00000  Uiso   1.00
H1574  H     0.88647   0.13340   0.70688   0.00000  Uiso   1.00
H1575  H     0.94093   0.14069   0.68689   0.00000  Uiso   1.00
H1576  H     0.91509   0.18202   0.72371   0.00000  Uiso   1.00
H1577  H     0.55035   0.40445   0.91682   0.00000  Uiso   1.00
H1578  H     0.61353   0.36659   0.95979   0.00000  Uiso   1.00
H1579  H     0.58491   0.31798   0.94296   0.00000  Uiso   1.00
H1580  H     0.55907   0.35931   0.97978   0.00000  Uiso   1.00
H1581  H     0.66035   0.28630   0.77194   0.00000  Uiso   1.00
H1582  H     0.63737   0.30590   0.69715   0.00000  Uiso   1.00
H1583  H     0.58699   0.32736   0.72117   0.00000  Uiso   1.00
H1584  H     0.99439   0.31875   0.95873   0.00000  Uiso   1.00
H1585  H     0.59592   0.26944   0.71626   0.00000  Uiso   1.00
H1586  H     0.83965   0.21370   0.89473   0.00000  Uiso   1.00
H1587  H     0.86263   0.19410   0.96952   0.00000  Uiso   1.00
H1588  H     0.90408   0.23055   0.95041   0.00000  Uiso   1.00
H1589  H     0.91301   0.17264   0.94550   0.00000  Uiso   1.00
H1590  H     0.62562   0.17950   0.94125   0.00000  Uiso   1.00
H1591  H     0.68047   0.22070   0.89463   0.00000  Uiso   1.00
H1592  H     0.64054   0.25355   0.92574   0.00000  Uiso   1.00
H1593  H     0.63444   0.24227   0.86365   0.00000  Uiso   1.00
H1594  H     0.87438   0.32050   0.72542   0.00000  Uiso   1.00
H1595  H     0.99452   0.31897   0.71268   0.00000  Uiso   1.00
H1596  H     0.81953   0.27929   0.77203   0.00000  Uiso   1.00
H1597  H     0.86556   0.25773   0.80302   0.00000  Uiso   1.00
H1598  H     0.85946   0.24645   0.74092   0.00000  Uiso   1.00
H1599  H     0.93876   0.39258   0.93006   0.00000  Uiso   1.00
H1600  H     0.86975   0.35646   0.95989   0.00000  Uiso   1.00
H1601  H     0.92029   0.33805   0.98319   0.00000  Uiso   1.00
H1602  H     0.89381   0.30673   0.93673   0.00000  Uiso   1.00
H1603  H     0.56124   0.10742   0.73660   0.00000  Uiso   1.00
H1604  H     0.63025   0.14354   0.70677   0.00000  Uiso   1.00
H1605  H     0.60619   0.19327   0.72993   0.00000  Uiso   1.00
H1606  H     0.50548   0.18103   0.95399   0.00000  Uiso   1.00
H1607  H     0.57971   0.16195   0.68348   0.00000  Uiso   1.00
H1608  H     0.69965   0.34555   0.74985   0.00000  Uiso   1.00
H1609  H     0.63647   0.38340   0.70688   0.00000  Uiso   1.00
H1610  H     0.69093   0.39069   0.68689   0.00000  Uiso   1.00
H1611  H     0.66509   0.43202   0.72371   0.00000  Uiso   1.00
H1612  H     0.80035   0.15445   0.91682   0.00000  Uiso   1.00
H1613  H     0.86353   0.11659   0.95979   0.00000  Uiso   1.00
H1614  H     0.83491   0.06798   0.94296   0.00000  Uiso   1.00
H1615  H     0.80907   0.10931   0.97978   0.00000  Uiso   1.00
H1616  H     0.91035   0.03630   0.77194   0.00000  Uiso   1.00
H1617  H     0.75561   0.43125   0.70794   0.00000  Uiso   1.00
H1618  H     0.88737   0.05590   0.69715   0.00000  Uiso   1.00
H1619  H     0.83699   0.07736   0.72117   0.00000  Uiso   1.00
H1620  H     0.84592   0.01944   0.71626   0.00000  Uiso   1.00
H1621  H     0.58965   0.46370   0.89473   0.00000  Uiso   1.00
H1622  H     0.61263   0.44410   0.96952   0.00000  Uiso   1.00
H1623  H     0.65408   0.48055   0.95041   0.00000  Uiso   1.00
H1624  H     0.66301   0.42264   0.94550   0.00000  Uiso   1.00
H1625  H     0.87562   0.42950   0.94125   0.00000  Uiso   1.00
H1626  H     0.93047   0.47070   0.89463   0.00000  Uiso   1.00
H1627  H     0.89054   0.00355   0.92574   0.00000  Uiso   1.00
H1628  H     0.74439   0.06875   0.95873   0.00000  Uiso   1.00
H1629  H     0.88444   0.49227   0.86365   0.00000  Uiso   1.00
H1630  H     0.62438   0.07050   0.72542   0.00000  Uiso   1.00
H1631  H     0.56953   0.02929   0.77203   0.00000  Uiso   1.00
H1632  H     0.61556   0.00773   0.80302   0.00000  Uiso   1.00
H1633  H     0.60946   0.49645   0.74092   0.00000  Uiso   1.00
H1634  H     0.68876   0.14258   0.93006   0.00000  Uiso   1.00
H1635  H     0.61975   0.10646   0.95989   0.00000  Uiso   1.00
H1636  H     0.67029   0.08805   0.98319   0.00000  Uiso   1.00
H1637  H     0.64381   0.05673   0.93673   0.00000  Uiso   1.00
H1638  H     0.81124   0.35742   0.73660   0.00000  Uiso   1.00
H1639  H     0.74452   0.06897   0.71268   0.00000  Uiso   1.00
H1640  H     0.88025   0.39354   0.70677   0.00000  Uiso   1.00
H1641  H     0.85619   0.44327   0.72993   0.00000  Uiso   1.00
H1642  H     0.82971   0.41195   0.68348   0.00000  Uiso   1.00
H1643  H     0.75548   0.43103   0.95399   0.00000  Uiso   1.00
H1644  H     0.94965   0.09555   0.74985   0.00000  Uiso   1.00
N1645  N     0.50000   0.25000   0.95069   0.00000  Uiso   1.00
N1646  N     0.87884   0.31050   0.75923   0.00000  Uiso   1.00
N1647  N     0.92427   0.36470   0.91614   0.00000  Uiso   1.00
N1648  N     0.57573   0.13530   0.75053   0.00000  Uiso   1.00
N1649  N     0.68526   0.37517   0.75809   0.00000  Uiso   1.00
N1650  N     0.81474   0.12482   0.90858   0.00000  Uiso   1.00
N1651  N     0.88061   0.05128   0.77049   0.00000  Uiso   1.00
N1652  N     0.61939   0.44872   0.89618   0.00000  Uiso   1.00
N1653  N     0.87117   0.43950   0.90743   0.00000  Uiso   1.00
N1654  N     0.62884   0.06050   0.75923   0.00000  Uiso   1.00
N1655  N     0.67427   0.11470   0.91614   0.00000  Uiso   1.00
N1656  N     0.50000   0.25000   0.71598   0.00000  Uiso   1.00
N1657  N     0.82573   0.38530   0.75053   0.00000  Uiso   1.00
N1658  N     0.75000  -0.00000   0.95069   0.00000  Uiso   1.00
N1659  N     0.75000  -0.00000   0.71598   0.00000  Uiso   1.00
N1660  N     0.93526   0.12517   0.75809   0.00000  Uiso   1.00
N1661  N     0.56474   0.37482   0.90858   0.00000  Uiso   1.00
N1662  N     0.63061   0.30128   0.77049   0.00000  Uiso   1.00
N1663  N     0.86939   0.19872   0.89618   0.00000  Uiso   1.00
N1664  N     0.62117   0.18950   0.90743   0.00000  Uiso   1.00
O1665  O     0.54509   0.20491   0.87291   0.00000  Uiso   1.00
O1666  O     0.70492   0.04509   0.79375   0.00000  Uiso   1.00
O1667  O     0.70492   0.04509   0.87291   0.00000  Uiso   1.00
O1668  O     0.79509   0.45491   0.79375   0.00000  Uiso   1.00
O1669  O     0.70492   0.45491   0.79375   0.00000  Uiso   1.00
O1670  O     0.79509   0.04509   0.87291   0.00000  Uiso   1.00
O1671  O     0.79509   0.04509   0.79375   0.00000  Uiso   1.00
O1672  O     0.70492   0.45491   0.87291   0.00000  Uiso   1.00
O1673  O     0.95492   0.29509   0.79375   0.00000  Uiso   1.00
O1674  O     0.95492   0.29509   0.87291   0.00000  Uiso   1.00
O1675  O     0.54509   0.20491   0.79375   0.00000  Uiso   1.00
O1676  O     0.95492   0.20491   0.79375   0.00000  Uiso   1.00
O1677  O     0.54509   0.29509   0.87291   0.00000  Uiso   1.00
O1678  O     0.54509   0.29509   0.79375   0.00000  Uiso   1.00
O1679  O     0.95492   0.20491   0.87291   0.00000  Uiso   1.00
O1680  O     0.79509   0.45491   0.87291   0.00000  Uiso   1.00
C1681  C     0.06034   0.69137   0.83270   0.00000  Uiso   1.00
C1682  C     0.49689   0.78823   0.97652   0.00000  Uiso   1.00
C1683  C     0.49690   0.78828   0.69285   0.00000  Uiso   1.00
C1684  C     0.00310   0.71172   0.97381   0.00000  Uiso   1.00
C1685  C     0.25311   0.96177   0.69015   0.00000  Uiso   1.00
C1686  C     0.24689   0.53823   0.97652   0.00000  Uiso   1.00
C1687  C     0.24690   0.53828   0.69285   0.00000  Uiso   1.00
C1688  C     0.25310   0.96172   0.97381   0.00000  Uiso   1.00
C1689  C     0.40571   0.62442   0.79654   0.00000  Uiso   1.00
C1690  C     0.09429   0.87558   0.87013   0.00000  Uiso   1.00
C1691  C     0.12596   0.84001   0.79957   0.00000  Uiso   1.00
C1692  C     0.43966   0.80863   0.83396   0.00000  Uiso   1.00
C1693  C     0.37404   0.65999   0.86709   0.00000  Uiso   1.00
C1694  C     0.12216   0.65611   0.87107   0.00000  Uiso   1.00
C1695  C     0.37784   0.84389   0.79560   0.00000  Uiso   1.00
C1696  C     0.40055   0.87070   0.87398   0.00000  Uiso   1.00
C1697  C     0.09945   0.62930   0.79269   0.00000  Uiso   1.00
C1698  C     0.15571   0.87442   0.79654   0.00000  Uiso   1.00
C1699  C     0.34429   0.62558   0.87013   0.00000  Uiso   1.00
C1700  C     0.37596   0.59001   0.79957   0.00000  Uiso   1.00
C1701  C     0.12404   0.90999   0.86709   0.00000  Uiso   1.00
C1702  C     0.37216   0.90611   0.87107   0.00000  Uiso   1.00
C1703  C     0.43996   0.69109   0.83273   0.00000  Uiso   1.00
C1704  C     0.12784   0.59389   0.79560   0.00000  Uiso   1.00
C1705  C     0.15055   0.62070   0.87398   0.00000  Uiso   1.00
C1706  C     0.34945   0.87930   0.79269   0.00000  Uiso   1.00
C1707  C     0.09432   0.84165   0.83515   0.00000  Uiso   1.00
C1708  C     0.40568   0.65835   0.83151   0.00000  Uiso   1.00
C1709  C     0.40487   0.84093   0.83519   0.00000  Uiso   1.00
C1710  C     0.09513   0.65907   0.83148   0.00000  Uiso   1.00
C1711  C     0.34432   0.59165   0.83515   0.00000  Uiso   1.00
C1712  C     0.15568   0.90835   0.83151   0.00000  Uiso   1.00
C1713  C     0.15487   0.59093   0.83519   0.00000  Uiso   1.00
C1714  C     0.06004   0.80891   0.83394   0.00000  Uiso   1.00
C1715  C     0.34513   0.90907   0.83148   0.00000  Uiso   1.00
C1716  C     0.41861   0.64633   0.71698   0.00000  Uiso   1.00
C1717  C     0.08139   0.85367   0.94969   0.00000  Uiso   1.00
C1718  C     0.11180   0.80137   0.72392   0.00000  Uiso   1.00
C1719  C     0.38820   0.69863   0.94275   0.00000  Uiso   1.00
C1720  C     0.14549   0.72844   0.89717   0.00000  Uiso   1.00
C1721  C     0.35451   0.77155   0.76950   0.00000  Uiso   1.00
C1722  C     0.40081   0.84027   0.95069   0.00000  Uiso   1.00
C1723  C     0.09919   0.65973   0.71597   0.00000  Uiso   1.00
C1724  C     0.16861   0.89633   0.71698   0.00000  Uiso   1.00
C1725  C     0.31034   0.94137   0.83270   0.00000  Uiso   1.00
C1726  C     0.33139   0.60367   0.94969   0.00000  Uiso   1.00
C1727  C     0.36180   0.55137   0.72392   0.00000  Uiso   1.00
C1728  C     0.13820   0.94863   0.94275   0.00000  Uiso   1.00
C1729  C     0.39549   0.97844   0.89717   0.00000  Uiso   1.00
C1730  C     0.10451   0.52155   0.76950   0.00000  Uiso   1.00
C1731  C     0.15081   0.59027   0.95069   0.00000  Uiso   1.00
C1732  C     0.34919   0.90973   0.71597   0.00000  Uiso   1.00
C1733  C     0.18966   0.55863   0.83396   0.00000  Uiso   1.00
C1734  C     0.18996   0.94109   0.83273   0.00000  Uiso   1.00
C1735  C     0.31004   0.55891   0.83394   0.00000  Uiso   1.00
C1736  C     0.00311   0.71177   0.69015   0.00000  Uiso   1.00
Cu1737 Cu    0.00000   0.75000   0.88022   0.00000  Uiso   1.00
Cu1738 Cu    0.00000   0.75000   0.78645   0.00000  Uiso   1.00
Cu1739 Cu    0.25000   0.50000   0.88022   0.00000  Uiso   1.00
Cu1740 Cu    0.25000   0.50000   0.78645   0.00000  Uiso   1.00
H1741  H     0.00561   0.68125   0.70794   0.00000  Uiso   1.00
H1742  H     0.38647   0.63340   0.70688   0.00000  Uiso   1.00
H1743  H     0.44093   0.64069   0.68689   0.00000  Uiso   1.00
H1744  H     0.41509   0.68202   0.72371   0.00000  Uiso   1.00
H1745  H     0.05035   0.90445   0.91682   0.00000  Uiso   1.00
H1746  H     0.11353   0.86659   0.95979   0.00000  Uiso   1.00
H1747  H     0.08491   0.81798   0.94296   0.00000  Uiso   1.00
H1748  H     0.05907   0.85931   0.97978   0.00000  Uiso   1.00
H1749  H     0.16035   0.78630   0.77194   0.00000  Uiso   1.00
H1750  H     0.13737   0.80590   0.69715   0.00000  Uiso   1.00
H1751  H     0.08699   0.82736   0.72117   0.00000  Uiso   1.00
H1752  H     0.49439   0.81875   0.95873   0.00000  Uiso   1.00
H1753  H     0.09592   0.76944   0.71626   0.00000  Uiso   1.00
H1754  H     0.33965   0.71370   0.89473   0.00000  Uiso   1.00
H1755  H     0.36263   0.69410   0.96952   0.00000  Uiso   1.00
H1756  H     0.40408   0.73055   0.95041   0.00000  Uiso   1.00
H1757  H     0.41301   0.67264   0.94550   0.00000  Uiso   1.00
H1758  H     0.12562   0.67950   0.94125   0.00000  Uiso   1.00
H1759  H     0.18047   0.72070   0.89463   0.00000  Uiso   1.00
H1760  H     0.14054   0.75355   0.92574   0.00000  Uiso   1.00
H1761  H     0.13444   0.74227   0.86365   0.00000  Uiso   1.00
H1762  H     0.37438   0.82050   0.72542   0.00000  Uiso   1.00
H1763  H     0.49452   0.81897   0.71268   0.00000  Uiso   1.00
H1764  H     0.31953   0.77929   0.77203   0.00000  Uiso   1.00
H1765  H     0.36556   0.75773   0.80302   0.00000  Uiso   1.00
H1766  H     0.35946   0.74645   0.74092   0.00000  Uiso   1.00
H1767  H     0.43876   0.89258   0.93006   0.00000  Uiso   1.00
H1768  H     0.36975   0.85646   0.95989   0.00000  Uiso   1.00
H1769  H     0.42029   0.83805   0.98319   0.00000  Uiso   1.00
H1770  H     0.39381   0.80673   0.93673   0.00000  Uiso   1.00
H1771  H     0.06124   0.60742   0.73660   0.00000  Uiso   1.00
H1772  H     0.13025   0.64354   0.70677   0.00000  Uiso   1.00
H1773  H     0.10619   0.69327   0.72993   0.00000  Uiso   1.00
H1774  H     0.00548   0.68103   0.95399   0.00000  Uiso   1.00
H1775  H     0.07971   0.66195   0.68348   0.00000  Uiso   1.00
H1776  H     0.19965   0.84555   0.74985   0.00000  Uiso   1.00
H1777  H     0.13647   0.88340   0.70688   0.00000  Uiso   1.00
H1778  H     0.19093   0.89069   0.68689   0.00000  Uiso   1.00
H1779  H     0.16509   0.93202   0.72371   0.00000  Uiso   1.00
H1780  H     0.30035   0.65445   0.91682   0.00000  Uiso   1.00
H1781  H     0.36353   0.61659   0.95979   0.00000  Uiso   1.00
H1782  H     0.33491   0.56798   0.94296   0.00000  Uiso   1.00
H1783  H     0.30907   0.60931   0.97978   0.00000  Uiso   1.00
H1784  H     0.41035   0.53630   0.77194   0.00000  Uiso   1.00
H1785  H     0.25561   0.93125   0.70794   0.00000  Uiso   1.00
H1786  H     0.38737   0.55590   0.69715   0.00000  Uiso   1.00
H1787  H     0.33699   0.57736   0.72117   0.00000  Uiso   1.00
H1788  H     0.34592   0.51944   0.71626   0.00000  Uiso   1.00
H1789  H     0.08965   0.96370   0.89473   0.00000  Uiso   1.00
H1790  H     0.11263   0.94410   0.96952   0.00000  Uiso   1.00
H1791  H     0.15408   0.98055   0.95041   0.00000  Uiso   1.00
H1792  H     0.16301   0.92264   0.94550   0.00000  Uiso   1.00
H1793  H     0.37562   0.92950   0.94125   0.00000  Uiso   1.00
H1794  H     0.43047   0.97070   0.89463   0.00000  Uiso   1.00
H1795  H     0.39054   0.50355   0.92574   0.00000  Uiso   1.00
H1796  H     0.24439   0.56875   0.95873   0.00000  Uiso   1.00
H1797  H     0.38444   0.99227   0.86365   0.00000  Uiso   1.00
H1798  H     0.12438   0.57050   0.72542   0.00000  Uiso   1.00
H1799  H     0.06953   0.52929   0.77203   0.00000  Uiso   1.00
H1800  H     0.11556   0.50773   0.80302   0.00000  Uiso   1.00
H1801  H     0.10946   0.99645   0.74092   0.00000  Uiso   1.00
H1802  H     0.18876   0.64258   0.93006   0.00000  Uiso   1.00
H1803  H     0.11975   0.60646   0.95989   0.00000  Uiso   1.00
H1804  H     0.17029   0.58805   0.98319   0.00000  Uiso   1.00
H1805  H     0.14381   0.55673   0.93673   0.00000  Uiso   1.00
H1806  H     0.31124   0.85742   0.73660   0.00000  Uiso   1.00
H1807  H     0.24452   0.56897   0.71268   0.00000  Uiso   1.00
H1808  H     0.38025   0.89354   0.70677   0.00000  Uiso   1.00
H1809  H     0.35619   0.94327   0.72993   0.00000  Uiso   1.00
H1810  H     0.32971   0.91195   0.68348   0.00000  Uiso   1.00
H1811  H     0.25548   0.93103   0.95399   0.00000  Uiso   1.00
H1812  H     0.44965   0.59555   0.74985   0.00000  Uiso   1.00
N1813  N     0.00000   0.75000   0.95069   0.00000  Uiso   1.00
N1814  N     0.37884   0.81050   0.75923   0.00000  Uiso   1.00
N1815  N     0.42427   0.86470   0.91614   0.00000  Uiso   1.00
N1816  N     0.07573   0.63530   0.75053   0.00000  Uiso   1.00
N1817  N     0.18526   0.87517   0.75809   0.00000  Uiso   1.00
N1818  N     0.31474   0.62482   0.90858   0.00000  Uiso   1.00
N1819  N     0.38061   0.55128   0.77049   0.00000  Uiso   1.00
N1820  N     0.11939   0.94872   0.89618   0.00000  Uiso   1.00
N1821  N     0.37117   0.93950   0.90743   0.00000  Uiso   1.00
N1822  N     0.12884   0.56050   0.75923   0.00000  Uiso   1.00
N1823  N     0.17427   0.61470   0.91614   0.00000  Uiso   1.00
N1824  N     0.00000   0.75000   0.71598   0.00000  Uiso   1.00
N1825  N     0.32573   0.88530   0.75053   0.00000  Uiso   1.00
N1826  N     0.25000   0.50000   0.95069   0.00000  Uiso   1.00
N1827  N     0.25000   0.50000   0.71598   0.00000  Uiso   1.00
N1828  N     0.43526   0.62517   0.75809   0.00000  Uiso   1.00
N1829  N     0.06474   0.87482   0.90858   0.00000  Uiso   1.00
N1830  N     0.13061   0.80128   0.77049   0.00000  Uiso   1.00
N1831  N     0.36939   0.69872   0.89618   0.00000  Uiso   1.00
N1832  N     0.12117   0.68950   0.90743   0.00000  Uiso   1.00
O1833  O     0.04509   0.70491   0.87291   0.00000  Uiso   1.00
O1834  O     0.20492   0.54509   0.79375   0.00000  Uiso   1.00
O1835  O     0.20492   0.54509   0.87291   0.00000  Uiso   1.00
O1836  O     0.29509   0.95491   0.79375   0.00000  Uiso   1.00
O1837  O     0.20492   0.95491   0.79375   0.00000  Uiso   1.00
O1838  O     0.29509   0.54509   0.87291   0.00000  Uiso   1.00
O1839  O     0.29509   0.54509   0.79375   0.00000  Uiso   1.00
O1840  O     0.20492   0.95491   0.87291   0.00000  Uiso   1.00
O1841  O     0.45492   0.79509   0.79375   0.00000  Uiso   1.00
O1842  O     0.45492   0.79509   0.87291   0.00000  Uiso   1.00
O1843  O     0.04509   0.70491   0.79375   0.00000  Uiso   1.00
O1844  O     0.45492   0.70491   0.79375   0.00000  Uiso   1.00
O1845  O     0.04509   0.79509   0.87291   0.00000  Uiso   1.00
O1846  O     0.04509   0.79509   0.79375   0.00000  Uiso   1.00
O1847  O     0.45492   0.70491   0.87291   0.00000  Uiso   1.00
O1848  O     0.29509   0.95491   0.87291   0.00000  Uiso   1.00
C1849  C     0.56034   0.69137   0.83270   0.00000  Uiso   1.00
C1850  C     0.99689   0.78823   0.97652   0.00000  Uiso   1.00
C1851  C     0.99690   0.78828   0.69285   0.00000  Uiso   1.00
C1852  C     0.50310   0.71172   0.97381   0.00000  Uiso   1.00
C1853  C     0.75311   0.96177   0.69015   0.00000  Uiso   1.00
C1854  C     0.74689   0.53823   0.97652   0.00000  Uiso   1.00
C1855  C     0.74690   0.53828   0.69285   0.00000  Uiso   1.00
C1856  C     0.75310   0.96172   0.97381   0.00000  Uiso   1.00
C1857  C     0.90571   0.62442   0.79654   0.00000  Uiso   1.00
C1858  C     0.59429   0.87558   0.87013   0.00000  Uiso   1.00
C1859  C     0.62596   0.84001   0.79957   0.00000  Uiso   1.00
C1860  C     0.93966   0.80863   0.83396   0.00000  Uiso   1.00
C1861  C     0.87404   0.65999   0.86709   0.00000  Uiso   1.00
C1862  C     0.62216   0.65611   0.87107   0.00000  Uiso   1.00
C1863  C     0.87784   0.84389   0.79560   0.00000  Uiso   1.00
C1864  C     0.90055   0.87070   0.87398   0.00000  Uiso   1.00
C1865  C     0.59945   0.62930   0.79269   0.00000  Uiso   1.00
C1866  C     0.65571   0.87442   0.79654   0.00000  Uiso   1.00
C1867  C     0.84429   0.62558   0.87013   0.00000  Uiso   1.00
C1868  C     0.87596   0.59001   0.79957   0.00000  Uiso   1.00
C1869  C     0.62404   0.90999   0.86709   0.00000  Uiso   1.00
C1870  C     0.87216   0.90611   0.87107   0.00000  Uiso   1.00
C1871  C     0.93996   0.69109   0.83273   0.00000  Uiso   1.00
C1872  C     0.62784   0.59389   0.79560   0.00000  Uiso   1.00
C1873  C     0.65055   0.62070   0.87398   0.00000  Uiso   1.00
C1874  C     0.84945   0.87930   0.79269   0.00000  Uiso   1.00
C1875  C     0.59432   0.84165   0.83515   0.00000  Uiso   1.00
C1876  C     0.90568   0.65835   0.83151   0.00000  Uiso   1.00
C1877  C     0.90487   0.84093   0.83519   0.00000  Uiso   1.00
C1878  C     0.59513   0.65907   0.83148   0.00000  Uiso   1.00
C1879  C     0.84432   0.59165   0.83515   0.00000  Uiso   1.00
C1880  C     0.65568   0.90835   0.83151   0.00000  Uiso   1.00
C1881  C     0.65487   0.59093   0.83519   0.00000  Uiso   1.00
C1882  C     0.56004   0.80891   0.83394   0.00000  Uiso   1.00
C1883  C     0.84513   0.90907   0.83148   0.00000  Uiso   1.00
C1884  C     0.91861   0.64633   0.71698   0.00000  Uiso   1.00
C1885  C     0.58139   0.85367   0.94969   0.00000  Uiso   1.00
C1886  C     0.61180   0.80137   0.72392   0.00000  Uiso   1.00
C1887  C     0.88820   0.69863   0.94275   0.00000  Uiso   1.00
C1888  C     0.64549   0.72844   0.89717   0.00000  Uiso   1.00
C1889  C     0.85451   0.77155   0.76950   0.00000  Uiso   1.00
C1890  C     0.90081   0.84027   0.95069   0.00000  Uiso   1.00
C1891  C     0.59919   0.65973   0.71597   0.00000  Uiso   1.00
C1892  C     0.66861   0.89633   0.71698   0.00000  Uiso   1.00
C1893  C     0.81034   0.94137   0.83270   0.00000  Uiso   1.00
C1894  C     0.83139   0.60367   0.94969   0.00000  Uiso   1.00
C1895  C     0.86180   0.55137   0.72392   0.00000  Uiso   1.00
C1896  C     0.63820   0.94863   0.94275   0.00000  Uiso   1.00
C1897  C     0.89549   0.97844   0.89717   0.00000  Uiso   1.00
C1898  C     0.60451   0.52155   0.76950   0.00000  Uiso   1.00
C1899  C     0.65081   0.59027   0.95069   0.00000  Uiso   1.00
C1900  C     0.84919   0.90973   0.71597   0.00000  Uiso   1.00
C1901  C     0.68966   0.55863   0.83396   0.00000  Uiso   1.00
C1902  C     0.68996   0.94109   0.83273   0.00000  Uiso   1.00
C1903  C     0.81004   0.55891   0.83394   0.00000  Uiso   1.00
C1904  C     0.50311   0.71177   0.69015   0.00000  Uiso   1.00
Cu1905 Cu    0.50000   0.75000   0.88022   0.00000  Uiso   1.00
Cu1906 Cu    0.50000   0.75000   0.78645   0.00000  Uiso   1.00
Cu1907 Cu    0.75000   0.50000   0.88022   0.00000  Uiso   1.00
Cu1908 Cu    0.75000   0.50000   0.78645   0.00000  Uiso   1.00
H1909  H     0.50561   0.68125   0.70794   0.00000  Uiso   1.00
H1910  H     0.88647   0.63340   0.70688   0.00000  Uiso   1.00
H1911  H     0.94093   0.64069   0.68689   0.00000  Uiso   1.00
H1912  H     0.91509   0.68202   0.72371   0.00000  Uiso   1.00
H1913  H     0.55035   0.90445   0.91682   0.00000  Uiso   1.00
H1914  H     0.61353   0.86659   0.95979   0.00000  Uiso   1.00
H1915  H     0.58491   0.81798   0.94296   0.00000  Uiso   1.00
H1916  H     0.55907   0.85931   0.97978   0.00000  Uiso   1.00
H1917  H     0.66035   0.78630   0.77194   0.00000  Uiso   1.00
H1918  H     0.63737   0.80590   0.69715   0.00000  Uiso   1.00
H1919  H     0.58699   0.82736   0.72117   0.00000  Uiso   1.00
H1920  H     0.99439   0.81875   0.95873   0.00000  Uiso   1.00
H1921  H     0.59592   0.76944   0.71626   0.00000  Uiso   1.00
H1922  H     0.83965   0.71370   0.89473   0.00000  Uiso   1.00
H1923  H     0.86263   0.69410   0.96952   0.00000  Uiso   1.00
H1924  H     0.90408   0.73055   0.95041   0.00000  Uiso   1.00
H1925  H     0.91301   0.67264   0.94550   0.00000  Uiso   1.00
H1926  H     0.62562   0.67950   0.94125   0.00000  Uiso   1.00
H1927  H     0.68047   0.72070   0.89463   0.00000  Uiso   1.00
H1928  H     0.64054   0.75355   0.92574   0.00000  Uiso   1.00
H1929  H     0.63444   0.74227   0.86365   0.00000  Uiso   1.00
H1930  H     0.87438   0.82050   0.72542   0.00000  Uiso   1.00
H1931  H     0.99452   0.81897   0.71268   0.00000  Uiso   1.00
H1932  H     0.81953   0.77929   0.77203   0.00000  Uiso   1.00
H1933  H     0.86556   0.75773   0.80302   0.00000  Uiso   1.00
H1934  H     0.85946   0.74645   0.74092   0.00000  Uiso   1.00
H1935  H     0.93876   0.89258   0.93006   0.00000  Uiso   1.00
H1936  H     0.86975   0.85646   0.95989   0.00000  Uiso   1.00
H1937  H     0.92029   0.83805   0.98319   0.00000  Uiso   1.00
H1938  H     0.89381   0.80673   0.93673   0.00000  Uiso   1.00
H1939  H     0.56124   0.60742   0.73660   0.00000  Uiso   1.00
H1940  H     0.63025   0.64354   0.70677   0.00000  Uiso   1.00
H1941  H     0.60619   0.69327   0.72993   0.00000  Uiso   1.00
H1942  H     0.50548   0.68103   0.95399   0.00000  Uiso   1.00
H1943  H     0.57971   0.66195   0.68348   0.00000  Uiso   1.00
H1944  H     0.69965   0.84555   0.74985   0.00000  Uiso   1.00
H1945  H     0.63647   0.88340   0.70688   0.00000  Uiso   1.00
H1946  H     0.69093   0.89069   0.68689   0.00000  Uiso   1.00
H1947  H     0.66509   0.93202   0.72371   0.00000  Uiso   1.00
H1948  H     0.80035   0.65445   0.91682   0.00000  Uiso   1.00
H1949  H     0.86353   0.61659   0.95979   0.00000  Uiso   1.00
H1950  H     0.83491   0.56798   0.94296   0.00000  Uiso   1.00
H1951  H     0.80907   0.60931   0.97978   0.00000  Uiso   1.00
H1952  H     0.91035   0.53630   0.77194   0.00000  Uiso   1.00
H1953  H     0.75561   0.93125   0.70794   0.00000  Uiso   1.00
H1954  H     0.88737   0.55590   0.69715   0.00000  Uiso   1.00
H1955  H     0.83699   0.57736   0.72117   0.00000  Uiso   1.00
H1956  H     0.84592   0.51944   0.71626   0.00000  Uiso   1.00
H1957  H     0.58965   0.96370   0.89473   0.00000  Uiso   1.00
H1958  H     0.61263   0.94410   0.96952   0.00000  Uiso   1.00
H1959  H     0.65408   0.98055   0.95041   0.00000  Uiso   1.00
H1960  H     0.66301   0.92264   0.94550   0.00000  Uiso   1.00
H1961  H     0.87562   0.92950   0.94125   0.00000  Uiso   1.00
H1962  H     0.93047   0.97070   0.89463   0.00000  Uiso   1.00
H1963  H     0.89054   0.50355   0.92574   0.00000  Uiso   1.00
H1964  H     0.74439   0.56875   0.95873   0.00000  Uiso   1.00
H1965  H     0.88444   0.99227   0.86365   0.00000  Uiso   1.00
H1966  H     0.62438   0.57050   0.72542   0.00000  Uiso   1.00
H1967  H     0.56953   0.52929   0.77203   0.00000  Uiso   1.00
H1968  H     0.61556   0.50773   0.80302   0.00000  Uiso   1.00
H1969  H     0.60946   0.99645   0.74092   0.00000  Uiso   1.00
H1970  H     0.68876   0.64258   0.93006   0.00000  Uiso   1.00
H1971  H     0.61975   0.60646   0.95989   0.00000  Uiso   1.00
H1972  H     0.67029   0.58805   0.98319   0.00000  Uiso   1.00
H1973  H     0.64381   0.55673   0.93673   0.00000  Uiso   1.00
H1974  H     0.81124   0.85742   0.73660   0.00000  Uiso   1.00
H1975  H     0.74452   0.56897   0.71268   0.00000  Uiso   1.00
H1976  H     0.88025   0.89354   0.70677   0.00000  Uiso   1.00
H1977  H     0.85619   0.94327   0.72993   0.00000  Uiso   1.00
H1978  H     0.82971   0.91195   0.68348   0.00000  Uiso   1.00
H1979  H     0.75548   0.93103   0.95399   0.00000  Uiso   1.00
H1980  H     0.94965   0.59555   0.74985   0.00000  Uiso   1.00
N1981  N     0.50000   0.75000   0.95069   0.00000  Uiso   1.00
N1982  N     0.87884   0.81050   0.75923   0.00000  Uiso   1.00
N1983  N     0.92427   0.86470   0.91614   0.00000  Uiso   1.00
N1984  N     0.57573   0.63530   0.75053   0.00000  Uiso   1.00
N1985  N     0.68526   0.87517   0.75809   0.00000  Uiso   1.00
N1986  N     0.81474   0.62482   0.90858   0.00000  Uiso   1.00
N1987  N     0.88061   0.55128   0.77049   0.00000  Uiso   1.00
N1988  N     0.61939   0.94872   0.89618   0.00000  Uiso   1.00
N1989  N     0.87117   0.93950   0.90743   0.00000  Uiso   1.00
N1990  N     0.62884   0.56050   0.75923   0.00000  Uiso   1.00
N1991  N     0.67427   0.61470   0.91614   0.00000  Uiso   1.00
N1992  N     0.50000   0.75000   0.71598   0.00000  Uiso   1.00
N1993  N     0.82573   0.88530   0.75053   0.00000  Uiso   1.00
N1994  N     0.75000   0.50000   0.95069   0.00000  Uiso   1.00
N1995  N     0.75000   0.50000   0.71598   0.00000  Uiso   1.00
N1996  N     0.93526   0.62517   0.75809   0.00000  Uiso   1.00
N1997  N     0.56474   0.87482   0.90858   0.00000  Uiso   1.00
N1998  N     0.63061   0.80128   0.77049   0.00000  Uiso   1.00
N1999  N     0.86939   0.69872   0.89618   0.00000  Uiso   1.00
N2000  N     0.62117   0.68950   0.90743   0.00000  Uiso   1.00
O2001  O     0.54509   0.70491   0.87291   0.00000  Uiso   1.00
O2002  O     0.70492   0.54509   0.79375   0.00000  Uiso   1.00
O2003  O     0.70492   0.54509   0.87291   0.00000  Uiso   1.00
O2004  O     0.79509   0.95491   0.79375   0.00000  Uiso   1.00
O2005  O     0.70492   0.95491   0.79375   0.00000  Uiso   1.00
O2006  O     0.79509   0.54509   0.87291   0.00000  Uiso   1.00
O2007  O     0.79509   0.54509   0.79375   0.00000  Uiso   1.00
O2008  O     0.70492   0.95491   0.87291   0.00000  Uiso   1.00
O2009  O     0.95492   0.79509   0.79375   0.00000  Uiso   1.00
O2010  O     0.95492   0.79509   0.87291   0.00000  Uiso   1.00
O2011  O     0.54509   0.70491   0.79375   0.00000  Uiso   1.00
O2012  O     0.95492   0.70491   0.79375   0.00000  Uiso   1.00
O2013  O     0.54509   0.79509   0.87291   0.00000  Uiso   1.00
O2014  O     0.54509   0.79509   0.79375   0.00000  Uiso   1.00
O2015  O     0.95492   0.70491   0.87291   0.00000  Uiso   1.00
O2016  O     0.79509   0.95491   0.87291   0.00000  Uiso   1.00
loop_
_geom_bond_atom_site_label_1
_geom_bond_atom_site_label_2
_geom_bond_distance
_geom_bond_site_symmetry_2
_ccdc_geom_bond_type
C1     O153    1.293   .     A
C1     C30     1.463   .     S
C1     O163    1.287   .     A
C2     H72     1.080   .     S
C2     C675    1.414   .     S
C2     N301    1.364   .     S
C3     H83     1.082   .     S
C3     C1346   1.414   1_554 S
C3     N312    1.366   .     S
C4     H94     1.082   .     S
C4     N133    1.366   .     A
C4     C728    1.414   .     S
C5     N483    1.364   .     A
C5     H105    1.080   .     S
C5     C1352   1.414   1_554 S
C6     H116    1.080   .     S
C6     C679    1.414   .     S
C6     N146    1.364   .     S
C7     H127    1.082   .     S
C7     C1350   1.414   1_554 S
C7     N147    1.366   .     S
C8     H131    1.082   .     S
C8     N482    1.366   .     A
C8     C677    1.414   .     S
C9     C20     1.403   .     A
C9     N148    1.427   .     S
C9     C28     1.414   .     A
C10    C27     1.414   .     A
C10    N149    1.427   .     S
C10    C21     1.403   .     A
C11    C18     1.403   .     A
C11    N150    1.430   .     S
C11    C27     1.408   .     A
C12    C29     1.463   .     S
C12    O161    1.293   .     A
C12    O162    1.287   .     A
C13    C28     1.408   .     A
C13    N151    1.430   .     S
C13    C19     1.403   .     A
C14    C30     1.410   .     A
C14    N152    1.430   .     S
C14    C25     1.401   .     A
C15    N134    1.430   .     S
C15    C29     1.410   .     A
C15    C26     1.401   .     A
C16    C29     1.414   .     A
C16    C22     1.401   .     A
C16    N135    1.425   .     S
C17    C30     1.414   .     A
C17    C24     1.401   .     A
C17    N136    1.425   .     S
C18    N137    1.427   .     S
C18    C32     1.414   .     A
C19    C31     1.414   .     A
C19    N138    1.427   .     S
C20    N139    1.430   .     S
C20    C31     1.408   .     A
C21    C32     1.408   .     A
C21    N140    1.430   .     S
C22    C35     1.410   .     A
C22    N141    1.430   .     S
C23    C28     1.458   .     S
C23    O167    1.292   .     A
C23    O164    1.286   .     A
C24    N142    1.430   .     S
C24    C33     1.410   .     A
C25    N143    1.425   .     S
C25    C33     1.414   .     A
C26    N145    1.425   .     S
C26    C35     1.414   .     A
C27    C34     1.458   .     S
C31    C55     1.458   .     S
C32    C54     1.458   .     S
C33    C53     1.463   .     S
C34    O165    1.286   .     A
C34    O166    1.292   .     A
C35    C45     1.463   .     S
C36    H62     1.105   .     S
C36    N148    1.452   .     S
C36    H63     1.110   .     S
C36    H64     1.108   .     S
C37    H68     1.110   .     S
C37    H66     1.105   .     S
C37    N149    1.452   .     S
C37    H67     1.108   .     S
C38    H70     1.110   .     S
C38    H71     1.111   .     S
C38    H73     1.108   .     S
C38    N150    1.449   .     S
C39    H77     1.111   .     S
C39    N151    1.449   .     S
C39    H75     1.110   .     S
C39    H76     1.108   .     S
C40    N152    1.447   .     S
C40    H80     1.110   .     S
C40    H79     1.111   .     S
C40    H81     1.111   .     S
C41    H86     1.110   .     S
C41    N134    1.447   .     S
C41    H84     1.111   .     S
C41    H85     1.111   .     S
C42    N135    1.449   .     S
C42    H90     1.109   .     S
C42    H89     1.109   .     S
C42    H88     1.110   .     S
C43    H95     1.109   .     S
C43    H92     1.110   .     S
C43    H93     1.109   .     S
C43    N136    1.449   .     S
C44    N137    1.452   .     S
C44    H99     1.108   .     S
C44    H98     1.110   .     S
C44    H97     1.105   .     S
C45    O156    1.287   .     A
C45    O168    1.293   .     A
C46    H102    1.108   .     S
C46    N138    1.452   .     S
C46    H101    1.105   .     S
C46    H103    1.110   .     S
C47    H106    1.110   .     S
C47    H107    1.111   .     S
C47    H108    1.108   .     S
C47    N139    1.449   .     S
C48    H110    1.110   .     S
C48    N140    1.449   .     S
C48    H112    1.111   .     S
C48    H111    1.108   .     S
C49    H117    1.111   .     S
C49    N141    1.447   .     S
C49    H114    1.111   .     S
C49    H451    1.110   .     S
C50    H120    1.111   .     S
C50    H119    1.111   .     S
C50    N142    1.447   .     S
C50    H457    1.110   1_545 S
C51    H123    1.110   .     S
C51    H124    1.109   .     S
C51    H125    1.109   .     S
C51    N143    1.449   .     S
C52    N145    1.449   .     S
C52    H128    1.110   .     S
C52    H129    1.109   .     S
C52    H130    1.109   .     S
C53    O154    1.293   .     A
C53    O155    1.287   .     A
C54    O160    1.292   .     A
C54    O157    1.286   .     A
C55    O158    1.286   .     A
C55    O159    1.292   .     A
C56    N144    1.364   .     A
C56    H61     1.080   .     S
C56    C1348   1.414   1_554 S
Cu57   O165    1.977   .     S
Cu57   N133    2.006   .     S
Cu57   O153    1.970   .     S
Cu57   Cu58    2.669   .     S
Cu57   O330    1.980   1_455 S
Cu57   O335    1.968   1_455 S
Cu58   O163    1.980   .     S
Cu58   O166    1.968   .     S
Cu58   N144    2.006   .     S
Cu58   O329    1.970   1_455 S
Cu58   O332    1.977   1_455 S
Cu59   O496    1.968   1_545 S
Cu59   N146    2.006   .     S
Cu59   Cu60    2.669   .     S
Cu59   O504    1.970   1_545 S
Cu59   O155    1.980   .     S
Cu59   O158    1.977   .     S
Cu60   N147    2.006   .     S
Cu60   O493    1.977   1_545 S
Cu60   O492    1.980   1_545 S
Cu60   O154    1.970   .     S
Cu60   O159    1.968   .     S
H65    N149    1.030   .     S
H69    N150    1.031   .     S
H74    N151    1.031   .     S
H78    N152    1.029   .     S
H82    N134    1.029   .     S
H87    N135    1.031   .     S
H91    N136    1.031   .     S
H96    N137    1.030   .     S
H100   N138    1.030   .     S
H104   N139    1.031   .     S
H109   N140    1.031   .     S
H113   N141    1.029   .     S
H115   C385    1.110   1_545 S
H118   N142    1.029   .     S
H121   C386    1.110   .     S
H122   N143    1.031   .     S
H126   N145    1.031   .     S
H132   N148    1.030   .     S
N133   C170    1.364   1_455 S
N144   C171    1.366   1_455 S
N146   C344    1.366   1_545 A
N147   C341    1.364   1_545 A
O156   Cu396   1.980   .     S
O157   Cu396   1.977   .     S
O160   Cu395   1.968   .     S
O161   Cu226   1.970   .     S
O162   Cu225   1.980   .     S
O164   Cu226   1.977   .     S
O167   Cu225   1.968   .     S
O168   Cu395   1.970   .     S
C169   O321    1.293   .     A
C169   C198    1.463   .     S
C169   O331    1.287   .     A
C170   H240    1.080   .     S
C170   C843    1.414   .     S
C170   N133    1.364   1_655 S
C171   H251    1.082   .     S
C171   C1514   1.414   1_554 S
C171   N144    1.366   1_655 S
C172   H262    1.082   .     S
C172   N301    1.366   .     A
C172   C896    1.414   .     S
C173   N651    1.364   .     A
C173   H273    1.080   .     S
C173   C1520   1.414   1_554 S
C174   H284    1.080   .     S
C174   C847    1.414   .     S
C174   N314    1.364   .     S
C175   H295    1.082   .     S
C175   C1518   1.414   1_554 S
C175   N315    1.366   .     S
C176   H299    1.082   .     S
C176   N650    1.366   .     A
C176   C845    1.414   .     S
C177   C188    1.403   .     A
C177   N316    1.427   .     S
C177   C196    1.414   .     A
C178   C195    1.414   .     A
C178   N317    1.427   .     S
C178   C189    1.403   .     A
C179   C186    1.403   .     A
C179   N318    1.430   .     S
C179   C195    1.408   .     A
C180   C197    1.463   .     S
C180   O329    1.293   .     A
C180   O330    1.287   .     A
C181   C196    1.408   .     A
C181   N319    1.430   .     S
C181   C187    1.403   .     A
C182   C198    1.410   .     A
C182   N320    1.430   .     S
C182   C193    1.401   .     A
C183   N302    1.430   .     S
C183   C197    1.410   .     A
C183   C194    1.401   .     A
C184   C197    1.414   .     A
C184   C190    1.401   .     A
C184   N303    1.425   .     S
C185   C198    1.414   .     A
C185   C192    1.401   .     A
C185   N304    1.425   .     S
C186   N305    1.427   .     S
C186   C200    1.414   .     A
C187   C199    1.414   .     A
C187   N306    1.427   .     S
C188   N307    1.430   .     S
C188   C199    1.408   .     A
C189   C200    1.408   .     A
C189   N308    1.430   .     S
C190   C203    1.410   .     A
C190   N309    1.430   .     S
C191   C196    1.458   .     S
C191   O335    1.292   .     A
C191   O332    1.286   .     A
C192   N310    1.430   .     S
C192   C201    1.410   .     A
C193   N311    1.425   .     S
C193   C201    1.414   .     A
C194   N313    1.425   .     S
C194   C203    1.414   .     A
C195   C202    1.458   .     S
C199   C223    1.458   .     S
C200   C222    1.458   .     S
C201   C221    1.463   .     S
C202   O333    1.286   .     A
C202   O334    1.292   .     A
C203   C213    1.463   .     S
C204   H230    1.105   .     S
C204   N316    1.452   .     S
C204   H231    1.110   .     S
C204   H232    1.108   .     S
C205   H236    1.110   .     S
C205   H234    1.105   .     S
C205   N317    1.452   .     S
C205   H235    1.108   .     S
C206   H238    1.110   .     S
C206   H239    1.111   .     S
C206   H241    1.108   .     S
C206   N318    1.449   .     S
C207   H245    1.111   .     S
C207   N319    1.449   .     S
C207   H243    1.110   .     S
C207   H244    1.108   .     S
C208   N320    1.447   .     S
C208   H248    1.110   .     S
C208   H247    1.111   .     S
C208   H249    1.111   .     S
C209   H254    1.110   .     S
C209   N302    1.447   .     S
C209   H252    1.111   .     S
C209   H253    1.111   .     S
C210   N303    1.449   .     S
C210   H258    1.109   .     S
C210   H257    1.109   .     S
C210   H256    1.110   .     S
C211   H263    1.109   .     S
C211   H260    1.110   .     S
C211   H261    1.109   .     S
C211   N304    1.449   .     S
C212   N305    1.452   .     S
C212   H267    1.108   .     S
C212   H266    1.110   .     S
C212   H265    1.105   .     S
C213   O324    1.287   .     A
C213   O336    1.293   .     A
C214   H270    1.108   .     S
C214   N306    1.452   .     S
C214   H269    1.105   .     S
C214   H271    1.110   .     S
C215   H274    1.110   .     S
C215   H275    1.111   .     S
C215   H276    1.108   .     S
C215   N307    1.449   .     S
C216   H278    1.110   .     S
C216   N308    1.449   .     S
C216   H280    1.111   .     S
C216   H279    1.108   .     S
C217   H285    1.111   .     S
C217   N309    1.447   .     S
C217   H282    1.111   .     S
C217   H619    1.110   .     S
C218   H288    1.111   .     S
C218   H287    1.111   .     S
C218   N310    1.447   .     S
C218   H625    1.110   1_545 S
C219   H291    1.110   .     S
C219   H292    1.109   .     S
C219   H293    1.109   .     S
C219   N311    1.449   .     S
C220   N313    1.449   .     S
C220   H296    1.110   .     S
C220   H297    1.109   .     S
C220   H298    1.109   .     S
C221   O322    1.293   .     A
C221   O323    1.287   .     A
C222   O328    1.292   .     A
C222   O325    1.286   .     A
C223   O326    1.286   .     A
C223   O327    1.292   .     A
C224   N312    1.364   .     A
C224   H229    1.080   .     S
C224   C1516   1.414   1_554 S
Cu225  O333    1.977   .     S
Cu225  N301    2.006   .     S
Cu225  O321    1.970   .     S
Cu225  Cu226   2.669   .     S
Cu226  O331    1.980   .     S
Cu226  O334    1.968   .     S
Cu226  N312    2.006   .     S
Cu227  O664    1.968   1_545 S
Cu227  N314    2.006   .     S
Cu227  Cu228   2.669   .     S
Cu227  O672    1.970   1_545 S
Cu227  O323    1.980   .     S
Cu227  O326    1.977   .     S
Cu228  N315    2.006   .     S
Cu228  O661    1.977   1_545 S
Cu228  O660    1.980   1_545 S
Cu228  O322    1.970   .     S
Cu228  O327    1.968   .     S
H233   N317    1.030   .     S
H237   N318    1.031   .     S
H242   N319    1.031   .     S
H246   N320    1.029   .     S
H250   N302    1.029   .     S
H255   N303    1.031   .     S
H259   N304    1.031   .     S
H264   N305    1.030   .     S
H268   N306    1.030   .     S
H272   N307    1.031   .     S
H277   N308    1.031   .     S
H281   N309    1.029   .     S
H283   C553    1.110   1_545 S
H286   N310    1.029   .     S
H289   C554    1.110   .     S
H290   N311    1.031   .     S
H294   N313    1.031   .     S
H300   N316    1.030   .     S
N314   C512    1.366   1_545 A
N315   C509    1.364   1_545 A
O324   Cu564   1.980   .     S
O325   Cu564   1.977   .     S
O328   Cu563   1.968   .     S
O329   Cu58    1.970   1_655 S
O330   Cu57    1.980   1_655 S
O332   Cu58    1.977   1_655 S
O335   Cu57    1.968   1_655 S
O336   Cu563   1.970   .     S
C337   O489    1.293   .     A
C337   C366    1.463   .     S
C337   O499    1.287   .     A
C338   H408    1.080   .     S
C338   C1011   1.414   .     S
C338   N637    1.364   .     S
C339   H419    1.082   .     S
C339   C1682   1.414   1_554 S
C339   N648    1.366   .     S
C340   H430    1.082   .     S
C340   N469    1.366   .     A
C340   C1064   1.414   .     S
C341   N147    1.364   1_565 A
C341   H441    1.080   .     S
C341   C1688   1.414   1_554 S
C342   H452    1.080   .     S
C342   C1015   1.414   .     S
C342   N482    1.364   .     S
C343   H463    1.082   .     S
C343   C1686   1.414   1_554 S
C343   N483    1.366   .     S
C344   H467    1.082   .     S
C344   N146    1.366   1_565 A
C344   C1013   1.414   .     S
C345   C356    1.403   .     A
C345   N484    1.427   .     S
C345   C364    1.414   .     A
C346   C363    1.414   .     A
C346   N485    1.427   .     S
C346   C357    1.403   .     A
C347   C354    1.403   .     A
C347   N486    1.430   .     S
C347   C363    1.408   .     A
C348   C365    1.463   .     S
C348   O497    1.293   .     A
C348   O498    1.287   .     A
C349   C364    1.408   .     A
C349   N487    1.430   .     S
C349   C355    1.403   .     A
C350   C366    1.410   .     A
C350   N488    1.430   .     S
C350   C361    1.401   .     A
C351   N470    1.430   .     S
C351   C365    1.410   .     A
C351   C362    1.401   .     A
C352   C365    1.414   .     A
C352   C358    1.401   .     A
C352   N471    1.425   .     S
C353   C366    1.414   .     A
C353   C360    1.401   .     A
C353   N472    1.425   .     S
C354   N473    1.427   .     S
C354   C368    1.414   .     A
C355   C367    1.414   .     A
C355   N474    1.427   .     S
C356   N475    1.430   .     S
C356   C367    1.408   .     A
C357   C368    1.408   .     A
C357   N476    1.430   .     S
C358   C371    1.410   .     A
C358   N477    1.430   .     S
C359   C364    1.458   .     S
C359   O503    1.292   .     A
C359   O500    1.286   .     A
C360   N478    1.430   .     S
C360   C369    1.410   .     A
C361   N479    1.425   .     S
C361   C369    1.414   .     A
C362   N481    1.425   .     S
C362   C371    1.414   .     A
C363   C370    1.458   .     S
C367   C391    1.458   .     S
C368   C390    1.458   .     S
C369   C389    1.463   .     S
C370   O501    1.286   .     A
C370   O502    1.292   .     A
C371   C381    1.463   .     S
C372   H398    1.105   .     S
C372   N484    1.452   .     S
C372   H399    1.110   .     S
C372   H400    1.108   .     S
C373   H404    1.110   .     S
C373   H402    1.105   .     S
C373   N485    1.452   .     S
C373   H403    1.108   .     S
C374   H406    1.110   .     S
C374   H407    1.111   .     S
C374   H409    1.108   .     S
C374   N486    1.449   .     S
C375   H413    1.111   .     S
C375   N487    1.449   .     S
C375   H411    1.110   .     S
C375   H412    1.108   .     S
C376   N488    1.447   .     S
C376   H416    1.110   .     S
C376   H415    1.111   .     S
C376   H417    1.111   .     S
C377   H422    1.110   .     S
C377   N470    1.447   .     S
C377   H420    1.111   .     S
C377   H421    1.111   .     S
C378   N471    1.449   .     S
C378   H426    1.109   .     S
C378   H425    1.109   .     S
C378   H424    1.110   .     S
C379   H431    1.109   .     S
C379   H428    1.110   .     S
C379   H429    1.109   .     S
C379   N472    1.449   .     S
C380   N473    1.452   .     S
C380   H435    1.108   .     S
C380   H434    1.110   .     S
C380   H433    1.105   .     S
C381   O492    1.287   .     A
C381   O504    1.293   .     A
C382   H438    1.108   .     S
C382   N474    1.452   .     S
C382   H437    1.105   .     S
C382   H439    1.110   .     S
C383   H442    1.110   .     S
C383   H443    1.111   .     S
C383   H444    1.108   .     S
C383   N475    1.449   .     S
C384   H446    1.110   .     S
C384   N476    1.449   .     S
C384   H448    1.111   .     S
C384   H447    1.108   .     S
C385   H453    1.111   .     S
C385   N477    1.447   .     S
C385   H450    1.111   .     S
C385   H115    1.110   1_565 S
C386   H456    1.111   .     S
C386   H455    1.111   .     S
C386   N478    1.447   .     S
C387   H459    1.110   .     S
C387   H460    1.109   .     S
C387   H461    1.109   .     S
C387   N479    1.449   .     S
C388   N481    1.449   .     S
C388   H464    1.110   .     S
C388   H465    1.109   .     S
C388   H466    1.109   .     S
C389   O490    1.293   .     A
C389   O491    1.287   .     A
C390   O496    1.292   .     A
C390   O493    1.286   .     A
C391   O494    1.286   .     A
C391   O495    1.292   .     A
C392   N480    1.364   .     A
C392   H397    1.080   .     S
C392   C1684   1.414   1_554 S
Cu393  O501    1.977   .     S
Cu393  N469    2.006   .     S
Cu393  O489    1.970   .     S
Cu393  Cu394   2.669   .     S
Cu393  O666    1.980   1_455 S
Cu393  O671    1.968   1_455 S
Cu394  O499    1.980   .     S
Cu394  O502    1.968   .     S
Cu394  N480    2.006   .     S
Cu394  O665    1.970   1_455 S
Cu394  O668    1.977   1_455 S
Cu395  N482    2.006   .     S
Cu395  Cu396   2.669   .     S
Cu395  O491    1.980   .     S
Cu395  O494    1.977   .     S
Cu396  N483    2.006   .     S
Cu396  O490    1.970   .     S
Cu396  O495    1.968   .     S
H401   N485    1.030   .     S
H405   N486    1.031   .     S
H410   N487    1.031   .     S
H414   N488    1.029   .     S
H418   N470    1.029   .     S
H423   N471    1.031   .     S
H427   N472    1.031   .     S
H432   N473    1.030   .     S
H436   N474    1.030   .     S
H440   N475    1.031   .     S
H445   N476    1.031   .     S
H449   N477    1.029   .     S
H454   N478    1.029   .     S
H457   C50     1.110   1_565 S
H458   N479    1.031   .     S
H462   N481    1.031   .     S
H468   N484    1.030   .     S
N469   C506    1.364   1_455 S
N480   C507    1.366   1_455 S
O492   Cu60    1.980   1_565 S
O493   Cu60    1.977   1_565 S
O496   Cu59    1.968   1_565 S
O497   Cu562   1.970   .     S
O498   Cu561   1.980   .     S
O500   Cu562   1.977   .     S
O503   Cu561   1.968   .     S
O504   Cu59    1.970   1_565 S
C505   O657    1.293   .     A
C505   C534    1.463   .     S
C505   O667    1.287   .     A
C506   H576    1.080   .     S
C506   C1179   1.414   .     S
C506   N469    1.364   1_655 S
C507   H587    1.082   .     S
C507   C1850   1.414   1_554 S
C507   N480    1.366   1_655 S
C508   H598    1.082   .     S
C508   N637    1.366   .     A
C508   C1232   1.414   .     S
C509   N315    1.364   1_565 A
C509   H609    1.080   .     S
C509   C1856   1.414   1_554 S
C510   H620    1.080   .     S
C510   C1183   1.414   .     S
C510   N650    1.364   .     S
C511   H631    1.082   .     S
C511   C1854   1.414   1_554 S
C511   N651    1.366   .     S
C512   H635    1.082   .     S
C512   N314    1.366   1_565 A
C512   C1181   1.414   .     S
C513   C524    1.403   .     A
C513   N652    1.427   .     S
C513   C532    1.414   .     A
C514   C531    1.414   .     A
C514   N653    1.427   .     S
C514   C525    1.403   .     A
C515   C522    1.403   .     A
C515   N654    1.430   .     S
C515   C531    1.408   .     A
C516   C533    1.463   .     S
C516   O665    1.293   .     A
C516   O666    1.287   .     A
C517   C532    1.408   .     A
C517   N655    1.430   .     S
C517   C523    1.403   .     A
C518   C534    1.410   .     A
C518   N656    1.430   .     S
C518   C529    1.401   .     A
C519   N638    1.430   .     S
C519   C533    1.410   .     A
C519   C530    1.401   .     A
C520   C533    1.414   .     A
C520   C526    1.401   .     A
C520   N639    1.425   .     S
C521   C534    1.414   .     A
C521   C528    1.401   .     A
C521   N640    1.425   .     S
C522   N641    1.427   .     S
C522   C536    1.414   .     A
C523   C535    1.414   .     A
C523   N642    1.427   .     S
C524   N643    1.430   .     S
C524   C535    1.408   .     A
C525   C536    1.408   .     A
C525   N644    1.430   .     S
C526   C539    1.410   .     A
C526   N645    1.430   .     S
C527   C532    1.458   .     S
C527   O671    1.292   .     A
C527   O668    1.286   .     A
C528   N646    1.430   .     S
C528   C537    1.410   .     A
C529   N647    1.425   .     S
C529   C537    1.414   .     A
C530   N649    1.425   .     S
C530   C539    1.414   .     A
C531   C538    1.458   .     S
C535   C559    1.458   .     S
C536   C558    1.458   .     S
C537   C557    1.463   .     S
C538   O669    1.286   .     A
C538   O670    1.292   .     A
C539   C549    1.463   .     S
C540   H566    1.105   .     S
C540   N652    1.452   .     S
C540   H567    1.110   .     S
C540   H568    1.108   .     S
C541   H572    1.110   .     S
C541   H570    1.105   .     S
C541   N653    1.452   .     S
C541   H571    1.108   .     S
C542   H574    1.110   .     S
C542   H575    1.111   .     S
C542   H577    1.108   .     S
C542   N654    1.449   .     S
C543   H581    1.111   .     S
C543   N655    1.449   .     S
C543   H579    1.110   .     S
C543   H580    1.108   .     S
C544   N656    1.447   .     S
C544   H584    1.110   .     S
C544   H583    1.111   .     S
C544   H585    1.111   .     S
C545   H590    1.110   .     S
C545   N638    1.447   .     S
C545   H588    1.111   .     S
C545   H589    1.111   .     S
C546   N639    1.449   .     S
C546   H594    1.109   .     S
C546   H593    1.109   .     S
C546   H592    1.110   .     S
C547   H599    1.109   .     S
C547   H596    1.110   .     S
C547   H597    1.109   .     S
C547   N640    1.449   .     S
C548   N641    1.452   .     S
C548   H603    1.108   .     S
C548   H602    1.110   .     S
C548   H601    1.105   .     S
C549   O660    1.287   .     A
C549   O672    1.293   .     A
C550   H606    1.108   .     S
C550   N642    1.452   .     S
C550   H605    1.105   .     S
C550   H607    1.110   .     S
C551   H610    1.110   .     S
C551   H611    1.111   .     S
C551   H612    1.108   .     S
C551   N643    1.449   .     S
C552   H614    1.110   .     S
C552   N644    1.449   .     S
C552   H616    1.111   .     S
C552   H615    1.108   .     S
C553   H621    1.111   .     S
C553   N645    1.447   .     S
C553   H618    1.111   .     S
C553   H283    1.110   1_565 S
C554   H624    1.111   .     S
C554   H623    1.111   .     S
C554   N646    1.447   .     S
C555   H627    1.110   .     S
C555   H628    1.109   .     S
C555   H629    1.109   .     S
C555   N647    1.449   .     S
C556   N649    1.449   .     S
C556   H632    1.110   .     S
C556   H633    1.109   .     S
C556   H634    1.109   .     S
C557   O658    1.293   .     A
C557   O659    1.287   .     A
C558   O664    1.292   .     A
C558   O661    1.286   .     A
C559   O662    1.286   .     A
C559   O663    1.292   .     A
C560   N648    1.364   .     A
C560   H565    1.080   .     S
C560   C1852   1.414   1_554 S
Cu561  O669    1.977   .     S
Cu561  N637    2.006   .     S
Cu561  O657    1.970   .     S
Cu561  Cu562   2.669   .     S
Cu562  O667    1.980   .     S
Cu562  O670    1.968   .     S
Cu562  N648    2.006   .     S
Cu563  N650    2.006   .     S
Cu563  Cu564   2.669   .     S
Cu563  O659    1.980   .     S
Cu563  O662    1.977   .     S
Cu564  N651    2.006   .     S
Cu564  O658    1.970   .     S
Cu564  O663    1.968   .     S
H569   N653    1.030   .     S
H573   N654    1.031   .     S
H578   N655    1.031   .     S
H582   N656    1.029   .     S
H586   N638    1.029   .     S
H591   N639    1.031   .     S
H595   N640    1.031   .     S
H600   N641    1.030   .     S
H604   N642    1.030   .     S
H608   N643    1.031   .     S
H613   N644    1.031   .     S
H617   N645    1.029   .     S
H622   N646    1.029   .     S
H625   C218    1.110   1_565 S
H626   N647    1.031   .     S
H630   N649    1.031   .     S
H636   N652    1.030   .     S
O660   Cu228   1.980   1_565 S
O661   Cu228   1.977   1_565 S
O664   Cu227   1.968   1_565 S
O665   Cu394   1.970   1_655 S
O666   Cu393   1.980   1_655 S
O668   Cu394   1.977   1_655 S
O671   Cu393   1.968   1_655 S
O672   Cu227   1.970   1_565 S
C673   O825    1.293   .     A
C673   C702    1.463   .     S
C673   O835    1.287   .     A
C674   H744    1.080   .     S
C674   C1347   1.414   .     S
C674   N973    1.364   .     S
C675   H755    1.082   .     S
C675   N984    1.366   .     S
C676   H766    1.082   .     S
C676   N805    1.366   .     A
C676   C1400   1.414   .     S
C677   N1155   1.364   .     A
C677   H777    1.080   .     S
C678   H788    1.080   .     S
C678   C1351   1.414   .     S
C678   N818    1.364   .     S
C679   H799    1.082   .     S
C679   N819    1.366   .     S
C680   H803    1.082   .     S
C680   N1154   1.366   .     A
C680   C1349   1.414   .     S
C681   C692    1.403   .     A
C681   N820    1.427   .     S
C681   C700    1.414   .     A
C682   C699    1.414   .     A
C682   N821    1.427   .     S
C682   C693    1.403   .     A
C683   C690    1.403   .     A
C683   N822    1.430   .     S
C683   C699    1.408   .     A
C684   C701    1.463   .     S
C684   O833    1.293   .     A
C684   O834    1.287   .     A
C685   C700    1.408   .     A
C685   N823    1.430   .     S
C685   C691    1.403   .     A
C686   C702    1.410   .     A
C686   N824    1.430   .     S
C686   C697    1.401   .     A
C687   N806    1.430   .     S
C687   C701    1.410   .     A
C687   C698    1.401   .     A
C688   C701    1.414   .     A
C688   C694    1.401   .     A
C688   N807    1.425   .     S
C689   C702    1.414   .     A
C689   C696    1.401   .     A
C689   N808    1.425   .     S
C690   N809    1.427   .     S
C690   C704    1.414   .     A
C691   C703    1.414   .     A
C691   N810    1.427   .     S
C692   N811    1.430   .     S
C692   C703    1.408   .     A
C693   C704    1.408   .     A
C693   N812    1.430   .     S
C694   C707    1.410   .     A
C694   N813    1.430   .     S
C695   C700    1.458   .     S
C695   O839    1.292   .     A
C695   O836    1.286   .     A
C696   N814    1.430   .     S
C696   C705    1.410   .     A
C697   N815    1.425   .     S
C697   C705    1.414   .     A
C698   N817    1.425   .     S
C698   C707    1.414   .     A
C699   C706    1.458   .     S
C703   C727    1.458   .     S
C704   C726    1.458   .     S
C705   C725    1.463   .     S
C706   O837    1.286   .     A
C706   O838    1.292   .     A
C707   C717    1.463   .     S
C708   H734    1.105   .     S
C708   N820    1.452   .     S
C708   H735    1.110   .     S
C708   H736    1.108   .     S
C709   H740    1.110   .     S
C709   H738    1.105   .     S
C709   N821    1.452   .     S
C709   H739    1.108   .     S
C710   H742    1.110   .     S
C710   H743    1.111   .     S
C710   H745    1.108   .     S
C710   N822    1.449   .     S
C711   H749    1.111   .     S
C711   N823    1.449   .     S
C711   H747    1.110   .     S
C711   H748    1.108   .     S
C712   N824    1.447   .     S
C712   H752    1.110   .     S
C712   H751    1.111   .     S
C712   H753    1.111   .     S
C713   H758    1.110   .     S
C713   N806    1.447   .     S
C713   H756    1.111   .     S
C713   H757    1.111   .     S
C714   N807    1.449   .     S
C714   H762    1.109   .     S
C714   H761    1.109   .     S
C714   H760    1.110   .     S
C715   H767    1.109   .     S
C715   H764    1.110   .     S
C715   H765    1.109   .     S
C715   N808    1.449   .     S
C716   N809    1.452   .     S
C716   H771    1.108   .     S
C716   H770    1.110   .     S
C716   H769    1.105   .     S
C717   O828    1.287   .     A
C717   O840    1.293   .     A
C718   H774    1.108   .     S
C718   N810    1.452   .     S
C718   H773    1.105   .     S
C718   H775    1.110   .     S
C719   H778    1.110   .     S
C719   H779    1.111   .     S
C719   H780    1.108   .     S
C719   N811    1.449   .     S
C720   H782    1.110   .     S
C720   N812    1.449   .     S
C720   H784    1.111   .     S
C720   H783    1.108   .     S
C721   H789    1.111   .     S
C721   N813    1.447   .     S
C721   H786    1.111   .     S
C721   H1123   1.110   .     S
C722   H792    1.111   .     S
C722   H791    1.111   .     S
C722   N814    1.447   .     S
C722   H1129   1.110   1_545 S
C723   H795    1.110   .     S
C723   H796    1.109   .     S
C723   H797    1.109   .     S
C723   N815    1.449   .     S
C724   N817    1.449   .     S
C724   H800    1.110   .     S
C724   H801    1.109   .     S
C724   H802    1.109   .     S
C725   O826    1.293   .     A
C725   O827    1.287   .     A
C726   O832    1.292   .     A
C726   O829    1.286   .     A
C727   O830    1.286   .     A
C727   O831    1.292   .     A
C728   N816    1.364   .     A
C728   H733    1.080   .     S
Cu729  O837    1.977   .     S
Cu729  N805    2.006   .     S
Cu729  O825    1.970   .     S
Cu729  Cu730   2.669   .     S
Cu729  O1002   1.980   1_455 S
Cu729  O1007   1.968   1_455 S
Cu730  O835    1.980   .     S
Cu730  O838    1.968   .     S
Cu730  N816    2.006   .     S
Cu730  O1001   1.970   1_455 S
Cu730  O1004   1.977   1_455 S
Cu731  O1168   1.968   1_545 S
Cu731  N818    2.006   .     S
Cu731  Cu732   2.669   .     S
Cu731  O1176   1.970   1_545 S
Cu731  O827    1.980   .     S
Cu731  O830    1.977   .     S
Cu732  N819    2.006   .     S
Cu732  O1165   1.977   1_545 S
Cu732  O1164   1.980   1_545 S
Cu732  O826    1.970   .     S
Cu732  O831    1.968   .     S
H737   N821    1.030   .     S
H741   N822    1.031   .     S
H746   N823    1.031   .     S
H750   N824    1.029   .     S
H754   N806    1.029   .     S
H759   N807    1.031   .     S
H763   N808    1.031   .     S
H768   N809    1.030   .     S
H772   N810    1.030   .     S
H776   N811    1.031   .     S
H781   N812    1.031   .     S
H785   N813    1.029   .     S
H787   C1057   1.110   1_545 S
H790   N814    1.029   .     S
H793   C1058   1.110   .     S
H794   N815    1.031   .     S
H798   N817    1.031   .     S
H804   N820    1.030   .     S
N805   C842    1.364   1_455 S
N816   C843    1.366   1_455 S
N818   C1016   1.366   1_545 A
N819   C1013   1.364   1_545 A
O828   Cu1068  1.980   .     S
O829   Cu1068  1.977   .     S
O832   Cu1067  1.968   .     S
O833   Cu898   1.970   .     S
O834   Cu897   1.980   .     S
O836   Cu898   1.977   .     S
O839   Cu897   1.968   .     S
O840   Cu1067  1.970   .     S
C841   O993    1.293   .     A
C841   C870    1.463   .     S
C841   O1003   1.287   .     A
C842   H912    1.080   .     S
C842   C1515   1.414   .     S
C842   N805    1.364   1_655 S
C843   H923    1.082   .     S
C843   N816    1.366   1_655 S
C844   H934    1.082   .     S
C844   N973    1.366   .     A
C844   C1568   1.414   .     S
C845   N1323   1.364   .     A
C845   H945    1.080   .     S
C846   H956    1.080   .     S
C846   C1519   1.414   .     S
C846   N986    1.364   .     S
C847   H967    1.082   .     S
C847   N987    1.366   .     S
C848   H971    1.082   .     S
C848   N1322   1.366   .     A
C848   C1517   1.414   .     S
C849   C860    1.403   .     A
C849   N988    1.427   .     S
C849   C868    1.414   .     A
C850   C867    1.414   .     A
C850   N989    1.427   .     S
C850   C861    1.403   .     A
C851   C858    1.403   .     A
C851   N990    1.430   .     S
C851   C867    1.408   .     A
C852   C869    1.463   .     S
C852   O1001   1.293   .     A
C852   O1002   1.287   .     A
C853   C868    1.408   .     A
C853   N991    1.430   .     S
C853   C859    1.403   .     A
C854   C870    1.410   .     A
C854   N992    1.430   .     S
C854   C865    1.401   .     A
C855   N974    1.430   .     S
C855   C869    1.410   .     A
C855   C866    1.401   .     A
C856   C869    1.414   .     A
C856   C862    1.401   .     A
C856   N975    1.425   .     S
C857   C870    1.414   .     A
C857   C864    1.401   .     A
C857   N976    1.425   .     S
C858   N977    1.427   .     S
C858   C872    1.414   .     A
C859   C871    1.414   .     A
C859   N978    1.427   .     S
C860   N979    1.430   .     S
C860   C871    1.408   .     A
C861   C872    1.408   .     A
C861   N980    1.430   .     S
C862   C875    1.410   .     A
C862   N981    1.430   .     S
C863   C868    1.458   .     S
C863   O1007   1.292   .     A
C863   O1004   1.286   .     A
C864   N982    1.430   .     S
C864   C873    1.410   .     A
C865   N983    1.425   .     S
C865   C873    1.414   .     A
C866   N985    1.425   .     S
C866   C875    1.414   .     A
C867   C874    1.458   .     S
C871   C895    1.458   .     S
C872   C894    1.458   .     S
C873   C893    1.463   .     S
C874   O1005   1.286   .     A
C874   O1006   1.292   .     A
C875   C885    1.463   .     S
C876   H902    1.105   .     S
C876   N988    1.452   .     S
C876   H903    1.110   .     S
C876   H904    1.108   .     S
C877   H908    1.110   .     S
C877   H906    1.105   .     S
C877   N989    1.452   .     S
C877   H907    1.108   .     S
C878   H910    1.110   .     S
C878   H911    1.111   .     S
C878   H913    1.108   .     S
C878   N990    1.449   .     S
C879   H917    1.111   .     S
C879   N991    1.449   .     S
C879   H915    1.110   .     S
C879   H916    1.108   .     S
C880   N992    1.447   .     S
C880   H920    1.110   .     S
C880   H919    1.111   .     S
C880   H921    1.111   .     S
C881   H926    1.110   .     S
C881   N974    1.447   .     S
C881   H924    1.111   .     S
C881   H925    1.111   .     S
C882   N975    1.449   .     S
C882   H930    1.109   .     S
C882   H929    1.109   .     S
C882   H928    1.110   .     S
C883   H935    1.109   .     S
C883   H932    1.110   .     S
C883   H933    1.109   .     S
C883   N976    1.449   .     S
C884   N977    1.452   .     S
C884   H939    1.108   .     S
C884   H938    1.110   .     S
C884   H937    1.105   .     S
C885   O996    1.287   .     A
C885   O1008   1.293   .     A
C886   H942    1.108   .     S
C886   N978    1.452   .     S
C886   H941    1.105   .     S
C886   H943    1.110   .     S
C887   H946    1.110   .     S
C887   H947    1.111   .     S
C887   H948    1.108   .     S
C887   N979    1.449   .     S
C888   H950    1.110   .     S
C888   N980    1.449   .     S
C888   H952    1.111   .     S
C888   H951    1.108   .     S
C889   H957    1.111   .     S
C889   N981    1.447   .     S
C889   H954    1.111   .     S
C889   H1291   1.110   .     S
C890   H960    1.111   .     S
C890   H959    1.111   .     S
C890   N982    1.447   .     S
C890   H1297   1.110   1_545 S
C891   H963    1.110   .     S
C891   H964    1.109   .     S
C891   H965    1.109   .     S
C891   N983    1.449   .     S
C892   N985    1.449   .     S
C892   H968    1.110   .     S
C892   H969    1.109   .     S
C892   H970    1.109   .     S
C893   O994    1.293   .     A
C893   O995    1.287   .     A
C894   O1000   1.292   .     A
C894   O997    1.286   .     A
C895   O998    1.286   .     A
C895   O999    1.292   .     A
C896   N984    1.364   .     A
C896   H901    1.080   .     S
Cu897  O1005   1.977   .     S
Cu897  N973    2.006   .     S
Cu897  O993    1.970   .     S
Cu897  Cu898   2.669   .     S
Cu898  O1003   1.980   .     S
Cu898  O1006   1.968   .     S
Cu898  N984    2.006   .     S
Cu899  O1336   1.968   1_545 S
Cu899  N986    2.006   .     S
Cu899  Cu900   2.669   .     S
Cu899  O1344   1.970   1_545 S
Cu899  O995    1.980   .     S
Cu899  O998    1.977   .     S
Cu900  N987    2.006   .     S
Cu900  O1333   1.977   1_545 S
Cu900  O1332   1.980   1_545 S
Cu900  O994    1.970   .     S
Cu900  O999    1.968   .     S
H905   N989    1.030   .     S
H909   N990    1.031   .     S
H914   N991    1.031   .     S
H918   N992    1.029   .     S
H922   N974    1.029   .     S
H927   N975    1.031   .     S
H931   N976    1.031   .     S
H936   N977    1.030   .     S
H940   N978    1.030   .     S
H944   N979    1.031   .     S
H949   N980    1.031   .     S
H953   N981    1.029   .     S
H955   C1225   1.110   1_545 S
H958   N982    1.029   .     S
H961   C1226   1.110   .     S
H962   N983    1.031   .     S
H966   N985    1.031   .     S
H972   N988    1.030   .     S
N986   C1184   1.366   1_545 A
N987   C1181   1.364   1_545 A
O996   Cu1236  1.980   .     S
O997   Cu1236  1.977   .     S
O1000  Cu1235  1.968   .     S
O1001  Cu730   1.970   1_655 S
O1002  Cu729   1.980   1_655 S
O1004  Cu730   1.977   1_655 S
O1007  Cu729   1.968   1_655 S
O1008  Cu1235  1.970   .     S
C1009  O1161   1.293   .     A
C1009  C1038   1.463   .     S
C1009  O1171   1.287   .     A
C1010  H1080   1.080   .     S
C1010  C1683   1.414   .     S
C1010  N1309   1.364   .     S
C1011  H1091   1.082   .     S
C1011  N1320   1.366   .     S
C1012  H1102   1.082   .     S
C1012  N1141   1.366   .     A
C1012  C1736   1.414   .     S
C1013  N819    1.364   1_565 A
C1013  H1113   1.080   .     S
C1014  H1124   1.080   .     S
C1014  C1687   1.414   .     S
C1014  N1154   1.364   .     S
C1015  H1135   1.082   .     S
C1015  N1155   1.366   .     S
C1016  H1139   1.082   .     S
C1016  N818    1.366   1_565 A
C1016  C1685   1.414   .     S
C1017  C1028   1.403   .     A
C1017  N1156   1.427   .     S
C1017  C1036   1.414   .     A
C1018  C1035   1.414   .     A
C1018  N1157   1.427   .     S
C1018  C1029   1.403   .     A
C1019  C1026   1.403   .     A
C1019  N1158   1.430   .     S
C1019  C1035   1.408   .     A
C1020  C1037   1.463   .     S
C1020  O1169   1.293   .     A
C1020  O1170   1.287   .     A
C1021  C1036   1.408   .     A
C1021  N1159   1.430   .     S
C1021  C1027   1.403   .     A
C1022  C1038   1.410   .     A
C1022  N1160   1.430   .     S
C1022  C1033   1.401   .     A
C1023  N1142   1.430   .     S
C1023  C1037   1.410   .     A
C1023  C1034   1.401   .     A
C1024  C1037   1.414   .     A
C1024  C1030   1.401   .     A
C1024  N1143   1.425   .     S
C1025  C1038   1.414   .     A
C1025  C1032   1.401   .     A
C1025  N1144   1.425   .     S
C1026  N1145   1.427   .     S
C1026  C1040   1.414   .     A
C1027  C1039   1.414   .     A
C1027  N1146   1.427   .     S
C1028  N1147   1.430   .     S
C1028  C1039   1.408   .     A
C1029  C1040   1.408   .     A
C1029  N1148   1.430   .     S
C1030  C1043   1.410   .     A
C1030  N1149   1.430   .     S
C1031  C1036   1.458   .     S
C1031  O1175   1.292   .     A
C1031  O1172   1.286   .     A
C1032  N1150   1.430   .     S
C1032  C1041   1.410   .     A
C1033  N1151   1.425   .     S
C1033  C1041   1.414   .     A
C1034  N1153   1.425   .     S
C1034  C1043   1.414   .     A
C1035  C1042   1.458   .     S
C1039  C1063   1.458   .     S
C1040  C1062   1.458   .     S
C1041  C1061   1.463   .     S
C1042  O1173   1.286   .     A
C1042  O1174   1.292   .     A
C1043  C1053   1.463   .     S
C1044  H1070   1.105   .     S
C1044  N1156   1.452   .     S
C1044  H1071   1.110   .     S
C1044  H1072   1.108   .     S
C1045  H1076   1.110   .     S
C1045  H1074   1.105   .     S
C1045  N1157   1.452   .     S
C1045  H1075   1.108   .     S
C1046  H1078   1.110   .     S
C1046  H1079   1.111   .     S
C1046  H1081   1.108   .     S
C1046  N1158   1.449   .     S
C1047  H1085   1.111   .     S
C1047  N1159   1.449   .     S
C1047  H1083   1.110   .     S
C1047  H1084   1.108   .     S
C1048  N1160   1.447   .     S
C1048  H1088   1.110   .     S
C1048  H1087   1.111   .     S
C1048  H1089   1.111   .     S
C1049  H1094   1.110   .     S
C1049  N1142   1.447   .     S
C1049  H1092   1.111   .     S
C1049  H1093   1.111   .     S
C1050  N1143   1.449   .     S
C1050  H1098   1.109   .     S
C1050  H1097   1.109   .     S
C1050  H1096   1.110   .     S
C1051  H1103   1.109   .     S
C1051  H1100   1.110   .     S
C1051  H1101   1.109   .     S
C1051  N1144   1.449   .     S
C1052  N1145   1.452   .     S
C1052  H1107   1.108   .     S
C1052  H1106   1.110   .     S
C1052  H1105   1.105   .     S
C1053  O1164   1.287   .     A
C1053  O1176   1.293   .     A
C1054  H1110   1.108   .     S
C1054  N1146   1.452   .     S
C1054  H1109   1.105   .     S
C1054  H1111   1.110   .     S
C1055  H1114   1.110   .     S
C1055  H1115   1.111   .     S
C1055  H1116   1.108   .     S
C1055  N1147   1.449   .     S
C1056  H1118   1.110   .     S
C1056  N1148   1.449   .     S
C1056  H1120   1.111   .     S
C1056  H1119   1.108   .     S
C1057  H1125   1.111   .     S
C1057  N1149   1.447   .     S
C1057  H1122   1.111   .     S
C1057  H787    1.110   1_565 S
C1058  H1128   1.111   .     S
C1058  H1127   1.111   .     S
C1058  N1150   1.447   .     S
C1059  H1131   1.110   .     S
C1059  H1132   1.109   .     S
C1059  H1133   1.109   .     S
C1059  N1151   1.449   .     S
C1060  N1153   1.449   .     S
C1060  H1136   1.110   .     S
C1060  H1137   1.109   .     S
C1060  H1138   1.109   .     S
C1061  O1162   1.293   .     A
C1061  O1163   1.287   .     A
C1062  O1168   1.292   .     A
C1062  O1165   1.286   .     A
C1063  O1166   1.286   .     A
C1063  O1167   1.292   .     A
C1064  N1152   1.364   .     A
C1064  H1069   1.080   .     S
Cu1065 O1173   1.977   .     S
Cu1065 N1141   2.006   .     S
Cu1065 O1161   1.970   .     S
Cu1065 Cu1066  2.669   .     S
Cu1065 O1338   1.980   1_455 S
Cu1065 O1343   1.968   1_455 S
Cu1066 O1171   1.980   .     S
Cu1066 O1174   1.968   .     S
Cu1066 N1152   2.006   .     S
Cu1066 O1337   1.970   1_455 S
Cu1066 O1340   1.977   1_455 S
Cu1067 N1154   2.006   .     S
Cu1067 Cu1068  2.669   .     S
Cu1067 O1163   1.980   .     S
Cu1067 O1166   1.977   .     S
Cu1068 N1155   2.006   .     S
Cu1068 O1162   1.970   .     S
Cu1068 O1167   1.968   .     S
H1073  N1157   1.030   .     S
H1077  N1158   1.031   .     S
H1082  N1159   1.031   .     S
H1086  N1160   1.029   .     S
H1090  N1142   1.029   .     S
H1095  N1143   1.031   .     S
H1099  N1144   1.031   .     S
H1104  N1145   1.030   .     S
H1108  N1146   1.030   .     S
H1112  N1147   1.031   .     S
H1117  N1148   1.031   .     S
H1121  N1149   1.029   .     S
H1126  N1150   1.029   .     S
H1129  C722    1.110   1_565 S
H1130  N1151   1.031   .     S
H1134  N1153   1.031   .     S
H1140  N1156   1.030   .     S
N1141  C1178   1.364   1_455 S
N1152  C1179   1.366   1_455 S
O1164  Cu732   1.980   1_565 S
O1165  Cu732   1.977   1_565 S
O1168  Cu731   1.968   1_565 S
O1169  Cu1234  1.970   .     S
O1170  Cu1233  1.980   .     S
O1172  Cu1234  1.977   .     S
O1175  Cu1233  1.968   .     S
O1176  Cu731   1.970   1_565 S
C1177  O1329   1.293   .     A
C1177  C1206   1.463   .     S
C1177  O1339   1.287   .     A
C1178  H1248   1.080   .     S
C1178  C1851   1.414   .     S
C1178  N1141   1.364   1_655 S
C1179  H1259   1.082   .     S
C1179  N1152   1.366   1_655 S
C1180  H1270   1.082   .     S
C1180  N1309   1.366   .     A
C1180  C1904   1.414   .     S
C1181  N987    1.364   1_565 A
C1181  H1281   1.080   .     S
C1182  H1292   1.080   .     S
C1182  C1855   1.414   .     S
C1182  N1322   1.364   .     S
C1183  H1303   1.082   .     S
C1183  N1323   1.366   .     S
C1184  H1307   1.082   .     S
C1184  N986    1.366   1_565 A
C1184  C1853   1.414   .     S
C1185  C1196   1.403   .     A
C1185  N1324   1.427   .     S
C1185  C1204   1.414   .     A
C1186  C1203   1.414   .     A
C1186  N1325   1.427   .     S
C1186  C1197   1.403   .     A
C1187  C1194   1.403   .     A
C1187  N1326   1.430   .     S
C1187  C1203   1.408   .     A
C1188  C1205   1.463   .     S
C1188  O1337   1.293   .     A
C1188  O1338   1.287   .     A
C1189  C1204   1.408   .     A
C1189  N1327   1.430   .     S
C1189  C1195   1.403   .     A
C1190  C1206   1.410   .     A
C1190  N1328   1.430   .     S
C1190  C1201   1.401   .     A
C1191  N1310   1.430   .     S
C1191  C1205   1.410   .     A
C1191  C1202   1.401   .     A
C1192  C1205   1.414   .     A
C1192  C1198   1.401   .     A
C1192  N1311   1.425   .     S
C1193  C1206   1.414   .     A
C1193  C1200   1.401   .     A
C1193  N1312   1.425   .     S
C1194  N1313   1.427   .     S
C1194  C1208   1.414   .     A
C1195  C1207   1.414   .     A
C1195  N1314   1.427   .     S
C1196  N1315   1.430   .     S
C1196  C1207   1.408   .     A
C1197  C1208   1.408   .     A
C1197  N1316   1.430   .     S
C1198  C1211   1.410   .     A
C1198  N1317   1.430   .     S
C1199  C1204   1.458   .     S
C1199  O1343   1.292   .     A
C1199  O1340   1.286   .     A
C1200  N1318   1.430   .     S
C1200  C1209   1.410   .     A
C1201  N1319   1.425   .     S
C1201  C1209   1.414   .     A
C1202  N1321   1.425   .     S
C1202  C1211   1.414   .     A
C1203  C1210   1.458   .     S
C1207  C1231   1.458   .     S
C1208  C1230   1.458   .     S
C1209  C1229   1.463   .     S
C1210  O1341   1.286   .     A
C1210  O1342   1.292   .     A
C1211  C1221   1.463   .     S
C1212  H1238   1.105   .     S
C1212  N1324   1.452   .     S
C1212  H1239   1.110   .     S
C1212  H1240   1.108   .     S
C1213  H1244   1.110   .     S
C1213  H1242   1.105   .     S
C1213  N1325   1.452   .     S
C1213  H1243   1.108   .     S
C1214  H1246   1.110   .     S
C1214  H1247   1.111   .     S
C1214  H1249   1.108   .     S
C1214  N1326   1.449   .     S
C1215  H1253   1.111   .     S
C1215  N1327   1.449   .     S
C1215  H1251   1.110   .     S
C1215  H1252   1.108   .     S
C1216  N1328   1.447   .     S
C1216  H1256   1.110   .     S
C1216  H1255   1.111   .     S
C1216  H1257   1.111   .     S
C1217  H1262   1.110   .     S
C1217  N1310   1.447   .     S
C1217  H1260   1.111   .     S
C1217  H1261   1.111   .     S
C1218  N1311   1.449   .     S
C1218  H1266   1.109   .     S
C1218  H1265   1.109   .     S
C1218  H1264   1.110   .     S
C1219  H1271   1.109   .     S
C1219  H1268   1.110   .     S
C1219  H1269   1.109   .     S
C1219  N1312   1.449   .     S
C1220  N1313   1.452   .     S
C1220  H1275   1.108   .     S
C1220  H1274   1.110   .     S
C1220  H1273   1.105   .     S
C1221  O1332   1.287   .     A
C1221  O1344   1.293   .     A
C1222  H1278   1.108   .     S
C1222  N1314   1.452   .     S
C1222  H1277   1.105   .     S
C1222  H1279   1.110   .     S
C1223  H1282   1.110   .     S
C1223  H1283   1.111   .     S
C1223  H1284   1.108   .     S
C1223  N1315   1.449   .     S
C1224  H1286   1.110   .     S
C1224  N1316   1.449   .     S
C1224  H1288   1.111   .     S
C1224  H1287   1.108   .     S
C1225  H1293   1.111   .     S
C1225  N1317   1.447   .     S
C1225  H1290   1.111   .     S
C1225  H955    1.110   1_565 S
C1226  H1296   1.111   .     S
C1226  H1295   1.111   .     S
C1226  N1318   1.447   .     S
C1227  H1299   1.110   .     S
C1227  H1300   1.109   .     S
C1227  H1301   1.109   .     S
C1227  N1319   1.449   .     S
C1228  N1321   1.449   .     S
C1228  H1304   1.110   .     S
C1228  H1305   1.109   .     S
C1228  H1306   1.109   .     S
C1229  O1330   1.293   .     A
C1229  O1331   1.287   .     A
C1230  O1336   1.292   .     A
C1230  O1333   1.286   .     A
C1231  O1334   1.286   .     A
C1231  O1335   1.292   .     A
C1232  N1320   1.364   .     A
C1232  H1237   1.080   .     S
Cu1233 O1341   1.977   .     S
Cu1233 N1309   2.006   .     S
Cu1233 O1329   1.970   .     S
Cu1233 Cu1234  2.669   .     S
Cu1234 O1339   1.980   .     S
Cu1234 O1342   1.968   .     S
Cu1234 N1320   2.006   .     S
Cu1235 N1322   2.006   .     S
Cu1235 Cu1236  2.669   .     S
Cu1235 O1331   1.980   .     S
Cu1235 O1334   1.977   .     S
Cu1236 N1323   2.006   .     S
Cu1236 O1330   1.970   .     S
Cu1236 O1335   1.968   .     S
H1241  N1325   1.030   .     S
H1245  N1326   1.031   .     S
H1250  N1327   1.031   .     S
H1254  N1328   1.029   .     S
H1258  N1310   1.029   .     S
H1263  N1311   1.031   .     S
H1267  N1312   1.031   .     S
H1272  N1313   1.030   .     S
H1276  N1314   1.030   .     S
H1280  N1315   1.031   .     S
H1285  N1316   1.031   .     S
H1289  N1317   1.029   .     S
H1294  N1318   1.029   .     S
H1297  C890    1.110   1_565 S
H1298  N1319   1.031   .     S
H1302  N1321   1.031   .     S
H1308  N1324   1.030   .     S
O1332  Cu900   1.980   1_565 S
O1333  Cu900   1.977   1_565 S
O1336  Cu899   1.968   1_565 S
O1337  Cu1066  1.970   1_655 S
O1338  Cu1065  1.980   1_655 S
O1340  Cu1066  1.977   1_655 S
O1343  Cu1065  1.968   1_655 S
O1344  Cu899   1.970   1_565 S
C1345  O1497   1.293   .     A
C1345  C1374   1.463   .     S
C1345  O1507   1.287   .     A
C1346  H1416   1.080   .     S
C1346  C3      1.414   1_556 S
C1346  N1645   1.364   .     S
C1347  H1427   1.082   .     S
C1347  N1656   1.366   .     S
C1348  H1438   1.082   .     S
C1348  N1477   1.366   .     A
C1348  C56     1.414   1_556 S
C1349  N1827   1.364   .     A
C1349  H1449   1.080   .     S
C1350  H1460   1.080   .     S
C1350  C7      1.414   1_556 S
C1350  N1490   1.364   .     S
C1351  H1471   1.082   .     S
C1351  N1491   1.366   .     S
C1352  H1475   1.082   .     S
C1352  N1826   1.366   .     A
C1352  C5      1.414   1_556 S
C1353  C1364   1.403   .     A
C1353  N1492   1.427   .     S
C1353  C1372   1.414   .     A
C1354  C1371   1.414   .     A
C1354  N1493   1.427   .     S
C1354  C1365   1.403   .     A
C1355  C1362   1.403   .     A
C1355  N1494   1.430   .     S
C1355  C1371   1.408   .     A
C1356  C1373   1.463   .     S
C1356  O1505   1.293   .     A
C1356  O1506   1.287   .     A
C1357  C1372   1.408   .     A
C1357  N1495   1.430   .     S
C1357  C1363   1.403   .     A
C1358  C1374   1.410   .     A
C1358  N1496   1.430   .     S
C1358  C1369   1.401   .     A
C1359  N1478   1.430   .     S
C1359  C1373   1.410   .     A
C1359  C1370   1.401   .     A
C1360  C1373   1.414   .     A
C1360  C1366   1.401   .     A
C1360  N1479   1.425   .     S
C1361  C1374   1.414   .     A
C1361  C1368   1.401   .     A
C1361  N1480   1.425   .     S
C1362  N1481   1.427   .     S
C1362  C1376   1.414   .     A
C1363  C1375   1.414   .     A
C1363  N1482   1.427   .     S
C1364  N1483   1.430   .     S
C1364  C1375   1.408   .     A
C1365  C1376   1.408   .     A
C1365  N1484   1.430   .     S
C1366  C1379   1.410   .     A
C1366  N1485   1.430   .     S
C1367  C1372   1.458   .     S
C1367  O1511   1.292   .     A
C1367  O1508   1.286   .     A
C1368  N1486   1.430   .     S
C1368  C1377   1.410   .     A
C1369  N1487   1.425   .     S
C1369  C1377   1.414   .     A
C1370  N1489   1.425   .     S
C1370  C1379   1.414   .     A
C1371  C1378   1.458   .     S
C1375  C1399   1.458   .     S
C1376  C1398   1.458   .     S
C1377  C1397   1.463   .     S
C1378  O1509   1.286   .     A
C1378  O1510   1.292   .     A
C1379  C1389   1.463   .     S
C1380  H1406   1.105   .     S
C1380  N1492   1.452   .     S
C1380  H1407   1.110   .     S
C1380  H1408   1.108   .     S
C1381  H1412   1.110   .     S
C1381  H1410   1.105   .     S
C1381  N1493   1.452   .     S
C1381  H1411   1.108   .     S
C1382  H1414   1.110   .     S
C1382  H1415   1.111   .     S
C1382  H1417   1.108   .     S
C1382  N1494   1.449   .     S
C1383  H1421   1.111   .     S
C1383  N1495   1.449   .     S
C1383  H1419   1.110   .     S
C1383  H1420   1.108   .     S
C1384  N1496   1.447   .     S
C1384  H1424   1.110   .     S
C1384  H1423   1.111   .     S
C1384  H1425   1.111   .     S
C1385  H1430   1.110   .     S
C1385  N1478   1.447   .     S
C1385  H1428   1.111   .     S
C1385  H1429   1.111   .     S
C1386  N1479   1.449   .     S
C1386  H1434   1.109   .     S
C1386  H1433   1.109   .     S
C1386  H1432   1.110   .     S
C1387  H1439   1.109   .     S
C1387  H1436   1.110   .     S
C1387  H1437   1.109   .     S
C1387  N1480   1.449   .     S
C1388  N1481   1.452   .     S
C1388  H1443   1.108   .     S
C1388  H1442   1.110   .     S
C1388  H1441   1.105   .     S
C1389  O1500   1.287   .     A
C1389  O1512   1.293   .     A
C1390  H1446   1.108   .     S
C1390  N1482   1.452   .     S
C1390  H1445   1.105   .     S
C1390  H1447   1.110   .     S
C1391  H1450   1.110   .     S
C1391  H1451   1.111   .     S
C1391  H1452   1.108   .     S
C1391  N1483   1.449   .     S
C1392  H1454   1.110   .     S
C1392  N1484   1.449   .     S
C1392  H1456   1.111   .     S
C1392  H1455   1.108   .     S
C1393  H1461   1.111   .     S
C1393  N1485   1.447   .     S
C1393  H1458   1.111   .     S
C1393  H1795   1.110   .     S
C1394  H1464   1.111   .     S
C1394  H1463   1.111   .     S
C1394  N1486   1.447   .     S
C1394  H1801   1.110   1_545 S
C1395  H1467   1.110   .     S
C1395  H1468   1.109   .     S
C1395  H1469   1.109   .     S
C1395  N1487   1.449   .     S
C1396  N1489   1.449   .     S
C1396  H1472   1.110   .     S
C1396  H1473   1.109   .     S
C1396  H1474   1.109   .     S
C1397  O1498   1.293   .     A
C1397  O1499   1.287   .     A
C1398  O1504   1.292   .     A
C1398  O1501   1.286   .     A
C1399  O1502   1.286   .     A
C1399  O1503   1.292   .     A
C1400  N1488   1.364   .     A
C1400  H1405   1.080   .     S
Cu1401 O1509   1.977   .     S
Cu1401 N1477   2.006   .     S
Cu1401 O1497   1.970   .     S
Cu1401 Cu1402  2.669   .     S
Cu1401 O1674   1.980   1_455 S
Cu1401 O1679   1.968   1_455 S
Cu1402 O1507   1.980   .     S
Cu1402 O1510   1.968   .     S
Cu1402 N1488   2.006   .     S
Cu1402 O1673   1.970   1_455 S
Cu1402 O1676   1.977   1_455 S
Cu1403 O1840   1.968   1_545 S
Cu1403 N1490   2.006   .     S
Cu1403 Cu1404  2.669   .     S
Cu1403 O1848   1.970   1_545 S
Cu1403 O1499   1.980   .     S
Cu1403 O1502   1.977   .     S
Cu1404 N1491   2.006   .     S
Cu1404 O1837   1.977   1_545 S
Cu1404 O1836   1.980   1_545 S
Cu1404 O1498   1.970   .     S
Cu1404 O1503   1.968   .     S
H1409  N1493   1.030   .     S
H1413  N1494   1.031   .     S
H1418  N1495   1.031   .     S
H1422  N1496   1.029   .     S
H1426  N1478   1.029   .     S
H1431  N1479   1.031   .     S
H1435  N1480   1.031   .     S
H1440  N1481   1.030   .     S
H1444  N1482   1.030   .     S
H1448  N1483   1.031   .     S
H1453  N1484   1.031   .     S
H1457  N1485   1.029   .     S
H1459  C1729   1.110   1_545 S
H1462  N1486   1.029   .     S
H1465  C1730   1.110   .     S
H1466  N1487   1.031   .     S
H1470  N1489   1.031   .     S
H1476  N1492   1.030   .     S
N1477  C1514   1.364   1_455 S
N1488  C1515   1.366   1_455 S
N1490  C1688   1.366   1_545 A
N1491  C1685   1.364   1_545 A
O1500  Cu1740  1.980   .     S
O1501  Cu1740  1.977   .     S
O1504  Cu1739  1.968   .     S
O1505  Cu1570  1.970   .     S
O1506  Cu1569  1.980   .     S
O1508  Cu1570  1.977   .     S
O1511  Cu1569  1.968   .     S
O1512  Cu1739  1.970   .     S
C1513  O1665   1.293   .     A
C1513  C1542   1.463   .     S
C1513  O1675   1.287   .     A
C1514  H1584   1.080   .     S
C1514  C171    1.414   1_556 S
C1514  N1477   1.364   1_655 S
C1515  H1595   1.082   .     S
C1515  N1488   1.366   1_655 S
C1516  H1606   1.082   .     S
C1516  N1645   1.366   .     A
C1516  C224    1.414   1_556 S
C1517  N1995   1.364   .     A
C1517  H1617   1.080   .     S
C1518  H1628   1.080   .     S
C1518  C175    1.414   1_556 S
C1518  N1658   1.364   .     S
C1519  H1639   1.082   .     S
C1519  N1659   1.366   .     S
C1520  H1643   1.082   .     S
C1520  N1994   1.366   .     A
C1520  C173    1.414   1_556 S
C1521  C1532   1.403   .     A
C1521  N1660   1.427   .     S
C1521  C1540   1.414   .     A
C1522  C1539   1.414   .     A
C1522  N1661   1.427   .     S
C1522  C1533   1.403   .     A
C1523  C1530   1.403   .     A
C1523  N1662   1.430   .     S
C1523  C1539   1.408   .     A
C1524  C1541   1.463   .     S
C1524  O1673   1.293   .     A
C1524  O1674   1.287   .     A
C1525  C1540   1.408   .     A
C1525  N1663   1.430   .     S
C1525  C1531   1.403   .     A
C1526  C1542   1.410   .     A
C1526  N1664   1.430   .     S
C1526  C1537   1.401   .     A
C1527  N1646   1.430   .     S
C1527  C1541   1.410   .     A
C1527  C1538   1.401   .     A
C1528  C1541   1.414   .     A
C1528  C1534   1.401   .     A
C1528  N1647   1.425   .     S
C1529  C1542   1.414   .     A
C1529  C1536   1.401   .     A
C1529  N1648   1.425   .     S
C1530  N1649   1.427   .     S
C1530  C1544   1.414   .     A
C1531  C1543   1.414   .     A
C1531  N1650   1.427   .     S
C1532  N1651   1.430   .     S
C1532  C1543   1.408   .     A
C1533  C1544   1.408   .     A
C1533  N1652   1.430   .     S
C1534  C1547   1.410   .     A
C1534  N1653   1.430   .     S
C1535  C1540   1.458   .     S
C1535  O1679   1.292   .     A
C1535  O1676   1.286   .     A
C1536  N1654   1.430   .     S
C1536  C1545   1.410   .     A
C1537  N1655   1.425   .     S
C1537  C1545   1.414   .     A
C1538  N1657   1.425   .     S
C1538  C1547   1.414   .     A
C1539  C1546   1.458   .     S
C1543  C1567   1.458   .     S
C1544  C1566   1.458   .     S
C1545  C1565   1.463   .     S
C1546  O1677   1.286   .     A
C1546  O1678   1.292   .     A
C1547  C1557   1.463   .     S
C1548  H1574   1.105   .     S
C1548  N1660   1.452   .     S
C1548  H1575   1.110   .     S
C1548  H1576   1.108   .     S
C1549  H1580   1.110   .     S
C1549  H1578   1.105   .     S
C1549  N1661   1.452   .     S
C1549  H1579   1.108   .     S
C1550  H1582   1.110   .     S
C1550  H1583   1.111   .     S
C1550  H1585   1.108   .     S
C1550  N1662   1.449   .     S
C1551  H1589   1.111   .     S
C1551  N1663   1.449   .     S
C1551  H1587   1.110   .     S
C1551  H1588   1.108   .     S
C1552  N1664   1.447   .     S
C1552  H1592   1.110   .     S
C1552  H1591   1.111   .     S
C1552  H1593   1.111   .     S
C1553  H1598   1.110   .     S
C1553  N1646   1.447   .     S
C1553  H1596   1.111   .     S
C1553  H1597   1.111   .     S
C1554  N1647   1.449   .     S
C1554  H1602   1.109   .     S
C1554  H1601   1.109   .     S
C1554  H1600   1.110   .     S
C1555  H1607   1.109   .     S
C1555  H1604   1.110   .     S
C1555  H1605   1.109   .     S
C1555  N1648   1.449   .     S
C1556  N1649   1.452   .     S
C1556  H1611   1.108   .     S
C1556  H1610   1.110   .     S
C1556  H1609   1.105   .     S
C1557  O1668   1.287   .     A
C1557  O1680   1.293   .     A
C1558  H1614   1.108   .     S
C1558  N1650   1.452   .     S
C1558  H1613   1.105   .     S
C1558  H1615   1.110   .     S
C1559  H1618   1.110   .     S
C1559  H1619   1.111   .     S
C1559  H1620   1.108   .     S
C1559  N1651   1.449   .     S
C1560  H1622   1.110   .     S
C1560  N1652   1.449   .     S
C1560  H1624   1.111   .     S
C1560  H1623   1.108   .     S
C1561  H1629   1.111   .     S
C1561  N1653   1.447   .     S
C1561  H1626   1.111   .     S
C1561  H1963   1.110   .     S
C1562  H1632   1.111   .     S
C1562  H1631   1.111   .     S
C1562  N1654   1.447   .     S
C1562  H1969   1.110   1_545 S
C1563  H1635   1.110   .     S
C1563  H1636   1.109   .     S
C1563  H1637   1.109   .     S
C1563  N1655   1.449   .     S
C1564  N1657   1.449   .     S
C1564  H1640   1.110   .     S
C1564  H1641   1.109   .     S
C1564  H1642   1.109   .     S
C1565  O1666   1.293   .     A
C1565  O1667   1.287   .     A
C1566  O1672   1.292   .     A
C1566  O1669   1.286   .     A
C1567  O1670   1.286   .     A
C1567  O1671   1.292   .     A
C1568  N1656   1.364   .     A
C1568  H1573   1.080   .     S
Cu1569 O1677   1.977   .     S
Cu1569 N1645   2.006   .     S
Cu1569 O1665   1.970   .     S
Cu1569 Cu1570  2.669   .     S
Cu1570 O1675   1.980   .     S
Cu1570 O1678   1.968   .     S
Cu1570 N1656   2.006   .     S
Cu1571 O2008   1.968   1_545 S
Cu1571 N1658   2.006   .     S
Cu1571 Cu1572  2.669   .     S
Cu1571 O2016   1.970   1_545 S
Cu1571 O1667   1.980   .     S
Cu1571 O1670   1.977   .     S
Cu1572 N1659   2.006   .     S
Cu1572 O2005   1.977   1_545 S
Cu1572 O2004   1.980   1_545 S
Cu1572 O1666   1.970   .     S
Cu1572 O1671   1.968   .     S
H1577  N1661   1.030   .     S
H1581  N1662   1.031   .     S
H1586  N1663   1.031   .     S
H1590  N1664   1.029   .     S
H1594  N1646   1.029   .     S
H1599  N1647   1.031   .     S
H1603  N1648   1.031   .     S
H1608  N1649   1.030   .     S
H1612  N1650   1.030   .     S
H1616  N1651   1.031   .     S
H1621  N1652   1.031   .     S
H1625  N1653   1.029   .     S
H1627  C1897   1.110   1_545 S
H1630  N1654   1.029   .     S
H1633  C1898   1.110   .     S
H1634  N1655   1.031   .     S
H1638  N1657   1.031   .     S
H1644  N1660   1.030   .     S
N1658  C1856   1.366   1_545 A
N1659  C1853   1.364   1_545 A
O1668  Cu1908  1.980   .     S
O1669  Cu1908  1.977   .     S
O1672  Cu1907  1.968   .     S
O1673  Cu1402  1.970   1_655 S
O1674  Cu1401  1.980   1_655 S
O1676  Cu1402  1.977   1_655 S
O1679  Cu1401  1.968   1_655 S
O1680  Cu1907  1.970   .     S
C1681  O1833   1.293   .     A
C1681  C1710   1.463   .     S
C1681  O1843   1.287   .     A
C1682  H1752   1.080   .     S
C1682  C339    1.414   1_556 S
C1682  N1981   1.364   .     S
C1683  H1763   1.082   .     S
C1683  N1992   1.366   .     S
C1684  H1774   1.082   .     S
C1684  N1813   1.366   .     A
C1684  C392    1.414   1_556 S
C1685  N1491   1.364   1_565 A
C1685  H1785   1.080   .     S
C1686  H1796   1.080   .     S
C1686  C343    1.414   1_556 S
C1686  N1826   1.364   .     S
C1687  H1807   1.082   .     S
C1687  N1827   1.366   .     S
C1688  H1811   1.082   .     S
C1688  N1490   1.366   1_565 A
C1688  C341    1.414   1_556 S
C1689  C1700   1.403   .     A
C1689  N1828   1.427   .     S
C1689  C1708   1.414   .     A
C1690  C1707   1.414   .     A
C1690  N1829   1.427   .     S
C1690  C1701   1.403   .     A
C1691  C1698   1.403   .     A
C1691  N1830   1.430   .     S
C1691  C1707   1.408   .     A
C1692  C1709   1.463   .     S
C1692  O1841   1.293   .     A
C1692  O1842   1.287   .     A
C1693  C1708   1.408   .     A
C1693  N1831   1.430   .     S
C1693  C1699   1.403   .     A
C1694  C1710   1.410   .     A
C1694  N1832   1.430   .     S
C1694  C1705   1.401   .     A
C1695  N1814   1.430   .     S
C1695  C1709   1.410   .     A
C1695  C1706   1.401   .     A
C1696  C1709   1.414   .     A
C1696  C1702   1.401   .     A
C1696  N1815   1.425   .     S
C1697  C1710   1.414   .     A
C1697  C1704   1.401   .     A
C1697  N1816   1.425   .     S
C1698  N1817   1.427   .     S
C1698  C1712   1.414   .     A
C1699  C1711   1.414   .     A
C1699  N1818   1.427   .     S
C1700  N1819   1.430   .     S
C1700  C1711   1.408   .     A
C1701  C1712   1.408   .     A
C1701  N1820   1.430   .     S
C1702  C1715   1.410   .     A
C1702  N1821   1.430   .     S
C1703  C1708   1.458   .     S
C1703  O1847   1.292   .     A
C1703  O1844   1.286   .     A
C1704  N1822   1.430   .     S
C1704  C1713   1.410   .     A
C1705  N1823   1.425   .     S
C1705  C1713   1.414   .     A
C1706  N1825   1.425   .     S
C1706  C1715   1.414   .     A
C1707  C1714   1.458   .     S
C1711  C1735   1.458   .     S
C1712  C1734   1.458   .     S
C1713  C1733   1.463   .     S
C1714  O1845   1.286   .     A
C1714  O1846   1.292   .     A
C1715  C1725   1.463   .     S
C1716  H1742   1.105   .     S
C1716  N1828   1.452   .     S
C1716  H1743   1.110   .     S
C1716  H1744   1.108   .     S
C1717  H1748   1.110   .     S
C1717  H1746   1.105   .     S
C1717  N1829   1.452   .     S
C1717  H1747   1.108   .     S
C1718  H1750   1.110   .     S
C1718  H1751   1.111   .     S
C1718  H1753   1.108   .     S
C1718  N1830   1.449   .     S
C1719  H1757   1.111   .     S
C1719  N1831   1.449   .     S
C1719  H1755   1.110   .     S
C1719  H1756   1.108   .     S
C1720  N1832   1.447   .     S
C1720  H1760   1.110   .     S
C1720  H1759   1.111   .     S
C1720  H1761   1.111   .     S
C1721  H1766   1.110   .     S
C1721  N1814   1.447   .     S
C1721  H1764   1.111   .     S
C1721  H1765   1.111   .     S
C1722  N1815   1.449   .     S
C1722  H1770   1.109   .     S
C1722  H1769   1.109   .     S
C1722  H1768   1.110   .     S
C1723  H1775   1.109   .     S
C1723  H1772   1.110   .     S
C1723  H1773   1.109   .     S
C1723  N1816   1.449   .     S
C1724  N1817   1.452   .     S
C1724  H1779   1.108   .     S
C1724  H1778   1.110   .     S
C1724  H1777   1.105   .     S
C1725  O1836   1.287   .     A
C1725  O1848   1.293   .     A
C1726  H1782   1.108   .     S
C1726  N1818   1.452   .     S
C1726  H1781   1.105   .     S
C1726  H1783   1.110   .     S
C1727  H1786   1.110   .     S
C1727  H1787   1.111   .     S
C1727  H1788   1.108   .     S
C1727  N1819   1.449   .     S
C1728  H1790   1.110   .     S
C1728  N1820   1.449   .     S
C1728  H1792   1.111   .     S
C1728  H1791   1.108   .     S
C1729  H1797   1.111   .     S
C1729  N1821   1.447   .     S
C1729  H1794   1.111   .     S
C1729  H1459   1.110   1_565 S
C1730  H1800   1.111   .     S
C1730  H1799   1.111   .     S
C1730  N1822   1.447   .     S
C1731  H1803   1.110   .     S
C1731  H1804   1.109   .     S
C1731  H1805   1.109   .     S
C1731  N1823   1.449   .     S
C1732  N1825   1.449   .     S
C1732  H1808   1.110   .     S
C1732  H1809   1.109   .     S
C1732  H1810   1.109   .     S
C1733  O1834   1.293   .     A
C1733  O1835   1.287   .     A
C1734  O1840   1.292   .     A
C1734  O1837   1.286   .     A
C1735  O1838   1.286   .     A
C1735  O1839   1.292   .     A
C1736  N1824   1.364   .     A
C1736  H1741   1.080   .     S
Cu1737 O1845   1.977   .     S
Cu1737 N1813   2.006   .     S
Cu1737 O1833   1.970   .     S
Cu1737 Cu1738  2.669   .     S
Cu1737 O2010   1.980   1_455 S
Cu1737 O2015   1.968   1_455 S
Cu1738 O1843   1.980   .     S
Cu1738 O1846   1.968   .     S
Cu1738 N1824   2.006   .     S
Cu1738 O2009   1.970   1_455 S
Cu1738 O2012   1.977   1_455 S
Cu1739 N1826   2.006   .     S
Cu1739 Cu1740  2.669   .     S
Cu1739 O1835   1.980   .     S
Cu1739 O1838   1.977   .     S
Cu1740 N1827   2.006   .     S
Cu1740 O1834   1.970   .     S
Cu1740 O1839   1.968   .     S
H1745  N1829   1.030   .     S
H1749  N1830   1.031   .     S
H1754  N1831   1.031   .     S
H1758  N1832   1.029   .     S
H1762  N1814   1.029   .     S
H1767  N1815   1.031   .     S
H1771  N1816   1.031   .     S
H1776  N1817   1.030   .     S
H1780  N1818   1.030   .     S
H1784  N1819   1.031   .     S
H1789  N1820   1.031   .     S
H1793  N1821   1.029   .     S
H1798  N1822   1.029   .     S
H1801  C1394   1.110   1_565 S
H1802  N1823   1.031   .     S
H1806  N1825   1.031   .     S
H1812  N1828   1.030   .     S
N1813  C1850   1.364   1_455 S
N1824  C1851   1.366   1_455 S
O1836  Cu1404  1.980   1_565 S
O1837  Cu1404  1.977   1_565 S
O1840  Cu1403  1.968   1_565 S
O1841  Cu1906  1.970   .     S
O1842  Cu1905  1.980   .     S
O1844  Cu1906  1.977   .     S
O1847  Cu1905  1.968   .     S
O1848  Cu1403  1.970   1_565 S
C1849  O2001   1.293   .     A
C1849  C1878   1.463   .     S
C1849  O2011   1.287   .     A
C1850  H1920   1.080   .     S
C1850  C507    1.414   1_556 S
C1850  N1813   1.364   1_655 S
C1851  H1931   1.082   .     S
C1851  N1824   1.366   1_655 S
C1852  H1942   1.082   .     S
C1852  N1981   1.366   .     A
C1852  C560    1.414   1_556 S
C1853  N1659   1.364   1_565 A
C1853  H1953   1.080   .     S
C1854  H1964   1.080   .     S
C1854  C511    1.414   1_556 S
C1854  N1994   1.364   .     S
C1855  H1975   1.082   .     S
C1855  N1995   1.366   .     S
C1856  H1979   1.082   .     S
C1856  N1658   1.366   1_565 A
C1856  C509    1.414   1_556 S
C1857  C1868   1.403   .     A
C1857  N1996   1.427   .     S
C1857  C1876   1.414   .     A
C1858  C1875   1.414   .     A
C1858  N1997   1.427   .     S
C1858  C1869   1.403   .     A
C1859  C1866   1.403   .     A
C1859  N1998   1.430   .     S
C1859  C1875   1.408   .     A
C1860  C1877   1.463   .     S
C1860  O2009   1.293   .     A
C1860  O2010   1.287   .     A
C1861  C1876   1.408   .     A
C1861  N1999   1.430   .     S
C1861  C1867   1.403   .     A
C1862  C1878   1.410   .     A
C1862  N2000   1.430   .     S
C1862  C1873   1.401   .     A
C1863  N1982   1.430   .     S
C1863  C1877   1.410   .     A
C1863  C1874   1.401   .     A
C1864  C1877   1.414   .     A
C1864  C1870   1.401   .     A
C1864  N1983   1.425   .     S
C1865  C1878   1.414   .     A
C1865  C1872   1.401   .     A
C1865  N1984   1.425   .     S
C1866  N1985   1.427   .     S
C1866  C1880   1.414   .     A
C1867  C1879   1.414   .     A
C1867  N1986   1.427   .     S
C1868  N1987   1.430   .     S
C1868  C1879   1.408   .     A
C1869  C1880   1.408   .     A
C1869  N1988   1.430   .     S
C1870  C1883   1.410   .     A
C1870  N1989   1.430   .     S
C1871  C1876   1.458   .     S
C1871  O2015   1.292   .     A
C1871  O2012   1.286   .     A
C1872  N1990   1.430   .     S
C1872  C1881   1.410   .     A
C1873  N1991   1.425   .     S
C1873  C1881   1.414   .     A
C1874  N1993   1.425   .     S
C1874  C1883   1.414   .     A
C1875  C1882   1.458   .     S
C1879  C1903   1.458   .     S
C1880  C1902   1.458   .     S
C1881  C1901   1.463   .     S
C1882  O2013   1.286   .     A
C1882  O2014   1.292   .     A
C1883  C1893   1.463   .     S
C1884  H1910   1.105   .     S
C1884  N1996   1.452   .     S
C1884  H1911   1.110   .     S
C1884  H1912   1.108   .     S
C1885  H1916   1.110   .     S
C1885  H1914   1.105   .     S
C1885  N1997   1.452   .     S
C1885  H1915   1.108   .     S
C1886  H1918   1.110   .     S
C1886  H1919   1.111   .     S
C1886  H1921   1.108   .     S
C1886  N1998   1.449   .     S
C1887  H1925   1.111   .     S
C1887  N1999   1.449   .     S
C1887  H1923   1.110   .     S
C1887  H1924   1.108   .     S
C1888  N2000   1.447   .     S
C1888  H1928   1.110   .     S
C1888  H1927   1.111   .     S
C1888  H1929   1.111   .     S
C1889  H1934   1.110   .     S
C1889  N1982   1.447   .     S
C1889  H1932   1.111   .     S
C1889  H1933   1.111   .     S
C1890  N1983   1.449   .     S
C1890  H1938   1.109   .     S
C1890  H1937   1.109   .     S
C1890  H1936   1.110   .     S
C1891  H1943   1.109   .     S
C1891  H1940   1.110   .     S
C1891  H1941   1.109   .     S
C1891  N1984   1.449   .     S
C1892  N1985   1.452   .     S
C1892  H1947   1.108   .     S
C1892  H1946   1.110   .     S
C1892  H1945   1.105   .     S
C1893  O2004   1.287   .     A
C1893  O2016   1.293   .     A
C1894  H1950   1.108   .     S
C1894  N1986   1.452   .     S
C1894  H1949   1.105   .     S
C1894  H1951   1.110   .     S
C1895  H1954   1.110   .     S
C1895  H1955   1.111   .     S
C1895  H1956   1.108   .     S
C1895  N1987   1.449   .     S
C1896  H1958   1.110   .     S
C1896  N1988   1.449   .     S
C1896  H1960   1.111   .     S
C1896  H1959   1.108   .     S
C1897  H1965   1.111   .     S
C1897  N1989   1.447   .     S
C1897  H1962   1.111   .     S
C1897  H1627   1.110   1_565 S
C1898  H1968   1.111   .     S
C1898  H1967   1.111   .     S
C1898  N1990   1.447   .     S
C1899  H1971   1.110   .     S
C1899  H1972   1.109   .     S
C1899  H1973   1.109   .     S
C1899  N1991   1.449   .     S
C1900  N1993   1.449   .     S
C1900  H1976   1.110   .     S
C1900  H1977   1.109   .     S
C1900  H1978   1.109   .     S
C1901  O2002   1.293   .     A
C1901  O2003   1.287   .     A
C1902  O2008   1.292   .     A
C1902  O2005   1.286   .     A
C1903  O2006   1.286   .     A
C1903  O2007   1.292   .     A
C1904  N1992   1.364   .     A
C1904  H1909   1.080   .     S
Cu1905 O2013   1.977   .     S
Cu1905 N1981   2.006   .     S
Cu1905 O2001   1.970   .     S
Cu1905 Cu1906  2.669   .     S
Cu1906 O2011   1.980   .     S
Cu1906 O2014   1.968   .     S
Cu1906 N1992   2.006   .     S
Cu1907 N1994   2.006   .     S
Cu1907 Cu1908  2.669   .     S
Cu1907 O2003   1.980   .     S
Cu1907 O2006   1.977   .     S
Cu1908 N1995   2.006   .     S
Cu1908 O2002   1.970   .     S
Cu1908 O2007   1.968   .     S
H1913  N1997   1.030   .     S
H1917  N1998   1.031   .     S
H1922  N1999   1.031   .     S
H1926  N2000   1.029   .     S
H1930  N1982   1.029   .     S
H1935  N1983   1.031   .     S
H1939  N1984   1.031   .     S
H1944  N1985   1.030   .     S
H1948  N1986   1.030   .     S
H1952  N1987   1.031   .     S
H1957  N1988   1.031   .     S
H1961  N1989   1.029   .     S
H1966  N1990   1.029   .     S
H1969  C1562   1.110   1_565 S
H1970  N1991   1.031   .     S
H1974  N1993   1.031   .     S
H1980  N1996   1.030   .     S
O2004  Cu1572  1.980   1_565 S
O2005  Cu1572  1.977   1_565 S
O2008  Cu1571  1.968   1_565 S
O2009  Cu1738  1.970   1_655 S
O2010  Cu1737  1.980   1_655 S
O2012  Cu1738  1.977   1_655 S
O2015  Cu1737  1.968   1_655 S
O2016  Cu1571  1.970   1_565 S
