data_str_m2_o10_o16_pcu_sym.34
_audit_creation_date              2020-01-03
_audit_creation_method            'Materials Studio'
_symmetry_space_group_name_H-M    'P1'
_symmetry_Int_Tables_number       1
_symmetry_cell_setting            triclinic
loop_
_symmetry_equiv_pos_as_xyz
  x,y,z
_cell_length_a                    22.3038
_cell_length_b                    26.0630
_cell_length_c                    27.1250
_cell_angle_alpha                 94.2723
_cell_angle_beta                  78.1695
_cell_angle_gamma                 103.0395
loop_
_atom_site_label
_atom_site_type_symbol
_atom_site_fract_x
_atom_site_fract_y
_atom_site_fract_z
_atom_site_U_iso_or_equiv
_atom_site_adp_type
_atom_site_occupancy
O1     O     0.12797   0.23807   0.24633   0.00000  Uiso   1.00
O2     O     0.22858   0.24755   0.25587   0.00000  Uiso   1.00
C3     C     0.18176   0.26673   0.25153   0.00000  Uiso   1.00
O4     O     0.09181   0.15960   0.31840   0.00000  Uiso   1.00
O5     O     0.19242   0.16908   0.32793   0.00000  Uiso   1.00
C6     C     0.13372   0.16579   0.34683   0.00000  Uiso   1.00
Cu7    Cu    0.10710   0.16105   0.24436   0.00000  Uiso   1.00
Cu8    Cu    0.22623   0.17228   0.25565   0.00000  Uiso   1.00
O9     O     0.10476   0.08578   0.24414   0.00000  Uiso   1.00
O10    O     0.20536   0.09526   0.25367   0.00000  Uiso   1.00
O11    O     0.14092   0.16425   0.17207   0.00000  Uiso   1.00
O12    O     0.24152   0.17373   0.18161   0.00000  Uiso   1.00
C13    C     0.15157   0.06660   0.24849   0.00000  Uiso   1.00
C14    C     0.19970   0.17024   0.15309   0.00000  Uiso   1.00
C15    C     0.29710   0.20092   0.02403   0.00000  Uiso   1.00
H16    H     0.31641   0.19439   0.09700   0.00000  Uiso   1.00
H17    H     0.31244   0.23576   0.43141   0.00000  Uiso   1.00
H18    H     0.01254   0.21703   0.00805   0.00000  Uiso   1.00
C19    C     0.21720   0.17408   0.09781   0.00000  Uiso   1.00
C20    C     0.05453   0.13066   0.42021   0.00000  Uiso   1.00
C21    C     0.04091   0.10968   0.46768   0.00000  Uiso   1.00
C22    C     0.08589   0.12031   0.49780   0.00000  Uiso   1.00
C23    C     0.14342   0.15654   0.48328   0.00000  Uiso   1.00
C24    C     0.15876   0.17622   0.43406   0.00000  Uiso   1.00
C25    C     0.18791   0.17078   0.01537   0.00000  Uiso   1.00
C26    C     0.25088   0.19401   0.49469   0.00000  Uiso   1.00
C27    C     0.26555   0.21386   0.44640   0.00000  Uiso   1.00
C28    C     0.21877   0.20902   0.41835   0.00000  Uiso   1.00
C29    C     0.17014   0.16765   0.06806   0.00000  Uiso   1.00
C30    C     0.28043   0.18842   0.07473   0.00000  Uiso   1.00
C31    C     0.11447   0.16084   0.40163   0.00000  Uiso   1.00
H32    H     0.02004   0.11896   0.39631   0.00000  Uiso   1.00
H33    H     0.07636   0.09766   0.03117   0.00000  Uiso   1.00
H34    H     0.32974   0.08289   0.48020   0.00000  Uiso   1.00
H35    H     0.23100   0.23079   0.38407   0.00000  Uiso   1.00
C36    C     0.19028   0.32268   0.25229   0.00000  Uiso   1.00
H37    H     0.23583   0.01312   0.25658   0.00000  Uiso   1.00
C38    C     0.14304   0.01065   0.24775   0.00000  Uiso   1.00
H39    H     0.09749   0.32021   0.24345   0.00000  Uiso   1.00
N40    N     0.31574   0.18074   0.26416   0.00000  Uiso   1.00
H41    H     0.00399   0.20621   0.28927   0.00000  Uiso   1.00
N42    N     0.01759   0.15259   0.23584   0.00000  Uiso   1.00
H43    H     0.32920   0.12697   0.21092   0.00000  Uiso   1.00
N44    N     0.10819   0.17465   0.09069   0.00000  Uiso   1.00
O45    O     0.06518   0.13583   0.11189   0.00000  Uiso   1.00
O46    O     0.09756   0.22200   0.09522   0.00000  Uiso   1.00
O47    O     0.46131   0.23807   0.24633   0.00000  Uiso   1.00
O48    O     0.56191   0.24755   0.25587   0.00000  Uiso   1.00
C49    C     0.51509   0.26673   0.25153   0.00000  Uiso   1.00
O50    O     0.42515   0.15960   0.31840   0.00000  Uiso   1.00
O51    O     0.52575   0.16908   0.32793   0.00000  Uiso   1.00
C52    C     0.46706   0.16579   0.34683   0.00000  Uiso   1.00
Cu53   Cu    0.44043   0.16105   0.24436   0.00000  Uiso   1.00
Cu54   Cu    0.55957   0.17228   0.25565   0.00000  Uiso   1.00
O55    O     0.43809   0.08578   0.24414   0.00000  Uiso   1.00
O56    O     0.53869   0.09526   0.25367   0.00000  Uiso   1.00
O57    O     0.47425   0.16425   0.17207   0.00000  Uiso   1.00
O58    O     0.57485   0.17373   0.18161   0.00000  Uiso   1.00
C59    C     0.48490   0.06660   0.24849   0.00000  Uiso   1.00
C60    C     0.53303   0.17024   0.15309   0.00000  Uiso   1.00
C61    C     0.63043   0.20092   0.02403   0.00000  Uiso   1.00
H62    H     0.64974   0.19439   0.09700   0.00000  Uiso   1.00
H63    H     0.64577   0.23576   0.43141   0.00000  Uiso   1.00
H64    H     0.34587   0.21703   0.00805   0.00000  Uiso   1.00
C65    C     0.55053   0.17408   0.09781   0.00000  Uiso   1.00
C66    C     0.38786   0.13066   0.42021   0.00000  Uiso   1.00
C67    C     0.37425   0.10968   0.46768   0.00000  Uiso   1.00
C68    C     0.41922   0.12031   0.49780   0.00000  Uiso   1.00
C69    C     0.47675   0.15654   0.48328   0.00000  Uiso   1.00
C70    C     0.49209   0.17622   0.43406   0.00000  Uiso   1.00
C71    C     0.52124   0.17078   0.01537   0.00000  Uiso   1.00
C72    C     0.58421   0.19401   0.49469   0.00000  Uiso   1.00
C73    C     0.59888   0.21386   0.44640   0.00000  Uiso   1.00
C74    C     0.55210   0.20902   0.41835   0.00000  Uiso   1.00
C75    C     0.50348   0.16765   0.06806   0.00000  Uiso   1.00
C76    C     0.61376   0.18842   0.07473   0.00000  Uiso   1.00
C77    C     0.44780   0.16084   0.40163   0.00000  Uiso   1.00
H78    H     0.35338   0.11896   0.39631   0.00000  Uiso   1.00
H79    H     0.40969   0.09766   0.03117   0.00000  Uiso   1.00
H80    H     0.66307   0.08289   0.48020   0.00000  Uiso   1.00
H81    H     0.56433   0.23079   0.38407   0.00000  Uiso   1.00
C82    C     0.52362   0.32268   0.25229   0.00000  Uiso   1.00
H83    H     0.56916   0.01312   0.25658   0.00000  Uiso   1.00
C84    C     0.47637   0.01065   0.24775   0.00000  Uiso   1.00
H85    H     0.43082   0.32021   0.24345   0.00000  Uiso   1.00
N86    N     0.64908   0.18074   0.26416   0.00000  Uiso   1.00
H87    H     0.33733   0.20621   0.28927   0.00000  Uiso   1.00
N88    N     0.35092   0.15259   0.23584   0.00000  Uiso   1.00
H89    H     0.66254   0.12697   0.21092   0.00000  Uiso   1.00
N90    N     0.44153   0.17465   0.09069   0.00000  Uiso   1.00
O91    O     0.39851   0.13583   0.11189   0.00000  Uiso   1.00
O92    O     0.43089   0.22200   0.09522   0.00000  Uiso   1.00
O93    O     0.79464   0.23807   0.24633   0.00000  Uiso   1.00
O94    O     0.89524   0.24755   0.25587   0.00000  Uiso   1.00
C95    C     0.84842   0.26673   0.25153   0.00000  Uiso   1.00
O96    O     0.75848   0.15960   0.31840   0.00000  Uiso   1.00
O97    O     0.85908   0.16908   0.32793   0.00000  Uiso   1.00
C98    C     0.80039   0.16579   0.34683   0.00000  Uiso   1.00
Cu99   Cu    0.77377   0.16105   0.24436   0.00000  Uiso   1.00
Cu100  Cu    0.89290   0.17228   0.25565   0.00000  Uiso   1.00
O101   O     0.77142   0.08578   0.24414   0.00000  Uiso   1.00
O102   O     0.87203   0.09526   0.25367   0.00000  Uiso   1.00
O103   O     0.80758   0.16425   0.17207   0.00000  Uiso   1.00
O104   O     0.90819   0.17373   0.18161   0.00000  Uiso   1.00
C105   C     0.81823   0.06660   0.24849   0.00000  Uiso   1.00
C106   C     0.86636   0.17024   0.15309   0.00000  Uiso   1.00
C107   C     0.96376   0.20092   0.02403   0.00000  Uiso   1.00
H108   H     0.98307   0.19439   0.09700   0.00000  Uiso   1.00
H109   H     0.97911   0.23576   0.43141   0.00000  Uiso   1.00
H110   H     0.67920   0.21703   0.00805   0.00000  Uiso   1.00
C111   C     0.88386   0.17408   0.09781   0.00000  Uiso   1.00
C112   C     0.72119   0.13066   0.42021   0.00000  Uiso   1.00
C113   C     0.70758   0.10968   0.46768   0.00000  Uiso   1.00
C114   C     0.75256   0.12031   0.49780   0.00000  Uiso   1.00
C115   C     0.81009   0.15654   0.48328   0.00000  Uiso   1.00
C116   C     0.82542   0.17622   0.43406   0.00000  Uiso   1.00
C117   C     0.85458   0.17078   0.01537   0.00000  Uiso   1.00
C118   C     0.91754   0.19401   0.49469   0.00000  Uiso   1.00
C119   C     0.93222   0.21386   0.44640   0.00000  Uiso   1.00
C120   C     0.88543   0.20902   0.41835   0.00000  Uiso   1.00
C121   C     0.83681   0.16765   0.06806   0.00000  Uiso   1.00
C122   C     0.94709   0.18842   0.07473   0.00000  Uiso   1.00
C123   C     0.78113   0.16084   0.40163   0.00000  Uiso   1.00
H124   H     0.68671   0.11896   0.39631   0.00000  Uiso   1.00
H125   H     0.74303   0.09766   0.03117   0.00000  Uiso   1.00
H126   H     0.99641   0.08289   0.48020   0.00000  Uiso   1.00
H127   H     0.89767   0.23079   0.38407   0.00000  Uiso   1.00
C128   C     0.85695   0.32268   0.25229   0.00000  Uiso   1.00
H129   H     0.90249   0.01312   0.25658   0.00000  Uiso   1.00
C130   C     0.80970   0.01065   0.24775   0.00000  Uiso   1.00
H131   H     0.76416   0.32021   0.24345   0.00000  Uiso   1.00
N132   N     0.98241   0.18074   0.26416   0.00000  Uiso   1.00
H133   H     0.67066   0.20621   0.28927   0.00000  Uiso   1.00
N134   N     0.68426   0.15259   0.23584   0.00000  Uiso   1.00
H135   H     0.99587   0.12697   0.21092   0.00000  Uiso   1.00
N136   N     0.77486   0.17465   0.09069   0.00000  Uiso   1.00
O137   O     0.73184   0.13583   0.11189   0.00000  Uiso   1.00
O138   O     0.76423   0.22200   0.09522   0.00000  Uiso   1.00
O139   O     0.12797   0.57141   0.24633   0.00000  Uiso   1.00
O140   O     0.22858   0.58089   0.25587   0.00000  Uiso   1.00
C141   C     0.18176   0.60006   0.25153   0.00000  Uiso   1.00
O142   O     0.09181   0.49293   0.31840   0.00000  Uiso   1.00
O143   O     0.19242   0.50241   0.32793   0.00000  Uiso   1.00
C144   C     0.13372   0.49912   0.34683   0.00000  Uiso   1.00
Cu145  Cu    0.10710   0.49439   0.24436   0.00000  Uiso   1.00
Cu146  Cu    0.22623   0.50561   0.25565   0.00000  Uiso   1.00
O147   O     0.10476   0.41911   0.24414   0.00000  Uiso   1.00
O148   O     0.20536   0.42859   0.25367   0.00000  Uiso   1.00
O149   O     0.14092   0.49759   0.17207   0.00000  Uiso   1.00
O150   O     0.24152   0.50707   0.18161   0.00000  Uiso   1.00
C151   C     0.15157   0.39994   0.24849   0.00000  Uiso   1.00
C152   C     0.19970   0.50358   0.15309   0.00000  Uiso   1.00
C153   C     0.29710   0.53426   0.02403   0.00000  Uiso   1.00
H154   H     0.31641   0.52772   0.09700   0.00000  Uiso   1.00
H155   H     0.31244   0.56909   0.43141   0.00000  Uiso   1.00
H156   H     0.01254   0.55036   0.00805   0.00000  Uiso   1.00
C157   C     0.21720   0.50741   0.09781   0.00000  Uiso   1.00
C158   C     0.05453   0.46399   0.42021   0.00000  Uiso   1.00
C159   C     0.04091   0.44302   0.46768   0.00000  Uiso   1.00
C160   C     0.08589   0.45364   0.49780   0.00000  Uiso   1.00
C161   C     0.14342   0.48988   0.48328   0.00000  Uiso   1.00
C162   C     0.15876   0.50955   0.43406   0.00000  Uiso   1.00
C163   C     0.18791   0.50411   0.01537   0.00000  Uiso   1.00
C164   C     0.25088   0.52735   0.49469   0.00000  Uiso   1.00
C165   C     0.26555   0.54720   0.44640   0.00000  Uiso   1.00
C166   C     0.21877   0.54235   0.41835   0.00000  Uiso   1.00
C167   C     0.17014   0.50099   0.06806   0.00000  Uiso   1.00
C168   C     0.28043   0.52175   0.07473   0.00000  Uiso   1.00
C169   C     0.11447   0.49417   0.40163   0.00000  Uiso   1.00
H170   H     0.02004   0.45230   0.39631   0.00000  Uiso   1.00
H171   H     0.07636   0.43099   0.03117   0.00000  Uiso   1.00
H172   H     0.32974   0.41622   0.48020   0.00000  Uiso   1.00
H173   H     0.23100   0.56412   0.38407   0.00000  Uiso   1.00
C174   C     0.19028   0.65601   0.25229   0.00000  Uiso   1.00
H175   H     0.23583   0.34646   0.25658   0.00000  Uiso   1.00
C176   C     0.14304   0.34398   0.24775   0.00000  Uiso   1.00
H177   H     0.09749   0.65354   0.24345   0.00000  Uiso   1.00
N178   N     0.31574   0.51407   0.26416   0.00000  Uiso   1.00
H179   H     0.00399   0.53954   0.28927   0.00000  Uiso   1.00
N180   N     0.01759   0.48593   0.23584   0.00000  Uiso   1.00
H181   H     0.32920   0.46030   0.21092   0.00000  Uiso   1.00
N182   N     0.10819   0.50798   0.09069   0.00000  Uiso   1.00
O183   O     0.06518   0.46916   0.11189   0.00000  Uiso   1.00
O184   O     0.09756   0.55533   0.09522   0.00000  Uiso   1.00
O185   O     0.46131   0.57141   0.24633   0.00000  Uiso   1.00
O186   O     0.56191   0.58089   0.25587   0.00000  Uiso   1.00
C187   C     0.51509   0.60006   0.25153   0.00000  Uiso   1.00
O188   O     0.42515   0.49293   0.31840   0.00000  Uiso   1.00
O189   O     0.52575   0.50241   0.32793   0.00000  Uiso   1.00
C190   C     0.46706   0.49912   0.34683   0.00000  Uiso   1.00
Cu191  Cu    0.44043   0.49439   0.24436   0.00000  Uiso   1.00
Cu192  Cu    0.55957   0.50561   0.25565   0.00000  Uiso   1.00
O193   O     0.43809   0.41911   0.24414   0.00000  Uiso   1.00
O194   O     0.53869   0.42859   0.25367   0.00000  Uiso   1.00
O195   O     0.47425   0.49759   0.17207   0.00000  Uiso   1.00
O196   O     0.57485   0.50707   0.18161   0.00000  Uiso   1.00
C197   C     0.48490   0.39994   0.24849   0.00000  Uiso   1.00
C198   C     0.53303   0.50358   0.15309   0.00000  Uiso   1.00
C199   C     0.63043   0.53426   0.02403   0.00000  Uiso   1.00
H200   H     0.64974   0.52772   0.09700   0.00000  Uiso   1.00
H201   H     0.64577   0.56909   0.43141   0.00000  Uiso   1.00
H202   H     0.34587   0.55036   0.00805   0.00000  Uiso   1.00
C203   C     0.55053   0.50741   0.09781   0.00000  Uiso   1.00
C204   C     0.38786   0.46399   0.42021   0.00000  Uiso   1.00
C205   C     0.37425   0.44302   0.46768   0.00000  Uiso   1.00
C206   C     0.41922   0.45364   0.49780   0.00000  Uiso   1.00
C207   C     0.47675   0.48988   0.48328   0.00000  Uiso   1.00
C208   C     0.49209   0.50955   0.43406   0.00000  Uiso   1.00
C209   C     0.52124   0.50411   0.01537   0.00000  Uiso   1.00
C210   C     0.58421   0.52735   0.49469   0.00000  Uiso   1.00
C211   C     0.59888   0.54720   0.44640   0.00000  Uiso   1.00
C212   C     0.55210   0.54235   0.41835   0.00000  Uiso   1.00
C213   C     0.50348   0.50099   0.06806   0.00000  Uiso   1.00
C214   C     0.61376   0.52175   0.07473   0.00000  Uiso   1.00
C215   C     0.44780   0.49417   0.40163   0.00000  Uiso   1.00
H216   H     0.35338   0.45230   0.39631   0.00000  Uiso   1.00
H217   H     0.40969   0.43099   0.03117   0.00000  Uiso   1.00
H218   H     0.66307   0.41622   0.48020   0.00000  Uiso   1.00
H219   H     0.56433   0.56412   0.38407   0.00000  Uiso   1.00
C220   C     0.52362   0.65601   0.25229   0.00000  Uiso   1.00
H221   H     0.56916   0.34646   0.25658   0.00000  Uiso   1.00
C222   C     0.47637   0.34398   0.24775   0.00000  Uiso   1.00
H223   H     0.43082   0.65354   0.24345   0.00000  Uiso   1.00
N224   N     0.64908   0.51407   0.26416   0.00000  Uiso   1.00
H225   H     0.33733   0.53954   0.28927   0.00000  Uiso   1.00
N226   N     0.35092   0.48593   0.23584   0.00000  Uiso   1.00
H227   H     0.66254   0.46030   0.21092   0.00000  Uiso   1.00
N228   N     0.44153   0.50798   0.09069   0.00000  Uiso   1.00
O229   O     0.39851   0.46916   0.11189   0.00000  Uiso   1.00
O230   O     0.43089   0.55533   0.09522   0.00000  Uiso   1.00
O231   O     0.79464   0.57141   0.24633   0.00000  Uiso   1.00
O232   O     0.89524   0.58089   0.25587   0.00000  Uiso   1.00
C233   C     0.84842   0.60006   0.25153   0.00000  Uiso   1.00
O234   O     0.75848   0.49293   0.31840   0.00000  Uiso   1.00
O235   O     0.85908   0.50241   0.32793   0.00000  Uiso   1.00
C236   C     0.80039   0.49912   0.34683   0.00000  Uiso   1.00
Cu237  Cu    0.77377   0.49439   0.24436   0.00000  Uiso   1.00
Cu238  Cu    0.89290   0.50561   0.25565   0.00000  Uiso   1.00
O239   O     0.77142   0.41911   0.24414   0.00000  Uiso   1.00
O240   O     0.87203   0.42859   0.25367   0.00000  Uiso   1.00
O241   O     0.80758   0.49759   0.17207   0.00000  Uiso   1.00
O242   O     0.90819   0.50707   0.18161   0.00000  Uiso   1.00
C243   C     0.81823   0.39994   0.24849   0.00000  Uiso   1.00
C244   C     0.86636   0.50358   0.15309   0.00000  Uiso   1.00
C245   C     0.96376   0.53426   0.02403   0.00000  Uiso   1.00
H246   H     0.98307   0.52772   0.09700   0.00000  Uiso   1.00
H247   H     0.97911   0.56909   0.43141   0.00000  Uiso   1.00
H248   H     0.67920   0.55036   0.00805   0.00000  Uiso   1.00
C249   C     0.88386   0.50741   0.09781   0.00000  Uiso   1.00
C250   C     0.72119   0.46399   0.42021   0.00000  Uiso   1.00
C251   C     0.70758   0.44302   0.46768   0.00000  Uiso   1.00
C252   C     0.75256   0.45364   0.49780   0.00000  Uiso   1.00
C253   C     0.81009   0.48988   0.48328   0.00000  Uiso   1.00
C254   C     0.82542   0.50955   0.43406   0.00000  Uiso   1.00
C255   C     0.85458   0.50411   0.01537   0.00000  Uiso   1.00
C256   C     0.91754   0.52735   0.49469   0.00000  Uiso   1.00
C257   C     0.93222   0.54720   0.44640   0.00000  Uiso   1.00
C258   C     0.88543   0.54235   0.41835   0.00000  Uiso   1.00
C259   C     0.83681   0.50099   0.06806   0.00000  Uiso   1.00
C260   C     0.94709   0.52175   0.07473   0.00000  Uiso   1.00
C261   C     0.78113   0.49417   0.40163   0.00000  Uiso   1.00
H262   H     0.68671   0.45230   0.39631   0.00000  Uiso   1.00
H263   H     0.74303   0.43099   0.03117   0.00000  Uiso   1.00
H264   H     0.99641   0.41622   0.48020   0.00000  Uiso   1.00
H265   H     0.89767   0.56412   0.38407   0.00000  Uiso   1.00
C266   C     0.85695   0.65601   0.25229   0.00000  Uiso   1.00
H267   H     0.90249   0.34646   0.25658   0.00000  Uiso   1.00
C268   C     0.80970   0.34398   0.24775   0.00000  Uiso   1.00
H269   H     0.76416   0.65354   0.24345   0.00000  Uiso   1.00
N270   N     0.98241   0.51407   0.26416   0.00000  Uiso   1.00
H271   H     0.67066   0.53954   0.28927   0.00000  Uiso   1.00
N272   N     0.68426   0.48593   0.23584   0.00000  Uiso   1.00
H273   H     0.99587   0.46030   0.21092   0.00000  Uiso   1.00
N274   N     0.77486   0.50798   0.09069   0.00000  Uiso   1.00
O275   O     0.73184   0.46916   0.11189   0.00000  Uiso   1.00
O276   O     0.76423   0.55533   0.09522   0.00000  Uiso   1.00
O277   O     0.12797   0.90474   0.24633   0.00000  Uiso   1.00
O278   O     0.22858   0.91422   0.25587   0.00000  Uiso   1.00
C279   C     0.18176   0.93340   0.25153   0.00000  Uiso   1.00
O280   O     0.09181   0.82627   0.31840   0.00000  Uiso   1.00
O281   O     0.19242   0.83575   0.32793   0.00000  Uiso   1.00
C282   C     0.13372   0.83246   0.34683   0.00000  Uiso   1.00
Cu283  Cu    0.10710   0.82772   0.24436   0.00000  Uiso   1.00
Cu284  Cu    0.22623   0.83895   0.25565   0.00000  Uiso   1.00
O285   O     0.10476   0.75245   0.24414   0.00000  Uiso   1.00
O286   O     0.20536   0.76193   0.25367   0.00000  Uiso   1.00
O287   O     0.14092   0.83092   0.17207   0.00000  Uiso   1.00
O288   O     0.24152   0.84040   0.18161   0.00000  Uiso   1.00
C289   C     0.15157   0.73327   0.24849   0.00000  Uiso   1.00
C290   C     0.19970   0.83691   0.15309   0.00000  Uiso   1.00
C291   C     0.29710   0.86759   0.02403   0.00000  Uiso   1.00
H292   H     0.31641   0.86106   0.09700   0.00000  Uiso   1.00
H293   H     0.31244   0.90243   0.43141   0.00000  Uiso   1.00
H294   H     0.01254   0.88370   0.00805   0.00000  Uiso   1.00
C295   C     0.21720   0.84075   0.09781   0.00000  Uiso   1.00
C296   C     0.05453   0.79732   0.42021   0.00000  Uiso   1.00
C297   C     0.04091   0.77635   0.46768   0.00000  Uiso   1.00
C298   C     0.08589   0.78697   0.49780   0.00000  Uiso   1.00
C299   C     0.14342   0.82321   0.48328   0.00000  Uiso   1.00
C300   C     0.15876   0.84288   0.43406   0.00000  Uiso   1.00
C301   C     0.18791   0.83744   0.01537   0.00000  Uiso   1.00
C302   C     0.25088   0.86068   0.49469   0.00000  Uiso   1.00
C303   C     0.26555   0.88053   0.44640   0.00000  Uiso   1.00
C304   C     0.21877   0.87568   0.41835   0.00000  Uiso   1.00
C305   C     0.17014   0.83432   0.06806   0.00000  Uiso   1.00
C306   C     0.28043   0.85508   0.07473   0.00000  Uiso   1.00
C307   C     0.11447   0.82751   0.40163   0.00000  Uiso   1.00
H308   H     0.02004   0.78563   0.39631   0.00000  Uiso   1.00
H309   H     0.07636   0.76433   0.03117   0.00000  Uiso   1.00
H310   H     0.32974   0.74956   0.48020   0.00000  Uiso   1.00
H311   H     0.23100   0.89746   0.38407   0.00000  Uiso   1.00
C312   C     0.19028   0.98935   0.25229   0.00000  Uiso   1.00
H313   H     0.23583   0.67979   0.25658   0.00000  Uiso   1.00
C314   C     0.14304   0.67732   0.24775   0.00000  Uiso   1.00
H315   H     0.09749   0.98687   0.24345   0.00000  Uiso   1.00
N316   N     0.31574   0.84741   0.26416   0.00000  Uiso   1.00
H317   H     0.00399   0.87287   0.28927   0.00000  Uiso   1.00
N318   N     0.01759   0.81926   0.23584   0.00000  Uiso   1.00
H319   H     0.32920   0.79364   0.21092   0.00000  Uiso   1.00
N320   N     0.10819   0.84132   0.09069   0.00000  Uiso   1.00
O321   O     0.06518   0.80250   0.11189   0.00000  Uiso   1.00
O322   O     0.09756   0.88867   0.09522   0.00000  Uiso   1.00
O323   O     0.46131   0.90474   0.24633   0.00000  Uiso   1.00
O324   O     0.56191   0.91422   0.25587   0.00000  Uiso   1.00
C325   C     0.51509   0.93340   0.25153   0.00000  Uiso   1.00
O326   O     0.42515   0.82627   0.31840   0.00000  Uiso   1.00
O327   O     0.52575   0.83575   0.32793   0.00000  Uiso   1.00
C328   C     0.46706   0.83246   0.34683   0.00000  Uiso   1.00
Cu329  Cu    0.44043   0.82772   0.24436   0.00000  Uiso   1.00
Cu330  Cu    0.55957   0.83895   0.25565   0.00000  Uiso   1.00
O331   O     0.43809   0.75245   0.24414   0.00000  Uiso   1.00
O332   O     0.53869   0.76193   0.25367   0.00000  Uiso   1.00
O333   O     0.47425   0.83092   0.17207   0.00000  Uiso   1.00
O334   O     0.57485   0.84040   0.18161   0.00000  Uiso   1.00
C335   C     0.48490   0.73327   0.24849   0.00000  Uiso   1.00
C336   C     0.53303   0.83691   0.15309   0.00000  Uiso   1.00
C337   C     0.63043   0.86759   0.02403   0.00000  Uiso   1.00
H338   H     0.64974   0.86106   0.09700   0.00000  Uiso   1.00
H339   H     0.64577   0.90243   0.43141   0.00000  Uiso   1.00
H340   H     0.34587   0.88370   0.00805   0.00000  Uiso   1.00
C341   C     0.55053   0.84075   0.09781   0.00000  Uiso   1.00
C342   C     0.38786   0.79732   0.42021   0.00000  Uiso   1.00
C343   C     0.37425   0.77635   0.46768   0.00000  Uiso   1.00
C344   C     0.41922   0.78697   0.49780   0.00000  Uiso   1.00
C345   C     0.47675   0.82321   0.48328   0.00000  Uiso   1.00
C346   C     0.49209   0.84288   0.43406   0.00000  Uiso   1.00
C347   C     0.52124   0.83744   0.01537   0.00000  Uiso   1.00
C348   C     0.58421   0.86068   0.49469   0.00000  Uiso   1.00
C349   C     0.59888   0.88053   0.44640   0.00000  Uiso   1.00
C350   C     0.55210   0.87568   0.41835   0.00000  Uiso   1.00
C351   C     0.50348   0.83432   0.06806   0.00000  Uiso   1.00
C352   C     0.61376   0.85508   0.07473   0.00000  Uiso   1.00
C353   C     0.44780   0.82751   0.40163   0.00000  Uiso   1.00
H354   H     0.35338   0.78563   0.39631   0.00000  Uiso   1.00
H355   H     0.40969   0.76433   0.03117   0.00000  Uiso   1.00
H356   H     0.66307   0.74956   0.48020   0.00000  Uiso   1.00
H357   H     0.56433   0.89746   0.38407   0.00000  Uiso   1.00
C358   C     0.52362   0.98935   0.25229   0.00000  Uiso   1.00
H359   H     0.56916   0.67979   0.25658   0.00000  Uiso   1.00
C360   C     0.47637   0.67732   0.24775   0.00000  Uiso   1.00
H361   H     0.43082   0.98687   0.24345   0.00000  Uiso   1.00
N362   N     0.64908   0.84741   0.26416   0.00000  Uiso   1.00
H363   H     0.33733   0.87287   0.28927   0.00000  Uiso   1.00
N364   N     0.35092   0.81926   0.23584   0.00000  Uiso   1.00
H365   H     0.66254   0.79364   0.21092   0.00000  Uiso   1.00
N366   N     0.44153   0.84132   0.09069   0.00000  Uiso   1.00
O367   O     0.39851   0.80250   0.11189   0.00000  Uiso   1.00
O368   O     0.43089   0.88867   0.09522   0.00000  Uiso   1.00
O369   O     0.79464   0.90474   0.24633   0.00000  Uiso   1.00
O370   O     0.89524   0.91422   0.25587   0.00000  Uiso   1.00
C371   C     0.84842   0.93340   0.25153   0.00000  Uiso   1.00
O372   O     0.75848   0.82627   0.31840   0.00000  Uiso   1.00
O373   O     0.85908   0.83575   0.32793   0.00000  Uiso   1.00
C374   C     0.80039   0.83246   0.34683   0.00000  Uiso   1.00
Cu375  Cu    0.77377   0.82772   0.24436   0.00000  Uiso   1.00
Cu376  Cu    0.89290   0.83895   0.25565   0.00000  Uiso   1.00
O377   O     0.77142   0.75245   0.24414   0.00000  Uiso   1.00
O378   O     0.87203   0.76193   0.25367   0.00000  Uiso   1.00
O379   O     0.80758   0.83092   0.17207   0.00000  Uiso   1.00
O380   O     0.90819   0.84040   0.18161   0.00000  Uiso   1.00
C381   C     0.81823   0.73327   0.24849   0.00000  Uiso   1.00
C382   C     0.86636   0.83691   0.15309   0.00000  Uiso   1.00
C383   C     0.96376   0.86759   0.02403   0.00000  Uiso   1.00
H384   H     0.98307   0.86106   0.09700   0.00000  Uiso   1.00
H385   H     0.97911   0.90243   0.43141   0.00000  Uiso   1.00
H386   H     0.67920   0.88370   0.00805   0.00000  Uiso   1.00
C387   C     0.88386   0.84075   0.09781   0.00000  Uiso   1.00
C388   C     0.72119   0.79732   0.42021   0.00000  Uiso   1.00
C389   C     0.70758   0.77635   0.46768   0.00000  Uiso   1.00
C390   C     0.75256   0.78697   0.49780   0.00000  Uiso   1.00
C391   C     0.81009   0.82321   0.48328   0.00000  Uiso   1.00
C392   C     0.82542   0.84288   0.43406   0.00000  Uiso   1.00
C393   C     0.85458   0.83744   0.01537   0.00000  Uiso   1.00
C394   C     0.91754   0.86068   0.49469   0.00000  Uiso   1.00
C395   C     0.93222   0.88053   0.44640   0.00000  Uiso   1.00
C396   C     0.88543   0.87568   0.41835   0.00000  Uiso   1.00
C397   C     0.83681   0.83432   0.06806   0.00000  Uiso   1.00
C398   C     0.94709   0.85508   0.07473   0.00000  Uiso   1.00
C399   C     0.78113   0.82751   0.40163   0.00000  Uiso   1.00
H400   H     0.68671   0.78563   0.39631   0.00000  Uiso   1.00
H401   H     0.74303   0.76433   0.03117   0.00000  Uiso   1.00
H402   H     0.99641   0.74956   0.48020   0.00000  Uiso   1.00
H403   H     0.89767   0.89746   0.38407   0.00000  Uiso   1.00
C404   C     0.85695   0.98935   0.25229   0.00000  Uiso   1.00
H405   H     0.90249   0.67979   0.25658   0.00000  Uiso   1.00
C406   C     0.80970   0.67732   0.24775   0.00000  Uiso   1.00
H407   H     0.76416   0.98687   0.24345   0.00000  Uiso   1.00
N408   N     0.98241   0.84741   0.26416   0.00000  Uiso   1.00
H409   H     0.67066   0.87287   0.28927   0.00000  Uiso   1.00
N410   N     0.68426   0.81926   0.23584   0.00000  Uiso   1.00
H411   H     0.99587   0.79364   0.21092   0.00000  Uiso   1.00
N412   N     0.77486   0.84132   0.09069   0.00000  Uiso   1.00
O413   O     0.73184   0.80250   0.11189   0.00000  Uiso   1.00
O414   O     0.76423   0.88867   0.09522   0.00000  Uiso   1.00
O415   O     0.12797   0.23807   0.74633   0.00000  Uiso   1.00
O416   O     0.22858   0.24755   0.75587   0.00000  Uiso   1.00
C417   C     0.18176   0.26673   0.75153   0.00000  Uiso   1.00
O418   O     0.09181   0.15960   0.81840   0.00000  Uiso   1.00
O419   O     0.19242   0.16908   0.82793   0.00000  Uiso   1.00
C420   C     0.13372   0.16579   0.84683   0.00000  Uiso   1.00
Cu421  Cu    0.10710   0.16105   0.74436   0.00000  Uiso   1.00
Cu422  Cu    0.22623   0.17228   0.75565   0.00000  Uiso   1.00
O423   O     0.10476   0.08578   0.74414   0.00000  Uiso   1.00
O424   O     0.20536   0.09526   0.75367   0.00000  Uiso   1.00
O425   O     0.14092   0.16425   0.67207   0.00000  Uiso   1.00
O426   O     0.24152   0.17373   0.68161   0.00000  Uiso   1.00
C427   C     0.15157   0.06660   0.74849   0.00000  Uiso   1.00
C428   C     0.19970   0.17024   0.65309   0.00000  Uiso   1.00
C429   C     0.29710   0.20092   0.52403   0.00000  Uiso   1.00
H430   H     0.31641   0.19439   0.59700   0.00000  Uiso   1.00
H431   H     0.31244   0.23576   0.93141   0.00000  Uiso   1.00
H432   H     0.01254   0.21703   0.50805   0.00000  Uiso   1.00
C433   C     0.21720   0.17408   0.59781   0.00000  Uiso   1.00
C434   C     0.05453   0.13066   0.92021   0.00000  Uiso   1.00
C435   C     0.04091   0.10968   0.96768   0.00000  Uiso   1.00
C436   C     0.08589   0.12031   0.99780   0.00000  Uiso   1.00
C437   C     0.14342   0.15654   0.98328   0.00000  Uiso   1.00
C438   C     0.15876   0.17622   0.93406   0.00000  Uiso   1.00
C439   C     0.18791   0.17078   0.51537   0.00000  Uiso   1.00
C440   C     0.25088   0.19401   0.99469   0.00000  Uiso   1.00
C441   C     0.26555   0.21386   0.94640   0.00000  Uiso   1.00
C442   C     0.21877   0.20902   0.91835   0.00000  Uiso   1.00
C443   C     0.17014   0.16765   0.56806   0.00000  Uiso   1.00
C444   C     0.28043   0.18842   0.57473   0.00000  Uiso   1.00
C445   C     0.11447   0.16084   0.90163   0.00000  Uiso   1.00
H446   H     0.02004   0.11896   0.89631   0.00000  Uiso   1.00
H447   H     0.07636   0.09766   0.53117   0.00000  Uiso   1.00
H448   H     0.32974   0.08289   0.98020   0.00000  Uiso   1.00
H449   H     0.23100   0.23079   0.88407   0.00000  Uiso   1.00
C450   C     0.19028   0.32268   0.75229   0.00000  Uiso   1.00
H451   H     0.23583   0.01312   0.75658   0.00000  Uiso   1.00
C452   C     0.14304   0.01065   0.74775   0.00000  Uiso   1.00
H453   H     0.09749   0.32021   0.74345   0.00000  Uiso   1.00
N454   N     0.31574   0.18074   0.76416   0.00000  Uiso   1.00
H455   H     0.00399   0.20621   0.78927   0.00000  Uiso   1.00
N456   N     0.01759   0.15259   0.73584   0.00000  Uiso   1.00
H457   H     0.32920   0.12697   0.71092   0.00000  Uiso   1.00
N458   N     0.10819   0.17465   0.59069   0.00000  Uiso   1.00
O459   O     0.06518   0.13583   0.61189   0.00000  Uiso   1.00
O460   O     0.09756   0.22200   0.59522   0.00000  Uiso   1.00
O461   O     0.46131   0.23807   0.74633   0.00000  Uiso   1.00
O462   O     0.56191   0.24755   0.75587   0.00000  Uiso   1.00
C463   C     0.51509   0.26673   0.75153   0.00000  Uiso   1.00
O464   O     0.42515   0.15960   0.81840   0.00000  Uiso   1.00
O465   O     0.52575   0.16908   0.82793   0.00000  Uiso   1.00
C466   C     0.46706   0.16579   0.84683   0.00000  Uiso   1.00
Cu467  Cu    0.44043   0.16105   0.74436   0.00000  Uiso   1.00
Cu468  Cu    0.55957   0.17228   0.75565   0.00000  Uiso   1.00
O469   O     0.43809   0.08578   0.74414   0.00000  Uiso   1.00
O470   O     0.53869   0.09526   0.75367   0.00000  Uiso   1.00
O471   O     0.47425   0.16425   0.67207   0.00000  Uiso   1.00
O472   O     0.57485   0.17373   0.68161   0.00000  Uiso   1.00
C473   C     0.48490   0.06660   0.74849   0.00000  Uiso   1.00
C474   C     0.53303   0.17024   0.65309   0.00000  Uiso   1.00
C475   C     0.63043   0.20092   0.52403   0.00000  Uiso   1.00
H476   H     0.64974   0.19439   0.59700   0.00000  Uiso   1.00
H477   H     0.64577   0.23576   0.93141   0.00000  Uiso   1.00
H478   H     0.34587   0.21703   0.50805   0.00000  Uiso   1.00
C479   C     0.55053   0.17408   0.59781   0.00000  Uiso   1.00
C480   C     0.38786   0.13066   0.92021   0.00000  Uiso   1.00
C481   C     0.37425   0.10968   0.96768   0.00000  Uiso   1.00
C482   C     0.41922   0.12031   0.99780   0.00000  Uiso   1.00
C483   C     0.47675   0.15654   0.98328   0.00000  Uiso   1.00
C484   C     0.49209   0.17622   0.93406   0.00000  Uiso   1.00
C485   C     0.52124   0.17078   0.51537   0.00000  Uiso   1.00
C486   C     0.58421   0.19401   0.99469   0.00000  Uiso   1.00
C487   C     0.59888   0.21386   0.94640   0.00000  Uiso   1.00
C488   C     0.55210   0.20902   0.91835   0.00000  Uiso   1.00
C489   C     0.50348   0.16765   0.56806   0.00000  Uiso   1.00
C490   C     0.61376   0.18842   0.57473   0.00000  Uiso   1.00
C491   C     0.44780   0.16084   0.90163   0.00000  Uiso   1.00
H492   H     0.35338   0.11896   0.89631   0.00000  Uiso   1.00
H493   H     0.40969   0.09766   0.53117   0.00000  Uiso   1.00
H494   H     0.66307   0.08289   0.98020   0.00000  Uiso   1.00
H495   H     0.56433   0.23079   0.88407   0.00000  Uiso   1.00
C496   C     0.52362   0.32268   0.75229   0.00000  Uiso   1.00
H497   H     0.56916   0.01312   0.75658   0.00000  Uiso   1.00
C498   C     0.47637   0.01065   0.74775   0.00000  Uiso   1.00
H499   H     0.43082   0.32021   0.74345   0.00000  Uiso   1.00
N500   N     0.64908   0.18074   0.76416   0.00000  Uiso   1.00
H501   H     0.33733   0.20621   0.78927   0.00000  Uiso   1.00
N502   N     0.35092   0.15259   0.73584   0.00000  Uiso   1.00
H503   H     0.66254   0.12697   0.71092   0.00000  Uiso   1.00
N504   N     0.44153   0.17465   0.59069   0.00000  Uiso   1.00
O505   O     0.39851   0.13583   0.61189   0.00000  Uiso   1.00
O506   O     0.43089   0.22200   0.59522   0.00000  Uiso   1.00
O507   O     0.79464   0.23807   0.74633   0.00000  Uiso   1.00
O508   O     0.89524   0.24755   0.75587   0.00000  Uiso   1.00
C509   C     0.84842   0.26673   0.75153   0.00000  Uiso   1.00
O510   O     0.75848   0.15960   0.81840   0.00000  Uiso   1.00
O511   O     0.85908   0.16908   0.82793   0.00000  Uiso   1.00
C512   C     0.80039   0.16579   0.84683   0.00000  Uiso   1.00
Cu513  Cu    0.77377   0.16105   0.74436   0.00000  Uiso   1.00
Cu514  Cu    0.89290   0.17228   0.75565   0.00000  Uiso   1.00
O515   O     0.77142   0.08578   0.74414   0.00000  Uiso   1.00
O516   O     0.87203   0.09526   0.75367   0.00000  Uiso   1.00
O517   O     0.80758   0.16425   0.67207   0.00000  Uiso   1.00
O518   O     0.90819   0.17373   0.68161   0.00000  Uiso   1.00
C519   C     0.81823   0.06660   0.74849   0.00000  Uiso   1.00
C520   C     0.86636   0.17024   0.65309   0.00000  Uiso   1.00
C521   C     0.96376   0.20092   0.52403   0.00000  Uiso   1.00
H522   H     0.98307   0.19439   0.59700   0.00000  Uiso   1.00
H523   H     0.97911   0.23576   0.93141   0.00000  Uiso   1.00
H524   H     0.67920   0.21703   0.50805   0.00000  Uiso   1.00
C525   C     0.88386   0.17408   0.59781   0.00000  Uiso   1.00
C526   C     0.72119   0.13066   0.92021   0.00000  Uiso   1.00
C527   C     0.70758   0.10968   0.96768   0.00000  Uiso   1.00
C528   C     0.75256   0.12031   0.99780   0.00000  Uiso   1.00
C529   C     0.81009   0.15654   0.98328   0.00000  Uiso   1.00
C530   C     0.82542   0.17622   0.93406   0.00000  Uiso   1.00
C531   C     0.85458   0.17078   0.51537   0.00000  Uiso   1.00
C532   C     0.91754   0.19401   0.99469   0.00000  Uiso   1.00
C533   C     0.93222   0.21386   0.94640   0.00000  Uiso   1.00
C534   C     0.88543   0.20902   0.91835   0.00000  Uiso   1.00
C535   C     0.83681   0.16765   0.56806   0.00000  Uiso   1.00
C536   C     0.94709   0.18842   0.57473   0.00000  Uiso   1.00
C537   C     0.78113   0.16084   0.90163   0.00000  Uiso   1.00
H538   H     0.68671   0.11896   0.89631   0.00000  Uiso   1.00
H539   H     0.74303   0.09766   0.53117   0.00000  Uiso   1.00
H540   H     0.99641   0.08289   0.98020   0.00000  Uiso   1.00
H541   H     0.89767   0.23079   0.88407   0.00000  Uiso   1.00
C542   C     0.85695   0.32268   0.75229   0.00000  Uiso   1.00
H543   H     0.90249   0.01312   0.75658   0.00000  Uiso   1.00
C544   C     0.80970   0.01065   0.74775   0.00000  Uiso   1.00
H545   H     0.76416   0.32021   0.74345   0.00000  Uiso   1.00
N546   N     0.98241   0.18074   0.76416   0.00000  Uiso   1.00
H547   H     0.67066   0.20621   0.78927   0.00000  Uiso   1.00
N548   N     0.68426   0.15259   0.73584   0.00000  Uiso   1.00
H549   H     0.99587   0.12697   0.71092   0.00000  Uiso   1.00
N550   N     0.77486   0.17465   0.59069   0.00000  Uiso   1.00
O551   O     0.73184   0.13583   0.61189   0.00000  Uiso   1.00
O552   O     0.76423   0.22200   0.59522   0.00000  Uiso   1.00
O553   O     0.12797   0.57141   0.74633   0.00000  Uiso   1.00
O554   O     0.22858   0.58089   0.75587   0.00000  Uiso   1.00
C555   C     0.18176   0.60006   0.75153   0.00000  Uiso   1.00
O556   O     0.09181   0.49293   0.81840   0.00000  Uiso   1.00
O557   O     0.19242   0.50241   0.82793   0.00000  Uiso   1.00
C558   C     0.13372   0.49912   0.84683   0.00000  Uiso   1.00
Cu559  Cu    0.10710   0.49439   0.74436   0.00000  Uiso   1.00
Cu560  Cu    0.22623   0.50561   0.75565   0.00000  Uiso   1.00
O561   O     0.10476   0.41911   0.74414   0.00000  Uiso   1.00
O562   O     0.20536   0.42859   0.75367   0.00000  Uiso   1.00
O563   O     0.14092   0.49759   0.67207   0.00000  Uiso   1.00
O564   O     0.24152   0.50707   0.68161   0.00000  Uiso   1.00
C565   C     0.15157   0.39994   0.74849   0.00000  Uiso   1.00
C566   C     0.19970   0.50358   0.65309   0.00000  Uiso   1.00
C567   C     0.29710   0.53426   0.52403   0.00000  Uiso   1.00
H568   H     0.31641   0.52772   0.59700   0.00000  Uiso   1.00
H569   H     0.31244   0.56909   0.93141   0.00000  Uiso   1.00
H570   H     0.01254   0.55036   0.50805   0.00000  Uiso   1.00
C571   C     0.21720   0.50741   0.59781   0.00000  Uiso   1.00
C572   C     0.05453   0.46399   0.92021   0.00000  Uiso   1.00
C573   C     0.04091   0.44302   0.96768   0.00000  Uiso   1.00
C574   C     0.08589   0.45364   0.99780   0.00000  Uiso   1.00
C575   C     0.14342   0.48988   0.98328   0.00000  Uiso   1.00
C576   C     0.15876   0.50955   0.93406   0.00000  Uiso   1.00
C577   C     0.18791   0.50411   0.51537   0.00000  Uiso   1.00
C578   C     0.25088   0.52735   0.99469   0.00000  Uiso   1.00
C579   C     0.26555   0.54720   0.94640   0.00000  Uiso   1.00
C580   C     0.21877   0.54235   0.91835   0.00000  Uiso   1.00
C581   C     0.17014   0.50099   0.56806   0.00000  Uiso   1.00
C582   C     0.28043   0.52175   0.57473   0.00000  Uiso   1.00
C583   C     0.11447   0.49417   0.90163   0.00000  Uiso   1.00
H584   H     0.02004   0.45230   0.89631   0.00000  Uiso   1.00
H585   H     0.07636   0.43099   0.53117   0.00000  Uiso   1.00
H586   H     0.32974   0.41622   0.98020   0.00000  Uiso   1.00
H587   H     0.23100   0.56412   0.88407   0.00000  Uiso   1.00
C588   C     0.19028   0.65601   0.75229   0.00000  Uiso   1.00
H589   H     0.23583   0.34646   0.75658   0.00000  Uiso   1.00
C590   C     0.14304   0.34398   0.74775   0.00000  Uiso   1.00
H591   H     0.09749   0.65354   0.74345   0.00000  Uiso   1.00
N592   N     0.31574   0.51407   0.76416   0.00000  Uiso   1.00
H593   H     0.00399   0.53954   0.78927   0.00000  Uiso   1.00
N594   N     0.01759   0.48593   0.73584   0.00000  Uiso   1.00
H595   H     0.32920   0.46030   0.71092   0.00000  Uiso   1.00
N596   N     0.10819   0.50798   0.59069   0.00000  Uiso   1.00
O597   O     0.06518   0.46916   0.61189   0.00000  Uiso   1.00
O598   O     0.09756   0.55533   0.59522   0.00000  Uiso   1.00
O599   O     0.46131   0.57141   0.74633   0.00000  Uiso   1.00
O600   O     0.56191   0.58089   0.75587   0.00000  Uiso   1.00
C601   C     0.51509   0.60006   0.75153   0.00000  Uiso   1.00
O602   O     0.42515   0.49293   0.81840   0.00000  Uiso   1.00
O603   O     0.52575   0.50241   0.82793   0.00000  Uiso   1.00
C604   C     0.46706   0.49912   0.84683   0.00000  Uiso   1.00
Cu605  Cu    0.44043   0.49439   0.74436   0.00000  Uiso   1.00
Cu606  Cu    0.55957   0.50561   0.75565   0.00000  Uiso   1.00
O607   O     0.43809   0.41911   0.74414   0.00000  Uiso   1.00
O608   O     0.53869   0.42859   0.75367   0.00000  Uiso   1.00
O609   O     0.47425   0.49759   0.67207   0.00000  Uiso   1.00
O610   O     0.57485   0.50707   0.68161   0.00000  Uiso   1.00
C611   C     0.48490   0.39994   0.74849   0.00000  Uiso   1.00
C612   C     0.53303   0.50358   0.65309   0.00000  Uiso   1.00
C613   C     0.63043   0.53426   0.52403   0.00000  Uiso   1.00
H614   H     0.64974   0.52772   0.59700   0.00000  Uiso   1.00
H615   H     0.64577   0.56909   0.93141   0.00000  Uiso   1.00
H616   H     0.34587   0.55036   0.50805   0.00000  Uiso   1.00
C617   C     0.55053   0.50741   0.59781   0.00000  Uiso   1.00
C618   C     0.38786   0.46399   0.92021   0.00000  Uiso   1.00
C619   C     0.37425   0.44302   0.96768   0.00000  Uiso   1.00
C620   C     0.41922   0.45364   0.99780   0.00000  Uiso   1.00
C621   C     0.47675   0.48988   0.98328   0.00000  Uiso   1.00
C622   C     0.49209   0.50955   0.93406   0.00000  Uiso   1.00
C623   C     0.52124   0.50411   0.51537   0.00000  Uiso   1.00
C624   C     0.58421   0.52735   0.99469   0.00000  Uiso   1.00
C625   C     0.59888   0.54720   0.94640   0.00000  Uiso   1.00
C626   C     0.55210   0.54235   0.91835   0.00000  Uiso   1.00
C627   C     0.50348   0.50099   0.56806   0.00000  Uiso   1.00
C628   C     0.61376   0.52175   0.57473   0.00000  Uiso   1.00
C629   C     0.44780   0.49417   0.90163   0.00000  Uiso   1.00
H630   H     0.35338   0.45230   0.89631   0.00000  Uiso   1.00
H631   H     0.40969   0.43099   0.53117   0.00000  Uiso   1.00
H632   H     0.66307   0.41622   0.98020   0.00000  Uiso   1.00
H633   H     0.56433   0.56412   0.88407   0.00000  Uiso   1.00
C634   C     0.52362   0.65601   0.75229   0.00000  Uiso   1.00
H635   H     0.56916   0.34646   0.75658   0.00000  Uiso   1.00
C636   C     0.47637   0.34398   0.74775   0.00000  Uiso   1.00
H637   H     0.43082   0.65354   0.74345   0.00000  Uiso   1.00
N638   N     0.64908   0.51407   0.76416   0.00000  Uiso   1.00
H639   H     0.33733   0.53954   0.78927   0.00000  Uiso   1.00
N640   N     0.35092   0.48593   0.73584   0.00000  Uiso   1.00
H641   H     0.66254   0.46030   0.71092   0.00000  Uiso   1.00
N642   N     0.44153   0.50798   0.59069   0.00000  Uiso   1.00
O643   O     0.39851   0.46916   0.61189   0.00000  Uiso   1.00
O644   O     0.43089   0.55533   0.59522   0.00000  Uiso   1.00
O645   O     0.79464   0.57141   0.74633   0.00000  Uiso   1.00
O646   O     0.89524   0.58089   0.75587   0.00000  Uiso   1.00
C647   C     0.84842   0.60006   0.75153   0.00000  Uiso   1.00
O648   O     0.75848   0.49293   0.81840   0.00000  Uiso   1.00
O649   O     0.85908   0.50241   0.82793   0.00000  Uiso   1.00
C650   C     0.80039   0.49912   0.84683   0.00000  Uiso   1.00
Cu651  Cu    0.77377   0.49439   0.74436   0.00000  Uiso   1.00
Cu652  Cu    0.89290   0.50561   0.75565   0.00000  Uiso   1.00
O653   O     0.77142   0.41911   0.74414   0.00000  Uiso   1.00
O654   O     0.87203   0.42859   0.75367   0.00000  Uiso   1.00
O655   O     0.80758   0.49759   0.67207   0.00000  Uiso   1.00
O656   O     0.90819   0.50707   0.68161   0.00000  Uiso   1.00
C657   C     0.81823   0.39994   0.74849   0.00000  Uiso   1.00
C658   C     0.86636   0.50358   0.65309   0.00000  Uiso   1.00
C659   C     0.96376   0.53426   0.52403   0.00000  Uiso   1.00
H660   H     0.98307   0.52772   0.59700   0.00000  Uiso   1.00
H661   H     0.97911   0.56909   0.93141   0.00000  Uiso   1.00
H662   H     0.67920   0.55036   0.50805   0.00000  Uiso   1.00
C663   C     0.88386   0.50741   0.59781   0.00000  Uiso   1.00
C664   C     0.72119   0.46399   0.92021   0.00000  Uiso   1.00
C665   C     0.70758   0.44302   0.96768   0.00000  Uiso   1.00
C666   C     0.75256   0.45364   0.99780   0.00000  Uiso   1.00
C667   C     0.81009   0.48988   0.98328   0.00000  Uiso   1.00
C668   C     0.82542   0.50955   0.93406   0.00000  Uiso   1.00
C669   C     0.85458   0.50411   0.51537   0.00000  Uiso   1.00
C670   C     0.91754   0.52735   0.99469   0.00000  Uiso   1.00
C671   C     0.93222   0.54720   0.94640   0.00000  Uiso   1.00
C672   C     0.88543   0.54235   0.91835   0.00000  Uiso   1.00
C673   C     0.83681   0.50099   0.56806   0.00000  Uiso   1.00
C674   C     0.94709   0.52175   0.57473   0.00000  Uiso   1.00
C675   C     0.78113   0.49417   0.90163   0.00000  Uiso   1.00
H676   H     0.68671   0.45230   0.89631   0.00000  Uiso   1.00
H677   H     0.74303   0.43099   0.53117   0.00000  Uiso   1.00
H678   H     0.99641   0.41622   0.98020   0.00000  Uiso   1.00
H679   H     0.89767   0.56412   0.88407   0.00000  Uiso   1.00
C680   C     0.85695   0.65601   0.75229   0.00000  Uiso   1.00
H681   H     0.90249   0.34646   0.75658   0.00000  Uiso   1.00
C682   C     0.80970   0.34398   0.74775   0.00000  Uiso   1.00
H683   H     0.76416   0.65354   0.74345   0.00000  Uiso   1.00
N684   N     0.98241   0.51407   0.76416   0.00000  Uiso   1.00
H685   H     0.67066   0.53954   0.78927   0.00000  Uiso   1.00
N686   N     0.68426   0.48593   0.73584   0.00000  Uiso   1.00
H687   H     0.99587   0.46030   0.71092   0.00000  Uiso   1.00
N688   N     0.77486   0.50798   0.59069   0.00000  Uiso   1.00
O689   O     0.73184   0.46916   0.61189   0.00000  Uiso   1.00
O690   O     0.76423   0.55533   0.59522   0.00000  Uiso   1.00
O691   O     0.12797   0.90474   0.74633   0.00000  Uiso   1.00
O692   O     0.22858   0.91422   0.75587   0.00000  Uiso   1.00
C693   C     0.18176   0.93340   0.75153   0.00000  Uiso   1.00
O694   O     0.09181   0.82627   0.81840   0.00000  Uiso   1.00
O695   O     0.19242   0.83575   0.82793   0.00000  Uiso   1.00
C696   C     0.13372   0.83246   0.84683   0.00000  Uiso   1.00
Cu697  Cu    0.10710   0.82772   0.74436   0.00000  Uiso   1.00
Cu698  Cu    0.22623   0.83895   0.75565   0.00000  Uiso   1.00
O699   O     0.10476   0.75245   0.74414   0.00000  Uiso   1.00
O700   O     0.20536   0.76193   0.75367   0.00000  Uiso   1.00
O701   O     0.14092   0.83092   0.67207   0.00000  Uiso   1.00
O702   O     0.24152   0.84040   0.68161   0.00000  Uiso   1.00
C703   C     0.15157   0.73327   0.74849   0.00000  Uiso   1.00
C704   C     0.19970   0.83691   0.65309   0.00000  Uiso   1.00
C705   C     0.29710   0.86759   0.52403   0.00000  Uiso   1.00
H706   H     0.31641   0.86106   0.59700   0.00000  Uiso   1.00
H707   H     0.31244   0.90243   0.93141   0.00000  Uiso   1.00
H708   H     0.01254   0.88370   0.50805   0.00000  Uiso   1.00
C709   C     0.21720   0.84075   0.59781   0.00000  Uiso   1.00
C710   C     0.05453   0.79732   0.92021   0.00000  Uiso   1.00
C711   C     0.04091   0.77635   0.96768   0.00000  Uiso   1.00
C712   C     0.08589   0.78697   0.99780   0.00000  Uiso   1.00
C713   C     0.14342   0.82321   0.98328   0.00000  Uiso   1.00
C714   C     0.15876   0.84288   0.93406   0.00000  Uiso   1.00
C715   C     0.18791   0.83744   0.51537   0.00000  Uiso   1.00
C716   C     0.25088   0.86068   0.99469   0.00000  Uiso   1.00
C717   C     0.26555   0.88053   0.94640   0.00000  Uiso   1.00
C718   C     0.21877   0.87568   0.91835   0.00000  Uiso   1.00
C719   C     0.17014   0.83432   0.56806   0.00000  Uiso   1.00
C720   C     0.28043   0.85508   0.57473   0.00000  Uiso   1.00
C721   C     0.11447   0.82751   0.90163   0.00000  Uiso   1.00
H722   H     0.02004   0.78563   0.89631   0.00000  Uiso   1.00
H723   H     0.07636   0.76433   0.53117   0.00000  Uiso   1.00
H724   H     0.32974   0.74956   0.98020   0.00000  Uiso   1.00
H725   H     0.23100   0.89746   0.88407   0.00000  Uiso   1.00
C726   C     0.19028   0.98935   0.75229   0.00000  Uiso   1.00
H727   H     0.23583   0.67979   0.75658   0.00000  Uiso   1.00
C728   C     0.14304   0.67732   0.74775   0.00000  Uiso   1.00
H729   H     0.09749   0.98687   0.74345   0.00000  Uiso   1.00
N730   N     0.31574   0.84741   0.76416   0.00000  Uiso   1.00
H731   H     0.00399   0.87287   0.78927   0.00000  Uiso   1.00
N732   N     0.01759   0.81926   0.73584   0.00000  Uiso   1.00
H733   H     0.32920   0.79364   0.71092   0.00000  Uiso   1.00
N734   N     0.10819   0.84132   0.59069   0.00000  Uiso   1.00
O735   O     0.06518   0.80250   0.61189   0.00000  Uiso   1.00
O736   O     0.09756   0.88867   0.59522   0.00000  Uiso   1.00
O737   O     0.46131   0.90474   0.74633   0.00000  Uiso   1.00
O738   O     0.56191   0.91422   0.75587   0.00000  Uiso   1.00
C739   C     0.51509   0.93340   0.75153   0.00000  Uiso   1.00
O740   O     0.42515   0.82627   0.81840   0.00000  Uiso   1.00
O741   O     0.52575   0.83575   0.82793   0.00000  Uiso   1.00
C742   C     0.46706   0.83246   0.84683   0.00000  Uiso   1.00
Cu743  Cu    0.44043   0.82772   0.74436   0.00000  Uiso   1.00
Cu744  Cu    0.55957   0.83895   0.75565   0.00000  Uiso   1.00
O745   O     0.43809   0.75245   0.74414   0.00000  Uiso   1.00
O746   O     0.53869   0.76193   0.75367   0.00000  Uiso   1.00
O747   O     0.47425   0.83092   0.67207   0.00000  Uiso   1.00
O748   O     0.57485   0.84040   0.68161   0.00000  Uiso   1.00
C749   C     0.48490   0.73327   0.74849   0.00000  Uiso   1.00
C750   C     0.53303   0.83691   0.65309   0.00000  Uiso   1.00
C751   C     0.63043   0.86759   0.52403   0.00000  Uiso   1.00
H752   H     0.64974   0.86106   0.59700   0.00000  Uiso   1.00
H753   H     0.64577   0.90243   0.93141   0.00000  Uiso   1.00
H754   H     0.34587   0.88370   0.50805   0.00000  Uiso   1.00
C755   C     0.55053   0.84075   0.59781   0.00000  Uiso   1.00
C756   C     0.38786   0.79732   0.92021   0.00000  Uiso   1.00
C757   C     0.37425   0.77635   0.96768   0.00000  Uiso   1.00
C758   C     0.41922   0.78697   0.99780   0.00000  Uiso   1.00
C759   C     0.47675   0.82321   0.98328   0.00000  Uiso   1.00
C760   C     0.49209   0.84288   0.93406   0.00000  Uiso   1.00
C761   C     0.52124   0.83744   0.51537   0.00000  Uiso   1.00
C762   C     0.58421   0.86068   0.99469   0.00000  Uiso   1.00
C763   C     0.59888   0.88053   0.94640   0.00000  Uiso   1.00
C764   C     0.55210   0.87568   0.91835   0.00000  Uiso   1.00
C765   C     0.50348   0.83432   0.56806   0.00000  Uiso   1.00
C766   C     0.61376   0.85508   0.57473   0.00000  Uiso   1.00
C767   C     0.44780   0.82751   0.90163   0.00000  Uiso   1.00
H768   H     0.35338   0.78563   0.89631   0.00000  Uiso   1.00
H769   H     0.40969   0.76433   0.53117   0.00000  Uiso   1.00
H770   H     0.66307   0.74956   0.98020   0.00000  Uiso   1.00
H771   H     0.56433   0.89746   0.88407   0.00000  Uiso   1.00
C772   C     0.52362   0.98935   0.75229   0.00000  Uiso   1.00
H773   H     0.56916   0.67979   0.75658   0.00000  Uiso   1.00
C774   C     0.47637   0.67732   0.74775   0.00000  Uiso   1.00
H775   H     0.43082   0.98687   0.74345   0.00000  Uiso   1.00
N776   N     0.64908   0.84741   0.76416   0.00000  Uiso   1.00
H777   H     0.33733   0.87287   0.78927   0.00000  Uiso   1.00
N778   N     0.35092   0.81926   0.73584   0.00000  Uiso   1.00
H779   H     0.66254   0.79364   0.71092   0.00000  Uiso   1.00
N780   N     0.44153   0.84132   0.59069   0.00000  Uiso   1.00
O781   O     0.39851   0.80250   0.61189   0.00000  Uiso   1.00
O782   O     0.43089   0.88867   0.59522   0.00000  Uiso   1.00
O783   O     0.79464   0.90474   0.74633   0.00000  Uiso   1.00
O784   O     0.89524   0.91422   0.75587   0.00000  Uiso   1.00
C785   C     0.84842   0.93340   0.75153   0.00000  Uiso   1.00
O786   O     0.75848   0.82627   0.81840   0.00000  Uiso   1.00
O787   O     0.85908   0.83575   0.82793   0.00000  Uiso   1.00
C788   C     0.80039   0.83246   0.84683   0.00000  Uiso   1.00
Cu789  Cu    0.77377   0.82772   0.74436   0.00000  Uiso   1.00
Cu790  Cu    0.89290   0.83895   0.75565   0.00000  Uiso   1.00
O791   O     0.77142   0.75245   0.74414   0.00000  Uiso   1.00
O792   O     0.87203   0.76193   0.75367   0.00000  Uiso   1.00
O793   O     0.80758   0.83092   0.67207   0.00000  Uiso   1.00
O794   O     0.90819   0.84040   0.68161   0.00000  Uiso   1.00
C795   C     0.81823   0.73327   0.74849   0.00000  Uiso   1.00
C796   C     0.86636   0.83691   0.65309   0.00000  Uiso   1.00
C797   C     0.96376   0.86759   0.52403   0.00000  Uiso   1.00
H798   H     0.98307   0.86106   0.59700   0.00000  Uiso   1.00
H799   H     0.97911   0.90243   0.93141   0.00000  Uiso   1.00
H800   H     0.67920   0.88370   0.50805   0.00000  Uiso   1.00
C801   C     0.88386   0.84075   0.59781   0.00000  Uiso   1.00
C802   C     0.72119   0.79732   0.92021   0.00000  Uiso   1.00
C803   C     0.70758   0.77635   0.96768   0.00000  Uiso   1.00
C804   C     0.75256   0.78697   0.99780   0.00000  Uiso   1.00
C805   C     0.81009   0.82321   0.98328   0.00000  Uiso   1.00
C806   C     0.82542   0.84288   0.93406   0.00000  Uiso   1.00
C807   C     0.85458   0.83744   0.51537   0.00000  Uiso   1.00
C808   C     0.91754   0.86068   0.99469   0.00000  Uiso   1.00
C809   C     0.93222   0.88053   0.94640   0.00000  Uiso   1.00
C810   C     0.88543   0.87568   0.91835   0.00000  Uiso   1.00
C811   C     0.83681   0.83432   0.56806   0.00000  Uiso   1.00
C812   C     0.94709   0.85508   0.57473   0.00000  Uiso   1.00
C813   C     0.78113   0.82751   0.90163   0.00000  Uiso   1.00
H814   H     0.68671   0.78563   0.89631   0.00000  Uiso   1.00
H815   H     0.74303   0.76433   0.53117   0.00000  Uiso   1.00
H816   H     0.99641   0.74956   0.98020   0.00000  Uiso   1.00
H817   H     0.89767   0.89746   0.88407   0.00000  Uiso   1.00
C818   C     0.85695   0.98935   0.75229   0.00000  Uiso   1.00
H819   H     0.90249   0.67979   0.75658   0.00000  Uiso   1.00
C820   C     0.80970   0.67732   0.74775   0.00000  Uiso   1.00
H821   H     0.76416   0.98687   0.74345   0.00000  Uiso   1.00
N822   N     0.98241   0.84741   0.76416   0.00000  Uiso   1.00
H823   H     0.67066   0.87287   0.78927   0.00000  Uiso   1.00
N824   N     0.68426   0.81926   0.73584   0.00000  Uiso   1.00
H825   H     0.99587   0.79364   0.71092   0.00000  Uiso   1.00
N826   N     0.77486   0.84132   0.59069   0.00000  Uiso   1.00
O827   O     0.73184   0.80250   0.61189   0.00000  Uiso   1.00
O828   O     0.76423   0.88867   0.59522   0.00000  Uiso   1.00
loop_
_geom_bond_atom_site_label_1
_geom_bond_atom_site_label_2
_geom_bond_distance
_geom_bond_site_symmetry_2
_ccdc_geom_bond_type
O1     Cu7     1.955   .     S
O1     C3      1.291   .     A
O2     C3      1.284   .     A
O2     Cu8     1.950   .     S
C3     C36     1.427   .     S
O4     Cu7     1.969   .     S
O4     C6      1.305   .     A
O5     Cu8     1.952   .     S
O5     C6      1.290   .     A
C6     C31     1.467   .     S
Cu7    Cu8     2.685   .     S
Cu7    O11     1.952   .     S
Cu7    N42     2.018   .     S
Cu7    O9      1.950   .     S
Cu8    O12     1.969   .     S
Cu8    N40     2.018   .     S
Cu8    O10     1.955   .     S
O9     C13     1.284   .     A
O10    C13     1.291   .     A
O11    C14     1.285   .     A
O12    C14     1.313   .     A
C13    C38     1.427   .     S
C14    C19     1.475   .     S
C15    C30     1.392   .     A
C15    H64     1.084   .     S
C15    C440    1.400   1_554 S
H16    C30     1.078   .     S
H17    C27     1.084   .     S
H18    C107    1.084   1_455 S
C19    C30     1.398   .     A
C19    C29     1.424   .     A
C20    C21     1.385   .     A
C20    H32     1.083   .     S
C20    C31     1.403   .     A
C21    C22     1.388   .     A
C21    H126    1.083   1_455 S
C22    C23     1.412   .     A
C22    H447    1.076   .     S
C23    C24     1.414   .     A
C23    C439    1.421   .     S
C24    C31     1.427   .     A
C24    C28     1.417   .     A
C25    C29     1.406   .     A
C25    C437    1.421   1_554 S
C25    C440    1.413   1_554 S
C26    C27     1.393   .     A
C26    C439    1.413   .     S
C26    C429    1.400   .     S
C27    C28     1.391   .     A
C28    H35     1.080   .     S
C29    N44     1.438   .     S
H33    C436    1.076   1_554 S
H34    C67     1.083   .     S
C36    H175    1.088   .     S
C36    C176    1.327   .     S
H37    C312    1.088   1_545 S
C38    C312    1.327   1_545 S
C38    H315    1.088   1_545 S
H39    C176    1.088   .     S
N40    H87     1.029   .     S
N40    N88     1.293   .     S
H41    N132    1.029   1_455 S
N42    N132    1.293   1_455 S
N42    H135    1.029   1_455 S
H43    N88     1.029   .     S
N44    O45     1.303   .     A
N44    O46     1.301   .     A
O47    Cu53    1.955   .     S
O47    C49     1.291   .     A
O48    C49     1.284   .     A
O48    Cu54    1.950   .     S
C49    C82     1.427   .     S
O50    Cu53    1.969   .     S
O50    C52     1.305   .     A
O51    Cu54    1.952   .     S
O51    C52     1.290   .     A
C52    C77     1.467   .     S
Cu53   Cu54    2.685   .     S
Cu53   O57     1.952   .     S
Cu53   N88     2.018   .     S
Cu53   O55     1.950   .     S
Cu54   O58     1.969   .     S
Cu54   N86     2.018   .     S
Cu54   O56     1.955   .     S
O55    C59     1.284   .     A
O56    C59     1.291   .     A
O57    C60     1.285   .     A
O58    C60     1.313   .     A
C59    C84     1.427   .     S
C60    C65     1.475   .     S
C61    C76     1.392   .     A
C61    H110    1.084   .     S
C61    C486    1.400   1_554 S
H62    C76     1.078   .     S
H63    C73     1.084   .     S
C65    C76     1.398   .     A
C65    C75     1.424   .     A
C66    C67     1.385   .     A
C66    H78     1.083   .     S
C66    C77     1.403   .     A
C67    C68     1.388   .     A
C68    C69     1.412   .     A
C68    H493    1.076   .     S
C69    C70     1.414   .     A
C69    C485    1.421   .     S
C70    C77     1.427   .     A
C70    C74     1.417   .     A
C71    C75     1.406   .     A
C71    C483    1.421   1_554 S
C71    C486    1.413   1_554 S
C72    C73     1.393   .     A
C72    C485    1.413   .     S
C72    C475    1.400   .     S
C73    C74     1.391   .     A
C74    H81     1.080   .     S
C75    N90     1.438   .     S
H79    C482    1.076   1_554 S
H80    C113    1.083   .     S
C82    H221    1.088   .     S
C82    C222    1.327   .     S
H83    C358    1.088   1_545 S
C84    C358    1.327   1_545 S
C84    H361    1.088   1_545 S
H85    C222    1.088   .     S
N86    H133    1.029   .     S
N86    N134    1.293   .     S
H89    N134    1.029   .     S
N90    O91     1.303   .     A
N90    O92     1.301   .     A
O93    Cu99    1.955   .     S
O93    C95     1.291   .     A
O94    C95     1.284   .     A
O94    Cu100   1.950   .     S
C95    C128    1.427   .     S
O96    Cu99    1.969   .     S
O96    C98     1.305   .     A
O97    Cu100   1.952   .     S
O97    C98     1.290   .     A
C98    C123    1.467   .     S
Cu99   Cu100   2.685   .     S
Cu99   O103    1.952   .     S
Cu99   N134    2.018   .     S
Cu99   O101    1.950   .     S
Cu100  O104    1.969   .     S
Cu100  N132    2.018   .     S
Cu100  O102    1.955   .     S
O101   C105    1.284   .     A
O102   C105    1.291   .     A
O103   C106    1.285   .     A
O104   C106    1.313   .     A
C105   C130    1.427   .     S
C106   C111    1.475   .     S
C107   C122    1.392   .     A
C107   H18     1.084   1_655 S
C107   C532    1.400   1_554 S
H108   C122    1.078   .     S
H109   C119    1.084   .     S
C111   C122    1.398   .     A
C111   C121    1.424   .     A
C112   C113    1.385   .     A
C112   H124    1.083   .     S
C112   C123    1.403   .     A
C113   C114    1.388   .     A
C114   C115    1.412   .     A
C114   H539    1.076   .     S
C115   C116    1.414   .     A
C115   C531    1.421   .     S
C116   C123    1.427   .     A
C116   C120    1.417   .     A
C117   C121    1.406   .     A
C117   C529    1.421   1_554 S
C117   C532    1.413   1_554 S
C118   C119    1.393   .     A
C118   C531    1.413   .     S
C118   C521    1.400   .     S
C119   C120    1.391   .     A
C120   H127    1.080   .     S
C121   N136    1.438   .     S
H125   C528    1.076   1_554 S
H126   C21     1.083   1_655 S
C128   H267    1.088   .     S
C128   C268    1.327   .     S
H129   C404    1.088   1_545 S
C130   C404    1.327   1_545 S
C130   H407    1.088   1_545 S
H131   C268    1.088   .     S
N132   H41     1.029   1_655 S
N132   N42     1.293   1_655 S
H135   N42     1.029   1_655 S
N136   O137    1.303   .     A
N136   O138    1.301   .     A
O139   Cu145   1.955   .     S
O139   C141    1.291   .     A
O140   C141    1.284   .     A
O140   Cu146   1.950   .     S
C141   C174    1.427   .     S
O142   Cu145   1.969   .     S
O142   C144    1.305   .     A
O143   Cu146   1.952   .     S
O143   C144    1.290   .     A
C144   C169    1.467   .     S
Cu145  Cu146   2.685   .     S
Cu145  O149    1.952   .     S
Cu145  N180    2.018   .     S
Cu145  O147    1.950   .     S
Cu146  O150    1.969   .     S
Cu146  N178    2.018   .     S
Cu146  O148    1.955   .     S
O147   C151    1.284   .     A
O148   C151    1.291   .     A
O149   C152    1.285   .     A
O150   C152    1.313   .     A
C151   C176    1.427   .     S
C152   C157    1.475   .     S
C153   C168    1.392   .     A
C153   H202    1.084   .     S
C153   C578    1.400   1_554 S
H154   C168    1.078   .     S
H155   C165    1.084   .     S
H156   C245    1.084   1_455 S
C157   C168    1.398   .     A
C157   C167    1.424   .     A
C158   C159    1.385   .     A
C158   H170    1.083   .     S
C158   C169    1.403   .     A
C159   C160    1.388   .     A
C159   H264    1.083   1_455 S
C160   C161    1.412   .     A
C160   H585    1.076   .     S
C161   C162    1.414   .     A
C161   C577    1.421   .     S
C162   C169    1.427   .     A
C162   C166    1.417   .     A
C163   C167    1.406   .     A
C163   C575    1.421   1_554 S
C163   C578    1.413   1_554 S
C164   C165    1.393   .     A
C164   C577    1.413   .     S
C164   C567    1.400   .     S
C165   C166    1.391   .     A
C166   H173    1.080   .     S
C167   N182    1.438   .     S
H171   C574    1.076   1_554 S
H172   C205    1.083   .     S
C174   H313    1.088   .     S
C174   C314    1.327   .     S
H177   C314    1.088   .     S
N178   H225    1.029   .     S
N178   N226    1.293   .     S
H179   N270    1.029   1_455 S
N180   N270    1.293   1_455 S
N180   H273    1.029   1_455 S
H181   N226    1.029   .     S
N182   O183    1.303   .     A
N182   O184    1.301   .     A
O185   Cu191   1.955   .     S
O185   C187    1.291   .     A
O186   C187    1.284   .     A
O186   Cu192   1.950   .     S
C187   C220    1.427   .     S
O188   Cu191   1.969   .     S
O188   C190    1.305   .     A
O189   Cu192   1.952   .     S
O189   C190    1.290   .     A
C190   C215    1.467   .     S
Cu191  Cu192   2.685   .     S
Cu191  O195    1.952   .     S
Cu191  N226    2.018   .     S
Cu191  O193    1.950   .     S
Cu192  O196    1.969   .     S
Cu192  N224    2.018   .     S
Cu192  O194    1.955   .     S
O193   C197    1.284   .     A
O194   C197    1.291   .     A
O195   C198    1.285   .     A
O196   C198    1.313   .     A
C197   C222    1.427   .     S
C198   C203    1.475   .     S
C199   C214    1.392   .     A
C199   H248    1.084   .     S
C199   C624    1.400   1_554 S
H200   C214    1.078   .     S
H201   C211    1.084   .     S
C203   C214    1.398   .     A
C203   C213    1.424   .     A
C204   C205    1.385   .     A
C204   H216    1.083   .     S
C204   C215    1.403   .     A
C205   C206    1.388   .     A
C206   C207    1.412   .     A
C206   H631    1.076   .     S
C207   C208    1.414   .     A
C207   C623    1.421   .     S
C208   C215    1.427   .     A
C208   C212    1.417   .     A
C209   C213    1.406   .     A
C209   C621    1.421   1_554 S
C209   C624    1.413   1_554 S
C210   C211    1.393   .     A
C210   C623    1.413   .     S
C210   C613    1.400   .     S
C211   C212    1.391   .     A
C212   H219    1.080   .     S
C213   N228    1.438   .     S
H217   C620    1.076   1_554 S
H218   C251    1.083   .     S
C220   H359    1.088   .     S
C220   C360    1.327   .     S
H223   C360    1.088   .     S
N224   H271    1.029   .     S
N224   N272    1.293   .     S
H227   N272    1.029   .     S
N228   O229    1.303   .     A
N228   O230    1.301   .     A
O231   Cu237   1.955   .     S
O231   C233    1.291   .     A
O232   C233    1.284   .     A
O232   Cu238   1.950   .     S
C233   C266    1.427   .     S
O234   Cu237   1.969   .     S
O234   C236    1.305   .     A
O235   Cu238   1.952   .     S
O235   C236    1.290   .     A
C236   C261    1.467   .     S
Cu237  Cu238   2.685   .     S
Cu237  O241    1.952   .     S
Cu237  N272    2.018   .     S
Cu237  O239    1.950   .     S
Cu238  O242    1.969   .     S
Cu238  N270    2.018   .     S
Cu238  O240    1.955   .     S
O239   C243    1.284   .     A
O240   C243    1.291   .     A
O241   C244    1.285   .     A
O242   C244    1.313   .     A
C243   C268    1.427   .     S
C244   C249    1.475   .     S
C245   C260    1.392   .     A
C245   H156    1.084   1_655 S
C245   C670    1.400   1_554 S
H246   C260    1.078   .     S
H247   C257    1.084   .     S
C249   C260    1.398   .     A
C249   C259    1.424   .     A
C250   C251    1.385   .     A
C250   H262    1.083   .     S
C250   C261    1.403   .     A
C251   C252    1.388   .     A
C252   C253    1.412   .     A
C252   H677    1.076   .     S
C253   C254    1.414   .     A
C253   C669    1.421   .     S
C254   C261    1.427   .     A
C254   C258    1.417   .     A
C255   C259    1.406   .     A
C255   C667    1.421   1_554 S
C255   C670    1.413   1_554 S
C256   C257    1.393   .     A
C256   C669    1.413   .     S
C256   C659    1.400   .     S
C257   C258    1.391   .     A
C258   H265    1.080   .     S
C259   N274    1.438   .     S
H263   C666    1.076   1_554 S
H264   C159    1.083   1_655 S
C266   H405    1.088   .     S
C266   C406    1.327   .     S
H269   C406    1.088   .     S
N270   H179    1.029   1_655 S
N270   N180    1.293   1_655 S
H273   N180    1.029   1_655 S
N274   O275    1.303   .     A
N274   O276    1.301   .     A
O277   Cu283   1.955   .     S
O277   C279    1.291   .     A
O278   C279    1.284   .     A
O278   Cu284   1.950   .     S
C279   C312    1.427   .     S
O280   Cu283   1.969   .     S
O280   C282    1.305   .     A
O281   Cu284   1.952   .     S
O281   C282    1.290   .     A
C282   C307    1.467   .     S
Cu283  Cu284   2.685   .     S
Cu283  O287    1.952   .     S
Cu283  N318    2.018   .     S
Cu283  O285    1.950   .     S
Cu284  O288    1.969   .     S
Cu284  N316    2.018   .     S
Cu284  O286    1.955   .     S
O285   C289    1.284   .     A
O286   C289    1.291   .     A
O287   C290    1.285   .     A
O288   C290    1.313   .     A
C289   C314    1.427   .     S
C290   C295    1.475   .     S
C291   C306    1.392   .     A
C291   H340    1.084   .     S
C291   C716    1.400   1_554 S
H292   C306    1.078   .     S
H293   C303    1.084   .     S
H294   C383    1.084   1_455 S
C295   C306    1.398   .     A
C295   C305    1.424   .     A
C296   C297    1.385   .     A
C296   H308    1.083   .     S
C296   C307    1.403   .     A
C297   C298    1.388   .     A
C297   H402    1.083   1_455 S
C298   C299    1.412   .     A
C298   H723    1.076   .     S
C299   C300    1.414   .     A
C299   C715    1.421   .     S
C300   C307    1.427   .     A
C300   C304    1.417   .     A
C301   C305    1.406   .     A
C301   C713    1.421   1_554 S
C301   C716    1.413   1_554 S
C302   C303    1.393   .     A
C302   C715    1.413   .     S
C302   C705    1.400   .     S
C303   C304    1.391   .     A
C304   H311    1.080   .     S
C305   N320    1.438   .     S
H309   C712    1.076   1_554 S
H310   C343    1.083   .     S
C312   H37     1.088   1_565 S
C312   C38     1.327   1_565 S
H315   C38     1.088   1_565 S
N316   H363    1.029   .     S
N316   N364    1.293   .     S
H317   N408    1.029   1_455 S
N318   N408    1.293   1_455 S
N318   H411    1.029   1_455 S
H319   N364    1.029   .     S
N320   O321    1.303   .     A
N320   O322    1.301   .     A
O323   Cu329   1.955   .     S
O323   C325    1.291   .     A
O324   C325    1.284   .     A
O324   Cu330   1.950   .     S
C325   C358    1.427   .     S
O326   Cu329   1.969   .     S
O326   C328    1.305   .     A
O327   Cu330   1.952   .     S
O327   C328    1.290   .     A
C328   C353    1.467   .     S
Cu329  Cu330   2.685   .     S
Cu329  O333    1.952   .     S
Cu329  N364    2.018   .     S
Cu329  O331    1.950   .     S
Cu330  O334    1.969   .     S
Cu330  N362    2.018   .     S
Cu330  O332    1.955   .     S
O331   C335    1.284   .     A
O332   C335    1.291   .     A
O333   C336    1.285   .     A
O334   C336    1.313   .     A
C335   C360    1.427   .     S
C336   C341    1.475   .     S
C337   C352    1.392   .     A
C337   H386    1.084   .     S
C337   C762    1.400   1_554 S
H338   C352    1.078   .     S
H339   C349    1.084   .     S
C341   C352    1.398   .     A
C341   C351    1.424   .     A
C342   C343    1.385   .     A
C342   H354    1.083   .     S
C342   C353    1.403   .     A
C343   C344    1.388   .     A
C344   C345    1.412   .     A
C344   H769    1.076   .     S
C345   C346    1.414   .     A
C345   C761    1.421   .     S
C346   C353    1.427   .     A
C346   C350    1.417   .     A
C347   C351    1.406   .     A
C347   C759    1.421   1_554 S
C347   C762    1.413   1_554 S
C348   C349    1.393   .     A
C348   C761    1.413   .     S
C348   C751    1.400   .     S
C349   C350    1.391   .     A
C350   H357    1.080   .     S
C351   N366    1.438   .     S
H355   C758    1.076   1_554 S
H356   C389    1.083   .     S
C358   H83     1.088   1_565 S
C358   C84     1.327   1_565 S
H361   C84     1.088   1_565 S
N362   H409    1.029   .     S
N362   N410    1.293   .     S
H365   N410    1.029   .     S
N366   O367    1.303   .     A
N366   O368    1.301   .     A
O369   Cu375   1.955   .     S
O369   C371    1.291   .     A
O370   C371    1.284   .     A
O370   Cu376   1.950   .     S
C371   C404    1.427   .     S
O372   Cu375   1.969   .     S
O372   C374    1.305   .     A
O373   Cu376   1.952   .     S
O373   C374    1.290   .     A
C374   C399    1.467   .     S
Cu375  Cu376   2.685   .     S
Cu375  O379    1.952   .     S
Cu375  N410    2.018   .     S
Cu375  O377    1.950   .     S
Cu376  O380    1.969   .     S
Cu376  N408    2.018   .     S
Cu376  O378    1.955   .     S
O377   C381    1.284   .     A
O378   C381    1.291   .     A
O379   C382    1.285   .     A
O380   C382    1.313   .     A
C381   C406    1.427   .     S
C382   C387    1.475   .     S
C383   C398    1.392   .     A
C383   H294    1.084   1_655 S
C383   C808    1.400   1_554 S
H384   C398    1.078   .     S
H385   C395    1.084   .     S
C387   C398    1.398   .     A
C387   C397    1.424   .     A
C388   C389    1.385   .     A
C388   H400    1.083   .     S
C388   C399    1.403   .     A
C389   C390    1.388   .     A
C390   C391    1.412   .     A
C390   H815    1.076   .     S
C391   C392    1.414   .     A
C391   C807    1.421   .     S
C392   C399    1.427   .     A
C392   C396    1.417   .     A
C393   C397    1.406   .     A
C393   C805    1.421   1_554 S
C393   C808    1.413   1_554 S
C394   C395    1.393   .     A
C394   C807    1.413   .     S
C394   C797    1.400   .     S
C395   C396    1.391   .     A
C396   H403    1.080   .     S
C397   N412    1.438   .     S
H401   C804    1.076   1_554 S
H402   C297    1.083   1_655 S
C404   H129    1.088   1_565 S
C404   C130    1.327   1_565 S
H407   C130    1.088   1_565 S
N408   H317    1.029   1_655 S
N408   N318    1.293   1_655 S
H411   N318    1.029   1_655 S
N412   O413    1.303   .     A
N412   O414    1.301   .     A
O415   Cu421   1.955   .     S
O415   C417    1.291   .     A
O416   C417    1.284   .     A
O416   Cu422   1.950   .     S
C417   C450    1.427   .     S
O418   Cu421   1.969   .     S
O418   C420    1.305   .     A
O419   Cu422   1.952   .     S
O419   C420    1.290   .     A
C420   C445    1.467   .     S
Cu421  Cu422   2.685   .     S
Cu421  O425    1.952   .     S
Cu421  N456    2.018   .     S
Cu421  O423    1.950   .     S
Cu422  O426    1.969   .     S
Cu422  N454    2.018   .     S
Cu422  O424    1.955   .     S
O423   C427    1.284   .     A
O424   C427    1.291   .     A
O425   C428    1.285   .     A
O426   C428    1.313   .     A
C427   C452    1.427   .     S
C428   C433    1.475   .     S
C429   C444    1.392   .     A
C429   H478    1.084   .     S
H430   C444    1.078   .     S
H431   C441    1.084   .     S
H432   C521    1.084   1_455 S
C433   C444    1.398   .     A
C433   C443    1.424   .     A
C434   C435    1.385   .     A
C434   H446    1.083   .     S
C434   C445    1.403   .     A
C435   C436    1.388   .     A
C435   H540    1.083   1_455 S
C436   C437    1.412   .     A
C436   H33     1.076   1_556 S
C437   C438    1.414   .     A
C437   C25     1.421   1_556 S
C438   C445    1.427   .     A
C438   C442    1.417   .     A
C439   C443    1.406   .     A
C440   C441    1.393   .     A
C440   C25     1.413   1_556 S
C440   C15     1.400   1_556 S
C441   C442    1.391   .     A
C442   H449    1.080   .     S
C443   N458    1.438   .     S
H448   C481    1.083   .     S
C450   H589    1.088   .     S
C450   C590    1.327   .     S
H451   C726    1.088   1_545 S
C452   C726    1.327   1_545 S
C452   H729    1.088   1_545 S
H453   C590    1.088   .     S
N454   H501    1.029   .     S
N454   N502    1.293   .     S
H455   N546    1.029   1_455 S
N456   N546    1.293   1_455 S
N456   H549    1.029   1_455 S
H457   N502    1.029   .     S
N458   O459    1.303   .     A
N458   O460    1.301   .     A
O461   Cu467   1.955   .     S
O461   C463    1.291   .     A
O462   C463    1.284   .     A
O462   Cu468   1.950   .     S
C463   C496    1.427   .     S
O464   Cu467   1.969   .     S
O464   C466    1.305   .     A
O465   Cu468   1.952   .     S
O465   C466    1.290   .     A
C466   C491    1.467   .     S
Cu467  Cu468   2.685   .     S
Cu467  O471    1.952   .     S
Cu467  N502    2.018   .     S
Cu467  O469    1.950   .     S
Cu468  O472    1.969   .     S
Cu468  N500    2.018   .     S
Cu468  O470    1.955   .     S
O469   C473    1.284   .     A
O470   C473    1.291   .     A
O471   C474    1.285   .     A
O472   C474    1.313   .     A
C473   C498    1.427   .     S
C474   C479    1.475   .     S
C475   C490    1.392   .     A
C475   H524    1.084   .     S
H476   C490    1.078   .     S
H477   C487    1.084   .     S
C479   C490    1.398   .     A
C479   C489    1.424   .     A
C480   C481    1.385   .     A
C480   H492    1.083   .     S
C480   C491    1.403   .     A
C481   C482    1.388   .     A
C482   C483    1.412   .     A
C482   H79     1.076   1_556 S
C483   C484    1.414   .     A
C483   C71     1.421   1_556 S
C484   C491    1.427   .     A
C484   C488    1.417   .     A
C485   C489    1.406   .     A
C486   C487    1.393   .     A
C486   C71     1.413   1_556 S
C486   C61     1.400   1_556 S
C487   C488    1.391   .     A
C488   H495    1.080   .     S
C489   N504    1.438   .     S
H494   C527    1.083   .     S
C496   H635    1.088   .     S
C496   C636    1.327   .     S
H497   C772    1.088   1_545 S
C498   C772    1.327   1_545 S
C498   H775    1.088   1_545 S
H499   C636    1.088   .     S
N500   H547    1.029   .     S
N500   N548    1.293   .     S
H503   N548    1.029   .     S
N504   O505    1.303   .     A
N504   O506    1.301   .     A
O507   Cu513   1.955   .     S
O507   C509    1.291   .     A
O508   C509    1.284   .     A
O508   Cu514   1.950   .     S
C509   C542    1.427   .     S
O510   Cu513   1.969   .     S
O510   C512    1.305   .     A
O511   Cu514   1.952   .     S
O511   C512    1.290   .     A
C512   C537    1.467   .     S
Cu513  Cu514   2.685   .     S
Cu513  O517    1.952   .     S
Cu513  N548    2.018   .     S
Cu513  O515    1.950   .     S
Cu514  O518    1.969   .     S
Cu514  N546    2.018   .     S
Cu514  O516    1.955   .     S
O515   C519    1.284   .     A
O516   C519    1.291   .     A
O517   C520    1.285   .     A
O518   C520    1.313   .     A
C519   C544    1.427   .     S
C520   C525    1.475   .     S
C521   C536    1.392   .     A
C521   H432    1.084   1_655 S
H522   C536    1.078   .     S
H523   C533    1.084   .     S
C525   C536    1.398   .     A
C525   C535    1.424   .     A
C526   C527    1.385   .     A
C526   H538    1.083   .     S
C526   C537    1.403   .     A
C527   C528    1.388   .     A
C528   C529    1.412   .     A
C528   H125    1.076   1_556 S
C529   C530    1.414   .     A
C529   C117    1.421   1_556 S
C530   C537    1.427   .     A
C530   C534    1.417   .     A
C531   C535    1.406   .     A
C532   C533    1.393   .     A
C532   C117    1.413   1_556 S
C532   C107    1.400   1_556 S
C533   C534    1.391   .     A
C534   H541    1.080   .     S
C535   N550    1.438   .     S
H540   C435    1.083   1_655 S
C542   H681    1.088   .     S
C542   C682    1.327   .     S
H543   C818    1.088   1_545 S
C544   C818    1.327   1_545 S
C544   H821    1.088   1_545 S
H545   C682    1.088   .     S
N546   H455    1.029   1_655 S
N546   N456    1.293   1_655 S
H549   N456    1.029   1_655 S
N550   O551    1.303   .     A
N550   O552    1.301   .     A
O553   Cu559   1.955   .     S
O553   C555    1.291   .     A
O554   C555    1.284   .     A
O554   Cu560   1.950   .     S
C555   C588    1.427   .     S
O556   Cu559   1.969   .     S
O556   C558    1.305   .     A
O557   Cu560   1.952   .     S
O557   C558    1.290   .     A
C558   C583    1.467   .     S
Cu559  Cu560   2.685   .     S
Cu559  O563    1.952   .     S
Cu559  N594    2.018   .     S
Cu559  O561    1.950   .     S
Cu560  O564    1.969   .     S
Cu560  N592    2.018   .     S
Cu560  O562    1.955   .     S
O561   C565    1.284   .     A
O562   C565    1.291   .     A
O563   C566    1.285   .     A
O564   C566    1.313   .     A
C565   C590    1.427   .     S
C566   C571    1.475   .     S
C567   C582    1.392   .     A
C567   H616    1.084   .     S
H568   C582    1.078   .     S
H569   C579    1.084   .     S
H570   C659    1.084   1_455 S
C571   C582    1.398   .     A
C571   C581    1.424   .     A
C572   C573    1.385   .     A
C572   H584    1.083   .     S
C572   C583    1.403   .     A
C573   C574    1.388   .     A
C573   H678    1.083   1_455 S
C574   C575    1.412   .     A
C574   H171    1.076   1_556 S
C575   C576    1.414   .     A
C575   C163    1.421   1_556 S
C576   C583    1.427   .     A
C576   C580    1.417   .     A
C577   C581    1.406   .     A
C578   C579    1.393   .     A
C578   C163    1.413   1_556 S
C578   C153    1.400   1_556 S
C579   C580    1.391   .     A
C580   H587    1.080   .     S
C581   N596    1.438   .     S
H586   C619    1.083   .     S
C588   H727    1.088   .     S
C588   C728    1.327   .     S
H591   C728    1.088   .     S
N592   H639    1.029   .     S
N592   N640    1.293   .     S
H593   N684    1.029   1_455 S
N594   N684    1.293   1_455 S
N594   H687    1.029   1_455 S
H595   N640    1.029   .     S
N596   O597    1.303   .     A
N596   O598    1.301   .     A
O599   Cu605   1.955   .     S
O599   C601    1.291   .     A
O600   C601    1.284   .     A
O600   Cu606   1.950   .     S
C601   C634    1.427   .     S
O602   Cu605   1.969   .     S
O602   C604    1.305   .     A
O603   Cu606   1.952   .     S
O603   C604    1.290   .     A
C604   C629    1.467   .     S
Cu605  Cu606   2.685   .     S
Cu605  O609    1.952   .     S
Cu605  N640    2.018   .     S
Cu605  O607    1.950   .     S
Cu606  O610    1.969   .     S
Cu606  N638    2.018   .     S
Cu606  O608    1.955   .     S
O607   C611    1.284   .     A
O608   C611    1.291   .     A
O609   C612    1.285   .     A
O610   C612    1.313   .     A
C611   C636    1.427   .     S
C612   C617    1.475   .     S
C613   C628    1.392   .     A
C613   H662    1.084   .     S
H614   C628    1.078   .     S
H615   C625    1.084   .     S
C617   C628    1.398   .     A
C617   C627    1.424   .     A
C618   C619    1.385   .     A
C618   H630    1.083   .     S
C618   C629    1.403   .     A
C619   C620    1.388   .     A
C620   C621    1.412   .     A
C620   H217    1.076   1_556 S
C621   C622    1.414   .     A
C621   C209    1.421   1_556 S
C622   C629    1.427   .     A
C622   C626    1.417   .     A
C623   C627    1.406   .     A
C624   C625    1.393   .     A
C624   C209    1.413   1_556 S
C624   C199    1.400   1_556 S
C625   C626    1.391   .     A
C626   H633    1.080   .     S
C627   N642    1.438   .     S
H632   C665    1.083   .     S
C634   H773    1.088   .     S
C634   C774    1.327   .     S
H637   C774    1.088   .     S
N638   H685    1.029   .     S
N638   N686    1.293   .     S
H641   N686    1.029   .     S
N642   O643    1.303   .     A
N642   O644    1.301   .     A
O645   Cu651   1.955   .     S
O645   C647    1.291   .     A
O646   C647    1.284   .     A
O646   Cu652   1.950   .     S
C647   C680    1.427   .     S
O648   Cu651   1.969   .     S
O648   C650    1.305   .     A
O649   Cu652   1.952   .     S
O649   C650    1.290   .     A
C650   C675    1.467   .     S
Cu651  Cu652   2.685   .     S
Cu651  O655    1.952   .     S
Cu651  N686    2.018   .     S
Cu651  O653    1.950   .     S
Cu652  O656    1.969   .     S
Cu652  N684    2.018   .     S
Cu652  O654    1.955   .     S
O653   C657    1.284   .     A
O654   C657    1.291   .     A
O655   C658    1.285   .     A
O656   C658    1.313   .     A
C657   C682    1.427   .     S
C658   C663    1.475   .     S
C659   C674    1.392   .     A
C659   H570    1.084   1_655 S
H660   C674    1.078   .     S
H661   C671    1.084   .     S
C663   C674    1.398   .     A
C663   C673    1.424   .     A
C664   C665    1.385   .     A
C664   H676    1.083   .     S
C664   C675    1.403   .     A
C665   C666    1.388   .     A
C666   C667    1.412   .     A
C666   H263    1.076   1_556 S
C667   C668    1.414   .     A
C667   C255    1.421   1_556 S
C668   C675    1.427   .     A
C668   C672    1.417   .     A
C669   C673    1.406   .     A
C670   C671    1.393   .     A
C670   C255    1.413   1_556 S
C670   C245    1.400   1_556 S
C671   C672    1.391   .     A
C672   H679    1.080   .     S
C673   N688    1.438   .     S
H678   C573    1.083   1_655 S
C680   H819    1.088   .     S
C680   C820    1.327   .     S
H683   C820    1.088   .     S
N684   H593    1.029   1_655 S
N684   N594    1.293   1_655 S
H687   N594    1.029   1_655 S
N688   O689    1.303   .     A
N688   O690    1.301   .     A
O691   Cu697   1.955   .     S
O691   C693    1.291   .     A
O692   C693    1.284   .     A
O692   Cu698   1.950   .     S
C693   C726    1.427   .     S
O694   Cu697   1.969   .     S
O694   C696    1.305   .     A
O695   Cu698   1.952   .     S
O695   C696    1.290   .     A
C696   C721    1.467   .     S
Cu697  Cu698   2.685   .     S
Cu697  O701    1.952   .     S
Cu697  N732    2.018   .     S
Cu697  O699    1.950   .     S
Cu698  O702    1.969   .     S
Cu698  N730    2.018   .     S
Cu698  O700    1.955   .     S
O699   C703    1.284   .     A
O700   C703    1.291   .     A
O701   C704    1.285   .     A
O702   C704    1.313   .     A
C703   C728    1.427   .     S
C704   C709    1.475   .     S
C705   C720    1.392   .     A
C705   H754    1.084   .     S
H706   C720    1.078   .     S
H707   C717    1.084   .     S
H708   C797    1.084   1_455 S
C709   C720    1.398   .     A
C709   C719    1.424   .     A
C710   C711    1.385   .     A
C710   H722    1.083   .     S
C710   C721    1.403   .     A
C711   C712    1.388   .     A
C711   H816    1.083   1_455 S
C712   C713    1.412   .     A
C712   H309    1.076   1_556 S
C713   C714    1.414   .     A
C713   C301    1.421   1_556 S
C714   C721    1.427   .     A
C714   C718    1.417   .     A
C715   C719    1.406   .     A
C716   C717    1.393   .     A
C716   C301    1.413   1_556 S
C716   C291    1.400   1_556 S
C717   C718    1.391   .     A
C718   H725    1.080   .     S
C719   N734    1.438   .     S
H724   C757    1.083   .     S
C726   H451    1.088   1_565 S
C726   C452    1.327   1_565 S
H729   C452    1.088   1_565 S
N730   H777    1.029   .     S
N730   N778    1.293   .     S
H731   N822    1.029   1_455 S
N732   N822    1.293   1_455 S
N732   H825    1.029   1_455 S
H733   N778    1.029   .     S
N734   O735    1.303   .     A
N734   O736    1.301   .     A
O737   Cu743   1.955   .     S
O737   C739    1.291   .     A
O738   C739    1.284   .     A
O738   Cu744   1.950   .     S
C739   C772    1.427   .     S
O740   Cu743   1.969   .     S
O740   C742    1.305   .     A
O741   Cu744   1.952   .     S
O741   C742    1.290   .     A
C742   C767    1.467   .     S
Cu743  Cu744   2.685   .     S
Cu743  O747    1.952   .     S
Cu743  N778    2.018   .     S
Cu743  O745    1.950   .     S
Cu744  O748    1.969   .     S
Cu744  N776    2.018   .     S
Cu744  O746    1.955   .     S
O745   C749    1.284   .     A
O746   C749    1.291   .     A
O747   C750    1.285   .     A
O748   C750    1.313   .     A
C749   C774    1.427   .     S
C750   C755    1.475   .     S
C751   C766    1.392   .     A
C751   H800    1.084   .     S
H752   C766    1.078   .     S
H753   C763    1.084   .     S
C755   C766    1.398   .     A
C755   C765    1.424   .     A
C756   C757    1.385   .     A
C756   H768    1.083   .     S
C756   C767    1.403   .     A
C757   C758    1.388   .     A
C758   C759    1.412   .     A
C758   H355    1.076   1_556 S
C759   C760    1.414   .     A
C759   C347    1.421   1_556 S
C760   C767    1.427   .     A
C760   C764    1.417   .     A
C761   C765    1.406   .     A
C762   C763    1.393   .     A
C762   C347    1.413   1_556 S
C762   C337    1.400   1_556 S
C763   C764    1.391   .     A
C764   H771    1.080   .     S
C765   N780    1.438   .     S
H770   C803    1.083   .     S
C772   H497    1.088   1_565 S
C772   C498    1.327   1_565 S
H775   C498    1.088   1_565 S
N776   H823    1.029   .     S
N776   N824    1.293   .     S
H779   N824    1.029   .     S
N780   O781    1.303   .     A
N780   O782    1.301   .     A
O783   Cu789   1.955   .     S
O783   C785    1.291   .     A
O784   C785    1.284   .     A
O784   Cu790   1.950   .     S
C785   C818    1.427   .     S
O786   Cu789   1.969   .     S
O786   C788    1.305   .     A
O787   Cu790   1.952   .     S
O787   C788    1.290   .     A
C788   C813    1.467   .     S
Cu789  Cu790   2.685   .     S
Cu789  O793    1.952   .     S
Cu789  N824    2.018   .     S
Cu789  O791    1.950   .     S
Cu790  O794    1.969   .     S
Cu790  N822    2.018   .     S
Cu790  O792    1.955   .     S
O791   C795    1.284   .     A
O792   C795    1.291   .     A
O793   C796    1.285   .     A
O794   C796    1.313   .     A
C795   C820    1.427   .     S
C796   C801    1.475   .     S
C797   C812    1.392   .     A
C797   H708    1.084   1_655 S
H798   C812    1.078   .     S
H799   C809    1.084   .     S
C801   C812    1.398   .     A
C801   C811    1.424   .     A
C802   C803    1.385   .     A
C802   H814    1.083   .     S
C802   C813    1.403   .     A
C803   C804    1.388   .     A
C804   C805    1.412   .     A
C804   H401    1.076   1_556 S
C805   C806    1.414   .     A
C805   C393    1.421   1_556 S
C806   C813    1.427   .     A
C806   C810    1.417   .     A
C807   C811    1.406   .     A
C808   C809    1.393   .     A
C808   C393    1.413   1_556 S
C808   C383    1.400   1_556 S
C809   C810    1.391   .     A
C810   H817    1.080   .     S
C811   N826    1.438   .     S
H816   C711    1.083   1_655 S
C818   H543    1.088   1_565 S
C818   C544    1.327   1_565 S
H821   C544    1.088   1_565 S
N822   H731    1.029   1_655 S
N822   N732    1.293   1_655 S
H825   N732    1.029   1_655 S
N826   O827    1.303   .     A
N826   O828    1.301   .     A
