data_str_m2_o2_o5_pcu_sym.101
_audit_creation_date              2020-01-03
_audit_creation_method            'Materials Studio'
_symmetry_space_group_name_H-M    'P1'
_symmetry_Int_Tables_number       1
_symmetry_cell_setting            triclinic
loop_
_symmetry_equiv_pos_as_xyz
  x,y,z
_cell_length_a                    30.2836
_cell_length_b                    28.0995
_cell_length_c                    27.1954
_cell_angle_alpha                 90.0042
_cell_angle_beta                  93.2733
_cell_angle_gamma                 90.0003
loop_
_atom_site_label
_atom_site_type_symbol
_atom_site_fract_x
_atom_site_fract_y
_atom_site_fract_z
_atom_site_U_iso_or_equiv
_atom_site_adp_type
_atom_site_occupancy
C1     C     0.16508   0.24997   0.16658   0.00000  Uiso   1.00
C2     C     0.28085   0.44658   0.19564   0.00000  Uiso   1.00
C3     C     0.24986   0.25000   0.07365   0.00000  Uiso   1.00
C4     C     0.25014   0.25000   0.25969   0.00000  Uiso   1.00
C5     C     0.25000   0.02716   0.16667   0.00000  Uiso   1.00
C6     C     0.25000   0.47295   0.16667   0.00000  Uiso   1.00
C7     C     0.24995   0.24999   0.02188   0.00000  Uiso   1.00
C8     C     0.25005   0.24999   0.31146   0.00000  Uiso   1.00
C9     C     0.04677   0.29020   0.15186   0.00000  Uiso   1.00
C10    C     0.45148   0.20870   0.15205   0.00000  Uiso   1.00
C11    C     0.45323   0.29018   0.18151   0.00000  Uiso   1.00
C12    C     0.33492   0.24997   0.16675   0.00000  Uiso   1.00
C13    C     0.04852   0.20869   0.18123   0.00000  Uiso   1.00
C14    C     0.09267   0.29050   0.15231   0.00000  Uiso   1.00
C15    C     0.40557   0.20878   0.15239   0.00000  Uiso   1.00
C16    C     0.40733   0.29049   0.18107   0.00000  Uiso   1.00
C17    C     0.09443   0.20877   0.18090   0.00000  Uiso   1.00
C18    C     0.11679   0.24977   0.16663   0.00000  Uiso   1.00
C19    C     0.38321   0.24977   0.16671   0.00000  Uiso   1.00
C20    C     0.02429   0.24938   0.16657   0.00000  Uiso   1.00
C21    C     0.47571   0.24937   0.16676   0.00000  Uiso   1.00
C22    C     0.29833   0.12702   0.24633   0.00000  Uiso   1.00
C23    C     0.27228   0.10378   0.20403   0.00000  Uiso   1.00
C24    C     0.18692   0.37432   0.09985   0.00000  Uiso   1.00
C25    C     0.20167   0.12701   0.08701   0.00000  Uiso   1.00
C26    C     0.31308   0.37433   0.23349   0.00000  Uiso   1.00
C27    C     0.22012   0.39633   0.13647   0.00000  Uiso   1.00
C28    C     0.22772   0.10377   0.12930   0.00000  Uiso   1.00
C29    C     0.27988   0.39634   0.19686   0.00000  Uiso   1.00
C30    C     0.27086   0.05351   0.20503   0.00000  Uiso   1.00
C31    C     0.21915   0.44657   0.13769   0.00000  Uiso   1.00
C32    C     0.22914   0.05351   0.12830   0.00000  Uiso   1.00
Cu33   Cu    0.25000   0.29821   0.16667   0.00000  Uiso   1.00
Cu34   Cu    0.25000   0.20178   0.16667   0.00000  Uiso   1.00
H35    H     0.31683   0.15839   0.23473   0.00000  Uiso   1.00
H36    H     0.31255   0.33566   0.23622   0.00000  Uiso   1.00
H37    H     0.34692   0.38499   0.22426   0.00000  Uiso   1.00
H38    H     0.30724   0.38809   0.27085   0.00000  Uiso   1.00
H39    H     0.02888   0.32176   0.13949   0.00000  Uiso   1.00
H40    H     0.46793   0.17704   0.13968   0.00000  Uiso   1.00
H41    H     0.47112   0.32173   0.19392   0.00000  Uiso   1.00
H42    H     0.03206   0.17701   0.19357   0.00000  Uiso   1.00
H43    H     0.10918   0.32240   0.14085   0.00000  Uiso   1.00
H44    H     0.38758   0.17702   0.14076   0.00000  Uiso   1.00
H45    H     0.39083   0.32238   0.19257   0.00000  Uiso   1.00
H46    H     0.27602   0.13610   0.27591   0.00000  Uiso   1.00
H47    H     0.11241   0.17700   0.19249   0.00000  Uiso   1.00
H48    H     0.28611   0.03538   0.23665   0.00000  Uiso   1.00
H49    H     0.19361   0.46460   0.11541   0.00000  Uiso   1.00
H50    H     0.21389   0.03538   0.09668   0.00000  Uiso   1.00
H51    H     0.30639   0.46461   0.21793   0.00000  Uiso   1.00
H52    H     0.32382   0.10241   0.26279   0.00000  Uiso   1.00
H53    H     0.18745   0.33565   0.09712   0.00000  Uiso   1.00
H54    H     0.15308   0.38498   0.10908   0.00000  Uiso   1.00
H55    H     0.19276   0.38808   0.06248   0.00000  Uiso   1.00
H56    H     0.18317   0.15838   0.09860   0.00000  Uiso   1.00
H57    H     0.22398   0.13609   0.05742   0.00000  Uiso   1.00
H58    H     0.17618   0.10240   0.07054   0.00000  Uiso   1.00
N59    N     0.25000   0.12934   0.16667   0.00000  Uiso   1.00
N60    N     0.25000   0.37065   0.16667   0.00000  Uiso   1.00
O61    O     0.18573   0.29071   0.16667   0.00000  Uiso   1.00
O62    O     0.31427   0.20928   0.16666   0.00000  Uiso   1.00
O63    O     0.31427   0.29071   0.16666   0.00000  Uiso   1.00
O64    O     0.18573   0.20928   0.16667   0.00000  Uiso   1.00
O65    O     0.25000   0.29071   0.09613   0.00000  Uiso   1.00
O66    O     0.25000   0.20929   0.23720   0.00000  Uiso   1.00
O67    O     0.25000   0.29071   0.23720   0.00000  Uiso   1.00
O68    O     0.25000   0.20929   0.09613   0.00000  Uiso   1.00
C69    C     0.66508   0.24997   0.16658   0.00000  Uiso   1.00
C70    C     0.78085   0.44658   0.19564   0.00000  Uiso   1.00
C71    C     0.74986   0.25000   0.07365   0.00000  Uiso   1.00
C72    C     0.75014   0.25000   0.25969   0.00000  Uiso   1.00
C73    C     0.75000   0.02716   0.16667   0.00000  Uiso   1.00
C74    C     0.75000   0.47295   0.16667   0.00000  Uiso   1.00
C75    C     0.74995   0.24999   0.02188   0.00000  Uiso   1.00
C76    C     0.75005   0.24999   0.31146   0.00000  Uiso   1.00
C77    C     0.54677   0.29020   0.15186   0.00000  Uiso   1.00
C78    C     0.95148   0.20870   0.15205   0.00000  Uiso   1.00
C79    C     0.95323   0.29018   0.18151   0.00000  Uiso   1.00
C80    C     0.83492   0.24997   0.16675   0.00000  Uiso   1.00
C81    C     0.54852   0.20869   0.18123   0.00000  Uiso   1.00
C82    C     0.59267   0.29050   0.15231   0.00000  Uiso   1.00
C83    C     0.90557   0.20878   0.15239   0.00000  Uiso   1.00
C84    C     0.90733   0.29049   0.18107   0.00000  Uiso   1.00
C85    C     0.59443   0.20877   0.18090   0.00000  Uiso   1.00
C86    C     0.61679   0.24977   0.16663   0.00000  Uiso   1.00
C87    C     0.88321   0.24977   0.16671   0.00000  Uiso   1.00
C88    C     0.52429   0.24938   0.16657   0.00000  Uiso   1.00
C89    C     0.97571   0.24937   0.16676   0.00000  Uiso   1.00
C90    C     0.79833   0.12702   0.24633   0.00000  Uiso   1.00
C91    C     0.77228   0.10378   0.20403   0.00000  Uiso   1.00
C92    C     0.68692   0.37432   0.09985   0.00000  Uiso   1.00
C93    C     0.70167   0.12701   0.08701   0.00000  Uiso   1.00
C94    C     0.81308   0.37433   0.23349   0.00000  Uiso   1.00
C95    C     0.72012   0.39633   0.13647   0.00000  Uiso   1.00
C96    C     0.72772   0.10377   0.12930   0.00000  Uiso   1.00
C97    C     0.77988   0.39634   0.19686   0.00000  Uiso   1.00
C98    C     0.77086   0.05351   0.20503   0.00000  Uiso   1.00
C99    C     0.71915   0.44657   0.13769   0.00000  Uiso   1.00
C100   C     0.72914   0.05351   0.12830   0.00000  Uiso   1.00
Cu101  Cu    0.75000   0.29821   0.16667   0.00000  Uiso   1.00
Cu102  Cu    0.75000   0.20178   0.16667   0.00000  Uiso   1.00
H103   H     0.81683   0.15839   0.23473   0.00000  Uiso   1.00
H104   H     0.81255   0.33566   0.23622   0.00000  Uiso   1.00
H105   H     0.84692   0.38499   0.22426   0.00000  Uiso   1.00
H106   H     0.80724   0.38809   0.27085   0.00000  Uiso   1.00
H107   H     0.52888   0.32176   0.13949   0.00000  Uiso   1.00
H108   H     0.96793   0.17704   0.13968   0.00000  Uiso   1.00
H109   H     0.97112   0.32173   0.19392   0.00000  Uiso   1.00
H110   H     0.53206   0.17701   0.19357   0.00000  Uiso   1.00
H111   H     0.60918   0.32240   0.14085   0.00000  Uiso   1.00
H112   H     0.88758   0.17702   0.14076   0.00000  Uiso   1.00
H113   H     0.89083   0.32238   0.19257   0.00000  Uiso   1.00
H114   H     0.77602   0.13610   0.27591   0.00000  Uiso   1.00
H115   H     0.61241   0.17700   0.19249   0.00000  Uiso   1.00
H116   H     0.78611   0.03538   0.23665   0.00000  Uiso   1.00
H117   H     0.69361   0.46460   0.11541   0.00000  Uiso   1.00
H118   H     0.71389   0.03538   0.09668   0.00000  Uiso   1.00
H119   H     0.80639   0.46461   0.21793   0.00000  Uiso   1.00
H120   H     0.82382   0.10241   0.26279   0.00000  Uiso   1.00
H121   H     0.68745   0.33565   0.09712   0.00000  Uiso   1.00
H122   H     0.65308   0.38498   0.10908   0.00000  Uiso   1.00
H123   H     0.69276   0.38808   0.06248   0.00000  Uiso   1.00
H124   H     0.68317   0.15838   0.09860   0.00000  Uiso   1.00
H125   H     0.72398   0.13609   0.05742   0.00000  Uiso   1.00
H126   H     0.67618   0.10240   0.07054   0.00000  Uiso   1.00
N127   N     0.75000   0.12934   0.16667   0.00000  Uiso   1.00
N128   N     0.75000   0.37065   0.16667   0.00000  Uiso   1.00
O129   O     0.68573   0.29071   0.16667   0.00000  Uiso   1.00
O130   O     0.81427   0.20928   0.16666   0.00000  Uiso   1.00
O131   O     0.81427   0.29071   0.16666   0.00000  Uiso   1.00
O132   O     0.68573   0.20928   0.16667   0.00000  Uiso   1.00
O133   O     0.75000   0.29071   0.09613   0.00000  Uiso   1.00
O134   O     0.75000   0.20929   0.23720   0.00000  Uiso   1.00
O135   O     0.75000   0.29071   0.23720   0.00000  Uiso   1.00
O136   O     0.75000   0.20929   0.09613   0.00000  Uiso   1.00
C137   C     0.16508   0.74997   0.16658   0.00000  Uiso   1.00
C138   C     0.28085   0.94658   0.19564   0.00000  Uiso   1.00
C139   C     0.24986   0.75000   0.07365   0.00000  Uiso   1.00
C140   C     0.25014   0.75000   0.25969   0.00000  Uiso   1.00
C141   C     0.25000   0.52716   0.16667   0.00000  Uiso   1.00
C142   C     0.25000   0.97295   0.16667   0.00000  Uiso   1.00
C143   C     0.24995   0.74999   0.02188   0.00000  Uiso   1.00
C144   C     0.25005   0.74999   0.31146   0.00000  Uiso   1.00
C145   C     0.04677   0.79020   0.15186   0.00000  Uiso   1.00
C146   C     0.45148   0.70870   0.15205   0.00000  Uiso   1.00
C147   C     0.45323   0.79018   0.18151   0.00000  Uiso   1.00
C148   C     0.33492   0.74997   0.16675   0.00000  Uiso   1.00
C149   C     0.04852   0.70869   0.18123   0.00000  Uiso   1.00
C150   C     0.09267   0.79050   0.15231   0.00000  Uiso   1.00
C151   C     0.40557   0.70878   0.15239   0.00000  Uiso   1.00
C152   C     0.40733   0.79049   0.18107   0.00000  Uiso   1.00
C153   C     0.09443   0.70877   0.18090   0.00000  Uiso   1.00
C154   C     0.11679   0.74977   0.16663   0.00000  Uiso   1.00
C155   C     0.38321   0.74977   0.16671   0.00000  Uiso   1.00
C156   C     0.02429   0.74938   0.16657   0.00000  Uiso   1.00
C157   C     0.47571   0.74937   0.16676   0.00000  Uiso   1.00
C158   C     0.29833   0.62702   0.24633   0.00000  Uiso   1.00
C159   C     0.27228   0.60378   0.20403   0.00000  Uiso   1.00
C160   C     0.18692   0.87432   0.09985   0.00000  Uiso   1.00
C161   C     0.20167   0.62701   0.08701   0.00000  Uiso   1.00
C162   C     0.31308   0.87433   0.23349   0.00000  Uiso   1.00
C163   C     0.22012   0.89633   0.13647   0.00000  Uiso   1.00
C164   C     0.22772   0.60377   0.12930   0.00000  Uiso   1.00
C165   C     0.27988   0.89634   0.19686   0.00000  Uiso   1.00
C166   C     0.27086   0.55351   0.20503   0.00000  Uiso   1.00
C167   C     0.21915   0.94657   0.13769   0.00000  Uiso   1.00
C168   C     0.22914   0.55351   0.12830   0.00000  Uiso   1.00
Cu169  Cu    0.25000   0.79821   0.16667   0.00000  Uiso   1.00
Cu170  Cu    0.25000   0.70178   0.16667   0.00000  Uiso   1.00
H171   H     0.31683   0.65839   0.23473   0.00000  Uiso   1.00
H172   H     0.31255   0.83566   0.23622   0.00000  Uiso   1.00
H173   H     0.34692   0.88499   0.22426   0.00000  Uiso   1.00
H174   H     0.30724   0.88809   0.27085   0.00000  Uiso   1.00
H175   H     0.02888   0.82176   0.13949   0.00000  Uiso   1.00
H176   H     0.46793   0.67704   0.13968   0.00000  Uiso   1.00
H177   H     0.47112   0.82173   0.19392   0.00000  Uiso   1.00
H178   H     0.03206   0.67701   0.19357   0.00000  Uiso   1.00
H179   H     0.10918   0.82240   0.14085   0.00000  Uiso   1.00
H180   H     0.38758   0.67702   0.14076   0.00000  Uiso   1.00
H181   H     0.39083   0.82238   0.19257   0.00000  Uiso   1.00
H182   H     0.27602   0.63610   0.27591   0.00000  Uiso   1.00
H183   H     0.11241   0.67700   0.19249   0.00000  Uiso   1.00
H184   H     0.28611   0.53538   0.23665   0.00000  Uiso   1.00
H185   H     0.19361   0.96460   0.11541   0.00000  Uiso   1.00
H186   H     0.21389   0.53538   0.09668   0.00000  Uiso   1.00
H187   H     0.30639   0.96461   0.21793   0.00000  Uiso   1.00
H188   H     0.32382   0.60241   0.26279   0.00000  Uiso   1.00
H189   H     0.18745   0.83565   0.09712   0.00000  Uiso   1.00
H190   H     0.15308   0.88498   0.10908   0.00000  Uiso   1.00
H191   H     0.19276   0.88808   0.06248   0.00000  Uiso   1.00
H192   H     0.18317   0.65838   0.09860   0.00000  Uiso   1.00
H193   H     0.22398   0.63609   0.05742   0.00000  Uiso   1.00
H194   H     0.17618   0.60240   0.07054   0.00000  Uiso   1.00
N195   N     0.25000   0.62934   0.16667   0.00000  Uiso   1.00
N196   N     0.25000   0.87065   0.16667   0.00000  Uiso   1.00
O197   O     0.18573   0.79071   0.16667   0.00000  Uiso   1.00
O198   O     0.31427   0.70928   0.16666   0.00000  Uiso   1.00
O199   O     0.31427   0.79071   0.16666   0.00000  Uiso   1.00
O200   O     0.18573   0.70928   0.16667   0.00000  Uiso   1.00
O201   O     0.25000   0.79071   0.09613   0.00000  Uiso   1.00
O202   O     0.25000   0.70929   0.23720   0.00000  Uiso   1.00
O203   O     0.25000   0.79071   0.23720   0.00000  Uiso   1.00
O204   O     0.25000   0.70929   0.09613   0.00000  Uiso   1.00
C205   C     0.66508   0.74997   0.16658   0.00000  Uiso   1.00
C206   C     0.78085   0.94658   0.19564   0.00000  Uiso   1.00
C207   C     0.74986   0.75000   0.07365   0.00000  Uiso   1.00
C208   C     0.75014   0.75000   0.25969   0.00000  Uiso   1.00
C209   C     0.75000   0.52716   0.16667   0.00000  Uiso   1.00
C210   C     0.75000   0.97295   0.16667   0.00000  Uiso   1.00
C211   C     0.74995   0.74999   0.02188   0.00000  Uiso   1.00
C212   C     0.75005   0.74999   0.31146   0.00000  Uiso   1.00
C213   C     0.54677   0.79020   0.15186   0.00000  Uiso   1.00
C214   C     0.95148   0.70870   0.15205   0.00000  Uiso   1.00
C215   C     0.95323   0.79018   0.18151   0.00000  Uiso   1.00
C216   C     0.83492   0.74997   0.16675   0.00000  Uiso   1.00
C217   C     0.54852   0.70869   0.18123   0.00000  Uiso   1.00
C218   C     0.59267   0.79050   0.15231   0.00000  Uiso   1.00
C219   C     0.90557   0.70878   0.15239   0.00000  Uiso   1.00
C220   C     0.90733   0.79049   0.18107   0.00000  Uiso   1.00
C221   C     0.59443   0.70877   0.18090   0.00000  Uiso   1.00
C222   C     0.61679   0.74977   0.16663   0.00000  Uiso   1.00
C223   C     0.88321   0.74977   0.16671   0.00000  Uiso   1.00
C224   C     0.52429   0.74938   0.16657   0.00000  Uiso   1.00
C225   C     0.97571   0.74937   0.16676   0.00000  Uiso   1.00
C226   C     0.79833   0.62702   0.24633   0.00000  Uiso   1.00
C227   C     0.77228   0.60378   0.20403   0.00000  Uiso   1.00
C228   C     0.68692   0.87432   0.09985   0.00000  Uiso   1.00
C229   C     0.70167   0.62701   0.08701   0.00000  Uiso   1.00
C230   C     0.81308   0.87433   0.23349   0.00000  Uiso   1.00
C231   C     0.72012   0.89633   0.13647   0.00000  Uiso   1.00
C232   C     0.72772   0.60377   0.12930   0.00000  Uiso   1.00
C233   C     0.77988   0.89634   0.19686   0.00000  Uiso   1.00
C234   C     0.77086   0.55351   0.20503   0.00000  Uiso   1.00
C235   C     0.71915   0.94657   0.13769   0.00000  Uiso   1.00
C236   C     0.72914   0.55351   0.12830   0.00000  Uiso   1.00
Cu237  Cu    0.75000   0.79821   0.16667   0.00000  Uiso   1.00
Cu238  Cu    0.75000   0.70178   0.16667   0.00000  Uiso   1.00
H239   H     0.81683   0.65839   0.23473   0.00000  Uiso   1.00
H240   H     0.81255   0.83566   0.23622   0.00000  Uiso   1.00
H241   H     0.84692   0.88499   0.22426   0.00000  Uiso   1.00
H242   H     0.80724   0.88809   0.27085   0.00000  Uiso   1.00
H243   H     0.52888   0.82176   0.13949   0.00000  Uiso   1.00
H244   H     0.96793   0.67704   0.13968   0.00000  Uiso   1.00
H245   H     0.97112   0.82173   0.19392   0.00000  Uiso   1.00
H246   H     0.53206   0.67701   0.19357   0.00000  Uiso   1.00
H247   H     0.60918   0.82240   0.14085   0.00000  Uiso   1.00
H248   H     0.88758   0.67702   0.14076   0.00000  Uiso   1.00
H249   H     0.89083   0.82238   0.19257   0.00000  Uiso   1.00
H250   H     0.77602   0.63610   0.27591   0.00000  Uiso   1.00
H251   H     0.61241   0.67700   0.19249   0.00000  Uiso   1.00
H252   H     0.78611   0.53538   0.23665   0.00000  Uiso   1.00
H253   H     0.69361   0.96460   0.11541   0.00000  Uiso   1.00
H254   H     0.71389   0.53538   0.09668   0.00000  Uiso   1.00
H255   H     0.80639   0.96461   0.21793   0.00000  Uiso   1.00
H256   H     0.82382   0.60241   0.26279   0.00000  Uiso   1.00
H257   H     0.68745   0.83565   0.09712   0.00000  Uiso   1.00
H258   H     0.65308   0.88498   0.10908   0.00000  Uiso   1.00
H259   H     0.69276   0.88808   0.06248   0.00000  Uiso   1.00
H260   H     0.68317   0.65838   0.09860   0.00000  Uiso   1.00
H261   H     0.72398   0.63609   0.05742   0.00000  Uiso   1.00
H262   H     0.67618   0.60240   0.07054   0.00000  Uiso   1.00
N263   N     0.75000   0.62934   0.16667   0.00000  Uiso   1.00
N264   N     0.75000   0.87065   0.16667   0.00000  Uiso   1.00
O265   O     0.68573   0.79071   0.16667   0.00000  Uiso   1.00
O266   O     0.81427   0.70928   0.16666   0.00000  Uiso   1.00
O267   O     0.81427   0.79071   0.16666   0.00000  Uiso   1.00
O268   O     0.68573   0.70928   0.16667   0.00000  Uiso   1.00
O269   O     0.75000   0.79071   0.09613   0.00000  Uiso   1.00
O270   O     0.75000   0.70929   0.23720   0.00000  Uiso   1.00
O271   O     0.75000   0.79071   0.23720   0.00000  Uiso   1.00
O272   O     0.75000   0.70929   0.09613   0.00000  Uiso   1.00
C273   C     0.16508   0.24997   0.49992   0.00000  Uiso   1.00
C274   C     0.28085   0.44658   0.52897   0.00000  Uiso   1.00
C275   C     0.24986   0.25000   0.40698   0.00000  Uiso   1.00
C276   C     0.25014   0.25000   0.59302   0.00000  Uiso   1.00
C277   C     0.25000   0.02716   0.50000   0.00000  Uiso   1.00
C278   C     0.25000   0.47295   0.50000   0.00000  Uiso   1.00
C279   C     0.24995   0.24999   0.35521   0.00000  Uiso   1.00
C280   C     0.25005   0.24999   0.64479   0.00000  Uiso   1.00
C281   C     0.04677   0.29020   0.48519   0.00000  Uiso   1.00
C282   C     0.45148   0.20870   0.48538   0.00000  Uiso   1.00
C283   C     0.45323   0.29018   0.51485   0.00000  Uiso   1.00
C284   C     0.33492   0.24997   0.50008   0.00000  Uiso   1.00
C285   C     0.04852   0.20869   0.51456   0.00000  Uiso   1.00
C286   C     0.09267   0.29050   0.48564   0.00000  Uiso   1.00
C287   C     0.40557   0.20878   0.48572   0.00000  Uiso   1.00
C288   C     0.40733   0.29049   0.51440   0.00000  Uiso   1.00
C289   C     0.09443   0.20877   0.51423   0.00000  Uiso   1.00
C290   C     0.11679   0.24977   0.49996   0.00000  Uiso   1.00
C291   C     0.38321   0.24977   0.50004   0.00000  Uiso   1.00
C292   C     0.02429   0.24938   0.49991   0.00000  Uiso   1.00
C293   C     0.47571   0.24937   0.50009   0.00000  Uiso   1.00
C294   C     0.29833   0.12702   0.57966   0.00000  Uiso   1.00
C295   C     0.27228   0.10378   0.53736   0.00000  Uiso   1.00
C296   C     0.18692   0.37432   0.43318   0.00000  Uiso   1.00
C297   C     0.20167   0.12701   0.42034   0.00000  Uiso   1.00
C298   C     0.31308   0.37433   0.56682   0.00000  Uiso   1.00
C299   C     0.22012   0.39633   0.46980   0.00000  Uiso   1.00
C300   C     0.22772   0.10377   0.46264   0.00000  Uiso   1.00
C301   C     0.27988   0.39634   0.53020   0.00000  Uiso   1.00
C302   C     0.27086   0.05351   0.53836   0.00000  Uiso   1.00
C303   C     0.21915   0.44657   0.47103   0.00000  Uiso   1.00
C304   C     0.22914   0.05351   0.46164   0.00000  Uiso   1.00
Cu305  Cu    0.25000   0.29821   0.50000   0.00000  Uiso   1.00
Cu306  Cu    0.25000   0.20178   0.50000   0.00000  Uiso   1.00
H307   H     0.31683   0.15839   0.56807   0.00000  Uiso   1.00
H308   H     0.31255   0.33566   0.56955   0.00000  Uiso   1.00
H309   H     0.34692   0.38499   0.55760   0.00000  Uiso   1.00
H310   H     0.30724   0.38809   0.60419   0.00000  Uiso   1.00
H311   H     0.02888   0.32176   0.47282   0.00000  Uiso   1.00
H312   H     0.46793   0.17704   0.47301   0.00000  Uiso   1.00
H313   H     0.47112   0.32173   0.52726   0.00000  Uiso   1.00
H314   H     0.03206   0.17701   0.52690   0.00000  Uiso   1.00
H315   H     0.10918   0.32240   0.47418   0.00000  Uiso   1.00
H316   H     0.38758   0.17702   0.47410   0.00000  Uiso   1.00
H317   H     0.39083   0.32238   0.52590   0.00000  Uiso   1.00
H318   H     0.27602   0.13610   0.60924   0.00000  Uiso   1.00
H319   H     0.11241   0.17700   0.52582   0.00000  Uiso   1.00
H320   H     0.28611   0.03538   0.56999   0.00000  Uiso   1.00
H321   H     0.19361   0.46460   0.44874   0.00000  Uiso   1.00
H322   H     0.21389   0.03538   0.43001   0.00000  Uiso   1.00
H323   H     0.30639   0.46461   0.55126   0.00000  Uiso   1.00
H324   H     0.32382   0.10241   0.59612   0.00000  Uiso   1.00
H325   H     0.18745   0.33565   0.43045   0.00000  Uiso   1.00
H326   H     0.15308   0.38498   0.44241   0.00000  Uiso   1.00
H327   H     0.19276   0.38808   0.39581   0.00000  Uiso   1.00
H328   H     0.18317   0.15838   0.43194   0.00000  Uiso   1.00
H329   H     0.22398   0.13609   0.39076   0.00000  Uiso   1.00
H330   H     0.17618   0.10240   0.40387   0.00000  Uiso   1.00
N331   N     0.25000   0.12934   0.50000   0.00000  Uiso   1.00
N332   N     0.25000   0.37065   0.50000   0.00000  Uiso   1.00
O333   O     0.18573   0.29071   0.50000   0.00000  Uiso   1.00
O334   O     0.31427   0.20928   0.50000   0.00000  Uiso   1.00
O335   O     0.31427   0.29071   0.50000   0.00000  Uiso   1.00
O336   O     0.18573   0.20928   0.50000   0.00000  Uiso   1.00
O337   O     0.25000   0.29071   0.42946   0.00000  Uiso   1.00
O338   O     0.25000   0.20929   0.57054   0.00000  Uiso   1.00
O339   O     0.25000   0.29071   0.57054   0.00000  Uiso   1.00
O340   O     0.25000   0.20929   0.42946   0.00000  Uiso   1.00
C341   C     0.66508   0.24997   0.49992   0.00000  Uiso   1.00
C342   C     0.78085   0.44658   0.52897   0.00000  Uiso   1.00
C343   C     0.74986   0.25000   0.40698   0.00000  Uiso   1.00
C344   C     0.75014   0.25000   0.59302   0.00000  Uiso   1.00
C345   C     0.75000   0.02716   0.50000   0.00000  Uiso   1.00
C346   C     0.75000   0.47295   0.50000   0.00000  Uiso   1.00
C347   C     0.74995   0.24999   0.35521   0.00000  Uiso   1.00
C348   C     0.75005   0.24999   0.64479   0.00000  Uiso   1.00
C349   C     0.54677   0.29020   0.48519   0.00000  Uiso   1.00
C350   C     0.95148   0.20870   0.48538   0.00000  Uiso   1.00
C351   C     0.95323   0.29018   0.51485   0.00000  Uiso   1.00
C352   C     0.83492   0.24997   0.50008   0.00000  Uiso   1.00
C353   C     0.54852   0.20869   0.51456   0.00000  Uiso   1.00
C354   C     0.59267   0.29050   0.48564   0.00000  Uiso   1.00
C355   C     0.90557   0.20878   0.48572   0.00000  Uiso   1.00
C356   C     0.90733   0.29049   0.51440   0.00000  Uiso   1.00
C357   C     0.59443   0.20877   0.51423   0.00000  Uiso   1.00
C358   C     0.61679   0.24977   0.49996   0.00000  Uiso   1.00
C359   C     0.88321   0.24977   0.50004   0.00000  Uiso   1.00
C360   C     0.52429   0.24938   0.49991   0.00000  Uiso   1.00
C361   C     0.97571   0.24937   0.50009   0.00000  Uiso   1.00
C362   C     0.79833   0.12702   0.57966   0.00000  Uiso   1.00
C363   C     0.77228   0.10378   0.53736   0.00000  Uiso   1.00
C364   C     0.68692   0.37432   0.43318   0.00000  Uiso   1.00
C365   C     0.70167   0.12701   0.42034   0.00000  Uiso   1.00
C366   C     0.81308   0.37433   0.56682   0.00000  Uiso   1.00
C367   C     0.72012   0.39633   0.46980   0.00000  Uiso   1.00
C368   C     0.72772   0.10377   0.46264   0.00000  Uiso   1.00
C369   C     0.77988   0.39634   0.53020   0.00000  Uiso   1.00
C370   C     0.77086   0.05351   0.53836   0.00000  Uiso   1.00
C371   C     0.71915   0.44657   0.47103   0.00000  Uiso   1.00
C372   C     0.72914   0.05351   0.46164   0.00000  Uiso   1.00
Cu373  Cu    0.75000   0.29821   0.50000   0.00000  Uiso   1.00
Cu374  Cu    0.75000   0.20178   0.50000   0.00000  Uiso   1.00
H375   H     0.81683   0.15839   0.56807   0.00000  Uiso   1.00
H376   H     0.81255   0.33566   0.56955   0.00000  Uiso   1.00
H377   H     0.84692   0.38499   0.55760   0.00000  Uiso   1.00
H378   H     0.80724   0.38809   0.60419   0.00000  Uiso   1.00
H379   H     0.52888   0.32176   0.47282   0.00000  Uiso   1.00
H380   H     0.96793   0.17704   0.47301   0.00000  Uiso   1.00
H381   H     0.97112   0.32173   0.52726   0.00000  Uiso   1.00
H382   H     0.53206   0.17701   0.52690   0.00000  Uiso   1.00
H383   H     0.60918   0.32240   0.47418   0.00000  Uiso   1.00
H384   H     0.88758   0.17702   0.47410   0.00000  Uiso   1.00
H385   H     0.89083   0.32238   0.52590   0.00000  Uiso   1.00
H386   H     0.77602   0.13610   0.60924   0.00000  Uiso   1.00
H387   H     0.61241   0.17700   0.52582   0.00000  Uiso   1.00
H388   H     0.78611   0.03538   0.56999   0.00000  Uiso   1.00
H389   H     0.69361   0.46460   0.44874   0.00000  Uiso   1.00
H390   H     0.71389   0.03538   0.43001   0.00000  Uiso   1.00
H391   H     0.80639   0.46461   0.55126   0.00000  Uiso   1.00
H392   H     0.82382   0.10241   0.59612   0.00000  Uiso   1.00
H393   H     0.68745   0.33565   0.43045   0.00000  Uiso   1.00
H394   H     0.65308   0.38498   0.44241   0.00000  Uiso   1.00
H395   H     0.69276   0.38808   0.39581   0.00000  Uiso   1.00
H396   H     0.68317   0.15838   0.43194   0.00000  Uiso   1.00
H397   H     0.72398   0.13609   0.39076   0.00000  Uiso   1.00
H398   H     0.67618   0.10240   0.40387   0.00000  Uiso   1.00
N399   N     0.75000   0.12934   0.50000   0.00000  Uiso   1.00
N400   N     0.75000   0.37065   0.50000   0.00000  Uiso   1.00
O401   O     0.68573   0.29071   0.50000   0.00000  Uiso   1.00
O402   O     0.81427   0.20928   0.50000   0.00000  Uiso   1.00
O403   O     0.81427   0.29071   0.50000   0.00000  Uiso   1.00
O404   O     0.68573   0.20928   0.50000   0.00000  Uiso   1.00
O405   O     0.75000   0.29071   0.42946   0.00000  Uiso   1.00
O406   O     0.75000   0.20929   0.57054   0.00000  Uiso   1.00
O407   O     0.75000   0.29071   0.57054   0.00000  Uiso   1.00
O408   O     0.75000   0.20929   0.42946   0.00000  Uiso   1.00
C409   C     0.16508   0.74997   0.49992   0.00000  Uiso   1.00
C410   C     0.28085   0.94658   0.52897   0.00000  Uiso   1.00
C411   C     0.24986   0.75000   0.40698   0.00000  Uiso   1.00
C412   C     0.25014   0.75000   0.59302   0.00000  Uiso   1.00
C413   C     0.25000   0.52716   0.50000   0.00000  Uiso   1.00
C414   C     0.25000   0.97295   0.50000   0.00000  Uiso   1.00
C415   C     0.24995   0.74999   0.35521   0.00000  Uiso   1.00
C416   C     0.25005   0.74999   0.64479   0.00000  Uiso   1.00
C417   C     0.04677   0.79020   0.48519   0.00000  Uiso   1.00
C418   C     0.45148   0.70870   0.48538   0.00000  Uiso   1.00
C419   C     0.45323   0.79018   0.51485   0.00000  Uiso   1.00
C420   C     0.33492   0.74997   0.50008   0.00000  Uiso   1.00
C421   C     0.04852   0.70869   0.51456   0.00000  Uiso   1.00
C422   C     0.09267   0.79050   0.48564   0.00000  Uiso   1.00
C423   C     0.40557   0.70878   0.48572   0.00000  Uiso   1.00
C424   C     0.40733   0.79049   0.51440   0.00000  Uiso   1.00
C425   C     0.09443   0.70877   0.51423   0.00000  Uiso   1.00
C426   C     0.11679   0.74977   0.49996   0.00000  Uiso   1.00
C427   C     0.38321   0.74977   0.50004   0.00000  Uiso   1.00
C428   C     0.02429   0.74938   0.49991   0.00000  Uiso   1.00
C429   C     0.47571   0.74937   0.50009   0.00000  Uiso   1.00
C430   C     0.29833   0.62702   0.57966   0.00000  Uiso   1.00
C431   C     0.27228   0.60378   0.53736   0.00000  Uiso   1.00
C432   C     0.18692   0.87432   0.43318   0.00000  Uiso   1.00
C433   C     0.20167   0.62701   0.42034   0.00000  Uiso   1.00
C434   C     0.31308   0.87433   0.56682   0.00000  Uiso   1.00
C435   C     0.22012   0.89633   0.46980   0.00000  Uiso   1.00
C436   C     0.22772   0.60377   0.46264   0.00000  Uiso   1.00
C437   C     0.27988   0.89634   0.53020   0.00000  Uiso   1.00
C438   C     0.27086   0.55351   0.53836   0.00000  Uiso   1.00
C439   C     0.21915   0.94657   0.47103   0.00000  Uiso   1.00
C440   C     0.22914   0.55351   0.46164   0.00000  Uiso   1.00
Cu441  Cu    0.25000   0.79821   0.50000   0.00000  Uiso   1.00
Cu442  Cu    0.25000   0.70178   0.50000   0.00000  Uiso   1.00
H443   H     0.31683   0.65839   0.56807   0.00000  Uiso   1.00
H444   H     0.31255   0.83566   0.56955   0.00000  Uiso   1.00
H445   H     0.34692   0.88499   0.55760   0.00000  Uiso   1.00
H446   H     0.30724   0.88809   0.60419   0.00000  Uiso   1.00
H447   H     0.02888   0.82176   0.47282   0.00000  Uiso   1.00
H448   H     0.46793   0.67704   0.47301   0.00000  Uiso   1.00
H449   H     0.47112   0.82173   0.52726   0.00000  Uiso   1.00
H450   H     0.03206   0.67701   0.52690   0.00000  Uiso   1.00
H451   H     0.10918   0.82240   0.47418   0.00000  Uiso   1.00
H452   H     0.38758   0.67702   0.47410   0.00000  Uiso   1.00
H453   H     0.39083   0.82238   0.52590   0.00000  Uiso   1.00
H454   H     0.27602   0.63610   0.60924   0.00000  Uiso   1.00
H455   H     0.11241   0.67700   0.52582   0.00000  Uiso   1.00
H456   H     0.28611   0.53538   0.56999   0.00000  Uiso   1.00
H457   H     0.19361   0.96460   0.44874   0.00000  Uiso   1.00
H458   H     0.21389   0.53538   0.43001   0.00000  Uiso   1.00
H459   H     0.30639   0.96461   0.55126   0.00000  Uiso   1.00
H460   H     0.32382   0.60241   0.59612   0.00000  Uiso   1.00
H461   H     0.18745   0.83565   0.43045   0.00000  Uiso   1.00
H462   H     0.15308   0.88498   0.44241   0.00000  Uiso   1.00
H463   H     0.19276   0.88808   0.39581   0.00000  Uiso   1.00
H464   H     0.18317   0.65838   0.43194   0.00000  Uiso   1.00
H465   H     0.22398   0.63609   0.39076   0.00000  Uiso   1.00
H466   H     0.17618   0.60240   0.40387   0.00000  Uiso   1.00
N467   N     0.25000   0.62934   0.50000   0.00000  Uiso   1.00
N468   N     0.25000   0.87065   0.50000   0.00000  Uiso   1.00
O469   O     0.18573   0.79071   0.50000   0.00000  Uiso   1.00
O470   O     0.31427   0.70928   0.50000   0.00000  Uiso   1.00
O471   O     0.31427   0.79071   0.50000   0.00000  Uiso   1.00
O472   O     0.18573   0.70928   0.50000   0.00000  Uiso   1.00
O473   O     0.25000   0.79071   0.42946   0.00000  Uiso   1.00
O474   O     0.25000   0.70929   0.57054   0.00000  Uiso   1.00
O475   O     0.25000   0.79071   0.57054   0.00000  Uiso   1.00
O476   O     0.25000   0.70929   0.42946   0.00000  Uiso   1.00
C477   C     0.66508   0.74997   0.49992   0.00000  Uiso   1.00
C478   C     0.78085   0.94658   0.52897   0.00000  Uiso   1.00
C479   C     0.74986   0.75000   0.40698   0.00000  Uiso   1.00
C480   C     0.75014   0.75000   0.59302   0.00000  Uiso   1.00
C481   C     0.75000   0.52716   0.50000   0.00000  Uiso   1.00
C482   C     0.75000   0.97295   0.50000   0.00000  Uiso   1.00
C483   C     0.74995   0.74999   0.35521   0.00000  Uiso   1.00
C484   C     0.75005   0.74999   0.64479   0.00000  Uiso   1.00
C485   C     0.54677   0.79020   0.48519   0.00000  Uiso   1.00
C486   C     0.95148   0.70870   0.48538   0.00000  Uiso   1.00
C487   C     0.95323   0.79018   0.51485   0.00000  Uiso   1.00
C488   C     0.83492   0.74997   0.50008   0.00000  Uiso   1.00
C489   C     0.54852   0.70869   0.51456   0.00000  Uiso   1.00
C490   C     0.59267   0.79050   0.48564   0.00000  Uiso   1.00
C491   C     0.90557   0.70878   0.48572   0.00000  Uiso   1.00
C492   C     0.90733   0.79049   0.51440   0.00000  Uiso   1.00
C493   C     0.59443   0.70877   0.51423   0.00000  Uiso   1.00
C494   C     0.61679   0.74977   0.49996   0.00000  Uiso   1.00
C495   C     0.88321   0.74977   0.50004   0.00000  Uiso   1.00
C496   C     0.52429   0.74938   0.49991   0.00000  Uiso   1.00
C497   C     0.97571   0.74937   0.50009   0.00000  Uiso   1.00
C498   C     0.79833   0.62702   0.57966   0.00000  Uiso   1.00
C499   C     0.77228   0.60378   0.53736   0.00000  Uiso   1.00
C500   C     0.68692   0.87432   0.43318   0.00000  Uiso   1.00
C501   C     0.70167   0.62701   0.42034   0.00000  Uiso   1.00
C502   C     0.81308   0.87433   0.56682   0.00000  Uiso   1.00
C503   C     0.72012   0.89633   0.46980   0.00000  Uiso   1.00
C504   C     0.72772   0.60377   0.46264   0.00000  Uiso   1.00
C505   C     0.77988   0.89634   0.53020   0.00000  Uiso   1.00
C506   C     0.77086   0.55351   0.53836   0.00000  Uiso   1.00
C507   C     0.71915   0.94657   0.47103   0.00000  Uiso   1.00
C508   C     0.72914   0.55351   0.46164   0.00000  Uiso   1.00
Cu509  Cu    0.75000   0.79821   0.50000   0.00000  Uiso   1.00
Cu510  Cu    0.75000   0.70178   0.50000   0.00000  Uiso   1.00
H511   H     0.81683   0.65839   0.56807   0.00000  Uiso   1.00
H512   H     0.81255   0.83566   0.56955   0.00000  Uiso   1.00
H513   H     0.84692   0.88499   0.55760   0.00000  Uiso   1.00
H514   H     0.80724   0.88809   0.60419   0.00000  Uiso   1.00
H515   H     0.52888   0.82176   0.47282   0.00000  Uiso   1.00
H516   H     0.96793   0.67704   0.47301   0.00000  Uiso   1.00
H517   H     0.97112   0.82173   0.52726   0.00000  Uiso   1.00
H518   H     0.53206   0.67701   0.52690   0.00000  Uiso   1.00
H519   H     0.60918   0.82240   0.47418   0.00000  Uiso   1.00
H520   H     0.88758   0.67702   0.47410   0.00000  Uiso   1.00
H521   H     0.89083   0.82238   0.52590   0.00000  Uiso   1.00
H522   H     0.77602   0.63610   0.60924   0.00000  Uiso   1.00
H523   H     0.61241   0.67700   0.52582   0.00000  Uiso   1.00
H524   H     0.78611   0.53538   0.56999   0.00000  Uiso   1.00
H525   H     0.69361   0.96460   0.44874   0.00000  Uiso   1.00
H526   H     0.71389   0.53538   0.43001   0.00000  Uiso   1.00
H527   H     0.80639   0.96461   0.55126   0.00000  Uiso   1.00
H528   H     0.82382   0.60241   0.59612   0.00000  Uiso   1.00
H529   H     0.68745   0.83565   0.43045   0.00000  Uiso   1.00
H530   H     0.65308   0.88498   0.44241   0.00000  Uiso   1.00
H531   H     0.69276   0.88808   0.39581   0.00000  Uiso   1.00
H532   H     0.68317   0.65838   0.43194   0.00000  Uiso   1.00
H533   H     0.72398   0.63609   0.39076   0.00000  Uiso   1.00
H534   H     0.67618   0.60240   0.40387   0.00000  Uiso   1.00
N535   N     0.75000   0.62934   0.50000   0.00000  Uiso   1.00
N536   N     0.75000   0.87065   0.50000   0.00000  Uiso   1.00
O537   O     0.68573   0.79071   0.50000   0.00000  Uiso   1.00
O538   O     0.81427   0.70928   0.50000   0.00000  Uiso   1.00
O539   O     0.81427   0.79071   0.50000   0.00000  Uiso   1.00
O540   O     0.68573   0.70928   0.50000   0.00000  Uiso   1.00
O541   O     0.75000   0.79071   0.42946   0.00000  Uiso   1.00
O542   O     0.75000   0.70929   0.57054   0.00000  Uiso   1.00
O543   O     0.75000   0.79071   0.57054   0.00000  Uiso   1.00
O544   O     0.75000   0.70929   0.42946   0.00000  Uiso   1.00
C545   C     0.16508   0.24997   0.83325   0.00000  Uiso   1.00
C546   C     0.28085   0.44658   0.86231   0.00000  Uiso   1.00
C547   C     0.24986   0.25000   0.74031   0.00000  Uiso   1.00
C548   C     0.25014   0.25000   0.92635   0.00000  Uiso   1.00
C549   C     0.25000   0.02716   0.83333   0.00000  Uiso   1.00
C550   C     0.25000   0.47295   0.83333   0.00000  Uiso   1.00
C551   C     0.24995   0.24999   0.68854   0.00000  Uiso   1.00
C552   C     0.25005   0.24999   0.97812   0.00000  Uiso   1.00
C553   C     0.04677   0.29020   0.81853   0.00000  Uiso   1.00
C554   C     0.45148   0.20870   0.81872   0.00000  Uiso   1.00
C555   C     0.45323   0.29018   0.84818   0.00000  Uiso   1.00
C556   C     0.33492   0.24997   0.83342   0.00000  Uiso   1.00
C557   C     0.04852   0.20869   0.84790   0.00000  Uiso   1.00
C558   C     0.09267   0.29050   0.81898   0.00000  Uiso   1.00
C559   C     0.40557   0.20878   0.81905   0.00000  Uiso   1.00
C560   C     0.40733   0.29049   0.84773   0.00000  Uiso   1.00
C561   C     0.09443   0.20877   0.84757   0.00000  Uiso   1.00
C562   C     0.11679   0.24977   0.83329   0.00000  Uiso   1.00
C563   C     0.38321   0.24977   0.83337   0.00000  Uiso   1.00
C564   C     0.02429   0.24938   0.83324   0.00000  Uiso   1.00
C565   C     0.47571   0.24937   0.83342   0.00000  Uiso   1.00
C566   C     0.29833   0.12702   0.91299   0.00000  Uiso   1.00
C567   C     0.27228   0.10378   0.87069   0.00000  Uiso   1.00
C568   C     0.18692   0.37432   0.76652   0.00000  Uiso   1.00
C569   C     0.20167   0.12701   0.75367   0.00000  Uiso   1.00
C570   C     0.31308   0.37433   0.90015   0.00000  Uiso   1.00
C571   C     0.22012   0.39633   0.80314   0.00000  Uiso   1.00
C572   C     0.22772   0.10377   0.79597   0.00000  Uiso   1.00
C573   C     0.27988   0.39634   0.86353   0.00000  Uiso   1.00
C574   C     0.27086   0.05351   0.87170   0.00000  Uiso   1.00
C575   C     0.21915   0.44657   0.80436   0.00000  Uiso   1.00
C576   C     0.22914   0.05351   0.79497   0.00000  Uiso   1.00
Cu577  Cu    0.25000   0.29821   0.83333   0.00000  Uiso   1.00
Cu578  Cu    0.25000   0.20178   0.83333   0.00000  Uiso   1.00
H579   H     0.31683   0.15839   0.90140   0.00000  Uiso   1.00
H580   H     0.31255   0.33566   0.90289   0.00000  Uiso   1.00
H581   H     0.34692   0.38499   0.89093   0.00000  Uiso   1.00
H582   H     0.30724   0.38809   0.93752   0.00000  Uiso   1.00
H583   H     0.02888   0.32176   0.80615   0.00000  Uiso   1.00
H584   H     0.46793   0.17704   0.80634   0.00000  Uiso   1.00
H585   H     0.47112   0.32173   0.86059   0.00000  Uiso   1.00
H586   H     0.03206   0.17701   0.86024   0.00000  Uiso   1.00
H587   H     0.10918   0.32240   0.80751   0.00000  Uiso   1.00
H588   H     0.38758   0.17702   0.80743   0.00000  Uiso   1.00
H589   H     0.39083   0.32238   0.85923   0.00000  Uiso   1.00
H590   H     0.27602   0.13610   0.94258   0.00000  Uiso   1.00
H591   H     0.11241   0.17700   0.85915   0.00000  Uiso   1.00
H592   H     0.28611   0.03538   0.90332   0.00000  Uiso   1.00
H593   H     0.19361   0.46460   0.78207   0.00000  Uiso   1.00
H594   H     0.21389   0.03538   0.76334   0.00000  Uiso   1.00
H595   H     0.30639   0.46461   0.88459   0.00000  Uiso   1.00
H596   H     0.32382   0.10241   0.92946   0.00000  Uiso   1.00
H597   H     0.18745   0.33565   0.76378   0.00000  Uiso   1.00
H598   H     0.15308   0.38498   0.77574   0.00000  Uiso   1.00
H599   H     0.19276   0.38808   0.72915   0.00000  Uiso   1.00
H600   H     0.18317   0.15838   0.76527   0.00000  Uiso   1.00
H601   H     0.22398   0.13609   0.72409   0.00000  Uiso   1.00
H602   H     0.17618   0.10240   0.73721   0.00000  Uiso   1.00
N603   N     0.25000   0.12934   0.83333   0.00000  Uiso   1.00
N604   N     0.25000   0.37065   0.83333   0.00000  Uiso   1.00
O605   O     0.18573   0.29071   0.83334   0.00000  Uiso   1.00
O606   O     0.31427   0.20928   0.83333   0.00000  Uiso   1.00
O607   O     0.31427   0.29071   0.83333   0.00000  Uiso   1.00
O608   O     0.18573   0.20928   0.83334   0.00000  Uiso   1.00
O609   O     0.25000   0.29071   0.76280   0.00000  Uiso   1.00
O610   O     0.25000   0.20929   0.90387   0.00000  Uiso   1.00
O611   O     0.25000   0.29071   0.90387   0.00000  Uiso   1.00
O612   O     0.25000   0.20929   0.76280   0.00000  Uiso   1.00
C613   C     0.66508   0.24997   0.83325   0.00000  Uiso   1.00
C614   C     0.78085   0.44658   0.86231   0.00000  Uiso   1.00
C615   C     0.74986   0.25000   0.74031   0.00000  Uiso   1.00
C616   C     0.75014   0.25000   0.92635   0.00000  Uiso   1.00
C617   C     0.75000   0.02716   0.83333   0.00000  Uiso   1.00
C618   C     0.75000   0.47295   0.83333   0.00000  Uiso   1.00
C619   C     0.74995   0.24999   0.68854   0.00000  Uiso   1.00
C620   C     0.75005   0.24999   0.97812   0.00000  Uiso   1.00
C621   C     0.54677   0.29020   0.81853   0.00000  Uiso   1.00
C622   C     0.95148   0.20870   0.81872   0.00000  Uiso   1.00
C623   C     0.95323   0.29018   0.84818   0.00000  Uiso   1.00
C624   C     0.83492   0.24997   0.83342   0.00000  Uiso   1.00
C625   C     0.54852   0.20869   0.84790   0.00000  Uiso   1.00
C626   C     0.59267   0.29050   0.81898   0.00000  Uiso   1.00
C627   C     0.90557   0.20878   0.81905   0.00000  Uiso   1.00
C628   C     0.90733   0.29049   0.84773   0.00000  Uiso   1.00
C629   C     0.59443   0.20877   0.84757   0.00000  Uiso   1.00
C630   C     0.61679   0.24977   0.83329   0.00000  Uiso   1.00
C631   C     0.88321   0.24977   0.83337   0.00000  Uiso   1.00
C632   C     0.52429   0.24938   0.83324   0.00000  Uiso   1.00
C633   C     0.97571   0.24937   0.83342   0.00000  Uiso   1.00
C634   C     0.79833   0.12702   0.91299   0.00000  Uiso   1.00
C635   C     0.77228   0.10378   0.87069   0.00000  Uiso   1.00
C636   C     0.68692   0.37432   0.76652   0.00000  Uiso   1.00
C637   C     0.70167   0.12701   0.75367   0.00000  Uiso   1.00
C638   C     0.81308   0.37433   0.90015   0.00000  Uiso   1.00
C639   C     0.72012   0.39633   0.80314   0.00000  Uiso   1.00
C640   C     0.72772   0.10377   0.79597   0.00000  Uiso   1.00
C641   C     0.77988   0.39634   0.86353   0.00000  Uiso   1.00
C642   C     0.77086   0.05351   0.87170   0.00000  Uiso   1.00
C643   C     0.71915   0.44657   0.80436   0.00000  Uiso   1.00
C644   C     0.72914   0.05351   0.79497   0.00000  Uiso   1.00
Cu645  Cu    0.75000   0.29821   0.83333   0.00000  Uiso   1.00
Cu646  Cu    0.75000   0.20178   0.83333   0.00000  Uiso   1.00
H647   H     0.81683   0.15839   0.90140   0.00000  Uiso   1.00
H648   H     0.81255   0.33566   0.90289   0.00000  Uiso   1.00
H649   H     0.84692   0.38499   0.89093   0.00000  Uiso   1.00
H650   H     0.80724   0.38809   0.93752   0.00000  Uiso   1.00
H651   H     0.52888   0.32176   0.80615   0.00000  Uiso   1.00
H652   H     0.96793   0.17704   0.80634   0.00000  Uiso   1.00
H653   H     0.97112   0.32173   0.86059   0.00000  Uiso   1.00
H654   H     0.53206   0.17701   0.86024   0.00000  Uiso   1.00
H655   H     0.60918   0.32240   0.80751   0.00000  Uiso   1.00
H656   H     0.88758   0.17702   0.80743   0.00000  Uiso   1.00
H657   H     0.89083   0.32238   0.85923   0.00000  Uiso   1.00
H658   H     0.77602   0.13610   0.94258   0.00000  Uiso   1.00
H659   H     0.61241   0.17700   0.85915   0.00000  Uiso   1.00
H660   H     0.78611   0.03538   0.90332   0.00000  Uiso   1.00
H661   H     0.69361   0.46460   0.78207   0.00000  Uiso   1.00
H662   H     0.71389   0.03538   0.76334   0.00000  Uiso   1.00
H663   H     0.80639   0.46461   0.88459   0.00000  Uiso   1.00
H664   H     0.82382   0.10241   0.92946   0.00000  Uiso   1.00
H665   H     0.68745   0.33565   0.76378   0.00000  Uiso   1.00
H666   H     0.65308   0.38498   0.77574   0.00000  Uiso   1.00
H667   H     0.69276   0.38808   0.72915   0.00000  Uiso   1.00
H668   H     0.68317   0.15838   0.76527   0.00000  Uiso   1.00
H669   H     0.72398   0.13609   0.72409   0.00000  Uiso   1.00
H670   H     0.67618   0.10240   0.73721   0.00000  Uiso   1.00
N671   N     0.75000   0.12934   0.83333   0.00000  Uiso   1.00
N672   N     0.75000   0.37065   0.83333   0.00000  Uiso   1.00
O673   O     0.68573   0.29071   0.83334   0.00000  Uiso   1.00
O674   O     0.81427   0.20928   0.83333   0.00000  Uiso   1.00
O675   O     0.81427   0.29071   0.83333   0.00000  Uiso   1.00
O676   O     0.68573   0.20928   0.83334   0.00000  Uiso   1.00
O677   O     0.75000   0.29071   0.76280   0.00000  Uiso   1.00
O678   O     0.75000   0.20929   0.90387   0.00000  Uiso   1.00
O679   O     0.75000   0.29071   0.90387   0.00000  Uiso   1.00
O680   O     0.75000   0.20929   0.76280   0.00000  Uiso   1.00
C681   C     0.16508   0.74997   0.83325   0.00000  Uiso   1.00
C682   C     0.28085   0.94658   0.86231   0.00000  Uiso   1.00
C683   C     0.24986   0.75000   0.74031   0.00000  Uiso   1.00
C684   C     0.25014   0.75000   0.92635   0.00000  Uiso   1.00
C685   C     0.25000   0.52716   0.83333   0.00000  Uiso   1.00
C686   C     0.25000   0.97295   0.83333   0.00000  Uiso   1.00
C687   C     0.24995   0.74999   0.68854   0.00000  Uiso   1.00
C688   C     0.25005   0.74999   0.97812   0.00000  Uiso   1.00
C689   C     0.04677   0.79020   0.81853   0.00000  Uiso   1.00
C690   C     0.45148   0.70870   0.81872   0.00000  Uiso   1.00
C691   C     0.45323   0.79018   0.84818   0.00000  Uiso   1.00
C692   C     0.33492   0.74997   0.83342   0.00000  Uiso   1.00
C693   C     0.04852   0.70869   0.84790   0.00000  Uiso   1.00
C694   C     0.09267   0.79050   0.81898   0.00000  Uiso   1.00
C695   C     0.40557   0.70878   0.81905   0.00000  Uiso   1.00
C696   C     0.40733   0.79049   0.84773   0.00000  Uiso   1.00
C697   C     0.09443   0.70877   0.84757   0.00000  Uiso   1.00
C698   C     0.11679   0.74977   0.83329   0.00000  Uiso   1.00
C699   C     0.38321   0.74977   0.83337   0.00000  Uiso   1.00
C700   C     0.02429   0.74938   0.83324   0.00000  Uiso   1.00
C701   C     0.47571   0.74937   0.83342   0.00000  Uiso   1.00
C702   C     0.29833   0.62702   0.91299   0.00000  Uiso   1.00
C703   C     0.27228   0.60378   0.87069   0.00000  Uiso   1.00
C704   C     0.18692   0.87432   0.76652   0.00000  Uiso   1.00
C705   C     0.20167   0.62701   0.75367   0.00000  Uiso   1.00
C706   C     0.31308   0.87433   0.90015   0.00000  Uiso   1.00
C707   C     0.22012   0.89633   0.80314   0.00000  Uiso   1.00
C708   C     0.22772   0.60377   0.79597   0.00000  Uiso   1.00
C709   C     0.27988   0.89634   0.86353   0.00000  Uiso   1.00
C710   C     0.27086   0.55351   0.87170   0.00000  Uiso   1.00
C711   C     0.21915   0.94657   0.80436   0.00000  Uiso   1.00
C712   C     0.22914   0.55351   0.79497   0.00000  Uiso   1.00
Cu713  Cu    0.25000   0.79821   0.83333   0.00000  Uiso   1.00
Cu714  Cu    0.25000   0.70178   0.83333   0.00000  Uiso   1.00
H715   H     0.31683   0.65839   0.90140   0.00000  Uiso   1.00
H716   H     0.31255   0.83566   0.90289   0.00000  Uiso   1.00
H717   H     0.34692   0.88499   0.89093   0.00000  Uiso   1.00
H718   H     0.30724   0.88809   0.93752   0.00000  Uiso   1.00
H719   H     0.02888   0.82176   0.80615   0.00000  Uiso   1.00
H720   H     0.46793   0.67704   0.80634   0.00000  Uiso   1.00
H721   H     0.47112   0.82173   0.86059   0.00000  Uiso   1.00
H722   H     0.03206   0.67701   0.86024   0.00000  Uiso   1.00
H723   H     0.10918   0.82240   0.80751   0.00000  Uiso   1.00
H724   H     0.38758   0.67702   0.80743   0.00000  Uiso   1.00
H725   H     0.39083   0.82238   0.85923   0.00000  Uiso   1.00
H726   H     0.27602   0.63610   0.94258   0.00000  Uiso   1.00
H727   H     0.11241   0.67700   0.85915   0.00000  Uiso   1.00
H728   H     0.28611   0.53538   0.90332   0.00000  Uiso   1.00
H729   H     0.19361   0.96460   0.78207   0.00000  Uiso   1.00
H730   H     0.21389   0.53538   0.76334   0.00000  Uiso   1.00
H731   H     0.30639   0.96461   0.88459   0.00000  Uiso   1.00
H732   H     0.32382   0.60241   0.92946   0.00000  Uiso   1.00
H733   H     0.18745   0.83565   0.76378   0.00000  Uiso   1.00
H734   H     0.15308   0.88498   0.77574   0.00000  Uiso   1.00
H735   H     0.19276   0.88808   0.72915   0.00000  Uiso   1.00
H736   H     0.18317   0.65838   0.76527   0.00000  Uiso   1.00
H737   H     0.22398   0.63609   0.72409   0.00000  Uiso   1.00
H738   H     0.17618   0.60240   0.73721   0.00000  Uiso   1.00
N739   N     0.25000   0.62934   0.83333   0.00000  Uiso   1.00
N740   N     0.25000   0.87065   0.83333   0.00000  Uiso   1.00
O741   O     0.18573   0.79071   0.83334   0.00000  Uiso   1.00
O742   O     0.31427   0.70928   0.83333   0.00000  Uiso   1.00
O743   O     0.31427   0.79071   0.83333   0.00000  Uiso   1.00
O744   O     0.18573   0.70928   0.83334   0.00000  Uiso   1.00
O745   O     0.25000   0.79071   0.76280   0.00000  Uiso   1.00
O746   O     0.25000   0.70929   0.90387   0.00000  Uiso   1.00
O747   O     0.25000   0.79071   0.90387   0.00000  Uiso   1.00
O748   O     0.25000   0.70929   0.76280   0.00000  Uiso   1.00
C749   C     0.66508   0.74997   0.83325   0.00000  Uiso   1.00
C750   C     0.78085   0.94658   0.86231   0.00000  Uiso   1.00
C751   C     0.74986   0.75000   0.74031   0.00000  Uiso   1.00
C752   C     0.75014   0.75000   0.92635   0.00000  Uiso   1.00
C753   C     0.75000   0.52716   0.83333   0.00000  Uiso   1.00
C754   C     0.75000   0.97295   0.83333   0.00000  Uiso   1.00
C755   C     0.74995   0.74999   0.68854   0.00000  Uiso   1.00
C756   C     0.75005   0.74999   0.97812   0.00000  Uiso   1.00
C757   C     0.54677   0.79020   0.81853   0.00000  Uiso   1.00
C758   C     0.95148   0.70870   0.81872   0.00000  Uiso   1.00
C759   C     0.95323   0.79018   0.84818   0.00000  Uiso   1.00
C760   C     0.83492   0.74997   0.83342   0.00000  Uiso   1.00
C761   C     0.54852   0.70869   0.84790   0.00000  Uiso   1.00
C762   C     0.59267   0.79050   0.81898   0.00000  Uiso   1.00
C763   C     0.90557   0.70878   0.81905   0.00000  Uiso   1.00
C764   C     0.90733   0.79049   0.84773   0.00000  Uiso   1.00
C765   C     0.59443   0.70877   0.84757   0.00000  Uiso   1.00
C766   C     0.61679   0.74977   0.83329   0.00000  Uiso   1.00
C767   C     0.88321   0.74977   0.83337   0.00000  Uiso   1.00
C768   C     0.52429   0.74938   0.83324   0.00000  Uiso   1.00
C769   C     0.97571   0.74937   0.83342   0.00000  Uiso   1.00
C770   C     0.79833   0.62702   0.91299   0.00000  Uiso   1.00
C771   C     0.77228   0.60378   0.87069   0.00000  Uiso   1.00
C772   C     0.68692   0.87432   0.76652   0.00000  Uiso   1.00
C773   C     0.70167   0.62701   0.75367   0.00000  Uiso   1.00
C774   C     0.81308   0.87433   0.90015   0.00000  Uiso   1.00
C775   C     0.72012   0.89633   0.80314   0.00000  Uiso   1.00
C776   C     0.72772   0.60377   0.79597   0.00000  Uiso   1.00
C777   C     0.77988   0.89634   0.86353   0.00000  Uiso   1.00
C778   C     0.77086   0.55351   0.87170   0.00000  Uiso   1.00
C779   C     0.71915   0.94657   0.80436   0.00000  Uiso   1.00
C780   C     0.72914   0.55351   0.79497   0.00000  Uiso   1.00
Cu781  Cu    0.75000   0.79821   0.83333   0.00000  Uiso   1.00
Cu782  Cu    0.75000   0.70178   0.83333   0.00000  Uiso   1.00
H783   H     0.81683   0.65839   0.90140   0.00000  Uiso   1.00
H784   H     0.81255   0.83566   0.90289   0.00000  Uiso   1.00
H785   H     0.84692   0.88499   0.89093   0.00000  Uiso   1.00
H786   H     0.80724   0.88809   0.93752   0.00000  Uiso   1.00
H787   H     0.52888   0.82176   0.80615   0.00000  Uiso   1.00
H788   H     0.96793   0.67704   0.80634   0.00000  Uiso   1.00
H789   H     0.97112   0.82173   0.86059   0.00000  Uiso   1.00
H790   H     0.53206   0.67701   0.86024   0.00000  Uiso   1.00
H791   H     0.60918   0.82240   0.80751   0.00000  Uiso   1.00
H792   H     0.88758   0.67702   0.80743   0.00000  Uiso   1.00
H793   H     0.89083   0.82238   0.85923   0.00000  Uiso   1.00
H794   H     0.77602   0.63610   0.94258   0.00000  Uiso   1.00
H795   H     0.61241   0.67700   0.85915   0.00000  Uiso   1.00
H796   H     0.78611   0.53538   0.90332   0.00000  Uiso   1.00
H797   H     0.69361   0.96460   0.78207   0.00000  Uiso   1.00
H798   H     0.71389   0.53538   0.76334   0.00000  Uiso   1.00
H799   H     0.80639   0.96461   0.88459   0.00000  Uiso   1.00
H800   H     0.82382   0.60241   0.92946   0.00000  Uiso   1.00
H801   H     0.68745   0.83565   0.76378   0.00000  Uiso   1.00
H802   H     0.65308   0.88498   0.77574   0.00000  Uiso   1.00
H803   H     0.69276   0.88808   0.72915   0.00000  Uiso   1.00
H804   H     0.68317   0.65838   0.76527   0.00000  Uiso   1.00
H805   H     0.72398   0.63609   0.72409   0.00000  Uiso   1.00
H806   H     0.67618   0.60240   0.73721   0.00000  Uiso   1.00
N807   N     0.75000   0.62934   0.83333   0.00000  Uiso   1.00
N808   N     0.75000   0.87065   0.83333   0.00000  Uiso   1.00
O809   O     0.68573   0.79071   0.83334   0.00000  Uiso   1.00
O810   O     0.81427   0.70928   0.83333   0.00000  Uiso   1.00
O811   O     0.81427   0.79071   0.83333   0.00000  Uiso   1.00
O812   O     0.68573   0.70928   0.83334   0.00000  Uiso   1.00
O813   O     0.75000   0.79071   0.76280   0.00000  Uiso   1.00
O814   O     0.75000   0.70929   0.90387   0.00000  Uiso   1.00
O815   O     0.75000   0.79071   0.90387   0.00000  Uiso   1.00
O816   O     0.75000   0.70929   0.76280   0.00000  Uiso   1.00
loop_
_geom_bond_atom_site_label_1
_geom_bond_atom_site_label_2
_geom_bond_distance
_geom_bond_site_symmetry_2
_ccdc_geom_bond_type
C1     C18     1.462   .     S
C1     O64     1.303   .     A
C1     O61     1.305   .     A
C2     C6      1.400   .     A
C2     C29     1.412   .     A
C2     H51     1.081   .     S
C3     O68     1.297   .     A
C3     O65     1.297   .     A
C3     C7      1.408   .     S
C4     O67     1.297   .     A
C4     O66     1.297   .     A
C4     C8      1.408   .     S
C5     C32     1.400   .     A
C5     C30     1.400   .     A
C5     C142    1.523   1_545 S
C6     C31     1.400   .     A
C6     C141    1.523   .     S
C7     C552    1.190   1_554 S
C8     C279    1.190   .     S
C9     C14     1.389   .     A
C9     C20     1.404   .     A
C9     H39     1.083   .     S
C10    C21     1.404   .     A
C10    C15     1.391   .     A
C10    H40     1.083   .     S
C11    H41     1.083   .     S
C11    C16     1.389   .     A
C11    C21     1.404   .     A
C12    O62     1.303   .     A
C12    C19     1.462   .     S
C12    O63     1.305   .     A
C13    C17     1.391   .     A
C13    H42     1.083   .     S
C13    C20     1.404   .     A
C14    C18     1.401   .     A
C14    H43     1.081   .     S
C15    H44     1.083   .     S
C15    C19     1.402   .     A
C16    H45     1.081   .     S
C16    C19     1.401   .     A
C17    C18     1.402   .     A
C17    H47     1.083   .     S
C20    C89     1.471   1_455 S
C21    C88     1.471   .     S
C22    H35     1.100   .     S
C22    H46     1.109   .     S
C22    H52     1.111   .     S
C22    C23     1.506   .     S
C23    N59     1.388   .     A
C23    C30     1.413   .     A
C24    C27     1.507   .     S
C24    H54     1.110   .     S
C24    H53     1.089   .     S
C24    H55     1.111   .     S
C25    C28     1.506   .     S
C25    H57     1.109   .     S
C25    H56     1.100   .     S
C25    H58     1.111   .     S
C26    H37     1.110   .     S
C26    C29     1.507   .     S
C26    H38     1.111   .     S
C26    H36     1.089   .     S
C27    N60     1.389   .     A
C27    C31     1.412   .     A
C28    C32     1.413   .     A
C28    N59     1.388   .     A
C29    N60     1.389   .     A
C30    H48     1.080   .     S
C31    H49     1.081   .     S
C32    H50     1.080   .     S
Cu33   O63     1.958   .     S
Cu33   O65     1.930   .     S
Cu33   O61     1.958   .     S
Cu33   Cu34    2.710   .     S
Cu33   N60     2.036   .     S
Cu33   O67     1.930   .     S
Cu34   O66     1.930   .     S
Cu34   O64     1.958   .     S
Cu34   O62     1.958   .     S
Cu34   O68     1.930   .     S
Cu34   N59     2.036   .     S
C69    C86     1.462   .     S
C69    O132    1.303   .     A
C69    O129    1.305   .     A
C70    C74     1.400   .     A
C70    C97     1.412   .     A
C70    H119    1.081   .     S
C71    O136    1.297   .     A
C71    O133    1.297   .     A
C71    C75     1.408   .     S
C72    O135    1.297   .     A
C72    O134    1.297   .     A
C72    C76     1.408   .     S
C73    C100    1.400   .     A
C73    C98     1.400   .     A
C73    C210    1.523   1_545 S
C74    C99     1.400   .     A
C74    C209    1.523   .     S
C75    C620    1.190   1_554 S
C76    C347    1.190   .     S
C77    C82     1.389   .     A
C77    C88     1.404   .     A
C77    H107    1.083   .     S
C78    C89     1.404   .     A
C78    C83     1.391   .     A
C78    H108    1.083   .     S
C79    H109    1.083   .     S
C79    C84     1.389   .     A
C79    C89     1.404   .     A
C80    O130    1.303   .     A
C80    C87     1.462   .     S
C80    O131    1.305   .     A
C81    C85     1.391   .     A
C81    H110    1.083   .     S
C81    C88     1.404   .     A
C82    C86     1.401   .     A
C82    H111    1.081   .     S
C83    H112    1.083   .     S
C83    C87     1.402   .     A
C84    H113    1.081   .     S
C84    C87     1.401   .     A
C85    C86     1.402   .     A
C85    H115    1.083   .     S
C89    C20     1.471   1_655 S
C90    H103    1.100   .     S
C90    H114    1.109   .     S
C90    H120    1.111   .     S
C90    C91     1.506   .     S
C91    N127    1.388   .     A
C91    C98     1.413   .     A
C92    C95     1.507   .     S
C92    H122    1.110   .     S
C92    H121    1.089   .     S
C92    H123    1.111   .     S
C93    C96     1.506   .     S
C93    H125    1.109   .     S
C93    H124    1.100   .     S
C93    H126    1.111   .     S
C94    H105    1.110   .     S
C94    C97     1.507   .     S
C94    H106    1.111   .     S
C94    H104    1.089   .     S
C95    N128    1.389   .     A
C95    C99     1.412   .     A
C96    C100    1.413   .     A
C96    N127    1.388   .     A
C97    N128    1.389   .     A
C98    H116    1.080   .     S
C99    H117    1.081   .     S
C100   H118    1.080   .     S
Cu101  O131    1.958   .     S
Cu101  O133    1.930   .     S
Cu101  O129    1.958   .     S
Cu101  Cu102   2.710   .     S
Cu101  N128    2.036   .     S
Cu101  O135    1.930   .     S
Cu102  O134    1.930   .     S
Cu102  O132    1.958   .     S
Cu102  O130    1.958   .     S
Cu102  O136    1.930   .     S
Cu102  N127    2.036   .     S
C137   C154    1.462   .     S
C137   O200    1.303   .     A
C137   O197    1.305   .     A
C138   C142    1.400   .     A
C138   C165    1.412   .     A
C138   H187    1.081   .     S
C139   O204    1.297   .     A
C139   O201    1.297   .     A
C139   C143    1.408   .     S
C140   O203    1.297   .     A
C140   O202    1.297   .     A
C140   C144    1.408   .     S
C141   C168    1.400   .     A
C141   C166    1.400   .     A
C142   C167    1.400   .     A
C142   C5      1.523   1_565 S
C143   C688    1.190   1_554 S
C144   C415    1.190   .     S
C145   C150    1.389   .     A
C145   C156    1.404   .     A
C145   H175    1.083   .     S
C146   C157    1.404   .     A
C146   C151    1.391   .     A
C146   H176    1.083   .     S
C147   H177    1.083   .     S
C147   C152    1.389   .     A
C147   C157    1.404   .     A
C148   O198    1.303   .     A
C148   C155    1.462   .     S
C148   O199    1.305   .     A
C149   C153    1.391   .     A
C149   H178    1.083   .     S
C149   C156    1.404   .     A
C150   C154    1.401   .     A
C150   H179    1.081   .     S
C151   H180    1.083   .     S
C151   C155    1.402   .     A
C152   H181    1.081   .     S
C152   C155    1.401   .     A
C153   C154    1.402   .     A
C153   H183    1.083   .     S
C156   C225    1.471   1_455 S
C157   C224    1.471   .     S
C158   H171    1.100   .     S
C158   H182    1.109   .     S
C158   H188    1.111   .     S
C158   C159    1.506   .     S
C159   N195    1.388   .     A
C159   C166    1.413   .     A
C160   C163    1.507   .     S
C160   H190    1.110   .     S
C160   H189    1.089   .     S
C160   H191    1.111   .     S
C161   C164    1.506   .     S
C161   H193    1.109   .     S
C161   H192    1.100   .     S
C161   H194    1.111   .     S
C162   H173    1.110   .     S
C162   C165    1.507   .     S
C162   H174    1.111   .     S
C162   H172    1.089   .     S
C163   N196    1.389   .     A
C163   C167    1.412   .     A
C164   C168    1.413   .     A
C164   N195    1.388   .     A
C165   N196    1.389   .     A
C166   H184    1.080   .     S
C167   H185    1.081   .     S
C168   H186    1.080   .     S
Cu169  O199    1.958   .     S
Cu169  O201    1.930   .     S
Cu169  O197    1.958   .     S
Cu169  Cu170   2.710   .     S
Cu169  N196    2.036   .     S
Cu169  O203    1.930   .     S
Cu170  O202    1.930   .     S
Cu170  O200    1.958   .     S
Cu170  O198    1.958   .     S
Cu170  O204    1.930   .     S
Cu170  N195    2.036   .     S
C205   C222    1.462   .     S
C205   O268    1.303   .     A
C205   O265    1.305   .     A
C206   C210    1.400   .     A
C206   C233    1.412   .     A
C206   H255    1.081   .     S
C207   O272    1.297   .     A
C207   O269    1.297   .     A
C207   C211    1.408   .     S
C208   O271    1.297   .     A
C208   O270    1.297   .     A
C208   C212    1.408   .     S
C209   C236    1.400   .     A
C209   C234    1.400   .     A
C210   C235    1.400   .     A
C210   C73     1.523   1_565 S
C211   C756    1.190   1_554 S
C212   C483    1.190   .     S
C213   C218    1.389   .     A
C213   C224    1.404   .     A
C213   H243    1.083   .     S
C214   C225    1.404   .     A
C214   C219    1.391   .     A
C214   H244    1.083   .     S
C215   H245    1.083   .     S
C215   C220    1.389   .     A
C215   C225    1.404   .     A
C216   O266    1.303   .     A
C216   C223    1.462   .     S
C216   O267    1.305   .     A
C217   C221    1.391   .     A
C217   H246    1.083   .     S
C217   C224    1.404   .     A
C218   C222    1.401   .     A
C218   H247    1.081   .     S
C219   H248    1.083   .     S
C219   C223    1.402   .     A
C220   H249    1.081   .     S
C220   C223    1.401   .     A
C221   C222    1.402   .     A
C221   H251    1.083   .     S
C225   C156    1.471   1_655 S
C226   H239    1.100   .     S
C226   H250    1.109   .     S
C226   H256    1.111   .     S
C226   C227    1.506   .     S
C227   N263    1.388   .     A
C227   C234    1.413   .     A
C228   C231    1.507   .     S
C228   H258    1.110   .     S
C228   H257    1.089   .     S
C228   H259    1.111   .     S
C229   C232    1.506   .     S
C229   H261    1.109   .     S
C229   H260    1.100   .     S
C229   H262    1.111   .     S
C230   H241    1.110   .     S
C230   C233    1.507   .     S
C230   H242    1.111   .     S
C230   H240    1.089   .     S
C231   N264    1.389   .     A
C231   C235    1.412   .     A
C232   C236    1.413   .     A
C232   N263    1.388   .     A
C233   N264    1.389   .     A
C234   H252    1.080   .     S
C235   H253    1.081   .     S
C236   H254    1.080   .     S
Cu237  O267    1.958   .     S
Cu237  O269    1.930   .     S
Cu237  O265    1.958   .     S
Cu237  Cu238   2.710   .     S
Cu237  N264    2.036   .     S
Cu237  O271    1.930   .     S
Cu238  O270    1.930   .     S
Cu238  O268    1.958   .     S
Cu238  O266    1.958   .     S
Cu238  O272    1.930   .     S
Cu238  N263    2.036   .     S
C273   C290    1.462   .     S
C273   O336    1.303   .     A
C273   O333    1.305   .     A
C274   C278    1.400   .     A
C274   C301    1.412   .     A
C274   H323    1.081   .     S
C275   O340    1.297   .     A
C275   O337    1.297   .     A
C275   C279    1.408   .     S
C276   O339    1.297   .     A
C276   O338    1.297   .     A
C276   C280    1.408   .     S
C277   C304    1.400   .     A
C277   C302    1.400   .     A
C277   C414    1.523   1_545 S
C278   C303    1.400   .     A
C278   C413    1.523   .     S
C280   C551    1.190   .     S
C281   C286    1.389   .     A
C281   C292    1.404   .     A
C281   H311    1.083   .     S
C282   C293    1.404   .     A
C282   C287    1.391   .     A
C282   H312    1.083   .     S
C283   H313    1.083   .     S
C283   C288    1.389   .     A
C283   C293    1.404   .     A
C284   O334    1.303   .     A
C284   C291    1.462   .     S
C284   O335    1.305   .     A
C285   C289    1.391   .     A
C285   H314    1.083   .     S
C285   C292    1.404   .     A
C286   C290    1.401   .     A
C286   H315    1.081   .     S
C287   H316    1.083   .     S
C287   C291    1.402   .     A
C288   H317    1.081   .     S
C288   C291    1.401   .     A
C289   C290    1.402   .     A
C289   H319    1.083   .     S
C292   C361    1.471   1_455 S
C293   C360    1.471   .     S
C294   H307    1.100   .     S
C294   H318    1.109   .     S
C294   H324    1.111   .     S
C294   C295    1.506   .     S
C295   N331    1.388   .     A
C295   C302    1.413   .     A
C296   C299    1.507   .     S
C296   H326    1.110   .     S
C296   H325    1.089   .     S
C296   H327    1.111   .     S
C297   C300    1.506   .     S
C297   H329    1.109   .     S
C297   H328    1.100   .     S
C297   H330    1.111   .     S
C298   H309    1.110   .     S
C298   C301    1.507   .     S
C298   H310    1.111   .     S
C298   H308    1.089   .     S
C299   N332    1.389   .     A
C299   C303    1.412   .     A
C300   C304    1.413   .     A
C300   N331    1.388   .     A
C301   N332    1.389   .     A
C302   H320    1.080   .     S
C303   H321    1.081   .     S
C304   H322    1.080   .     S
Cu305  O335    1.958   .     S
Cu305  O337    1.930   .     S
Cu305  O333    1.958   .     S
Cu305  Cu306   2.710   .     S
Cu305  N332    2.036   .     S
Cu305  O339    1.930   .     S
Cu306  O338    1.930   .     S
Cu306  O336    1.958   .     S
Cu306  O334    1.958   .     S
Cu306  O340    1.930   .     S
Cu306  N331    2.036   .     S
C341   C358    1.462   .     S
C341   O404    1.303   .     A
C341   O401    1.305   .     A
C342   C346    1.400   .     A
C342   C369    1.412   .     A
C342   H391    1.081   .     S
C343   O408    1.297   .     A
C343   O405    1.297   .     A
C343   C347    1.408   .     S
C344   O407    1.297   .     A
C344   O406    1.297   .     A
C344   C348    1.408   .     S
C345   C372    1.400   .     A
C345   C370    1.400   .     A
C345   C482    1.523   1_545 S
C346   C371    1.400   .     A
C346   C481    1.523   .     S
C348   C619    1.190   .     S
C349   C354    1.389   .     A
C349   C360    1.404   .     A
C349   H379    1.083   .     S
C350   C361    1.404   .     A
C350   C355    1.391   .     A
C350   H380    1.083   .     S
C351   H381    1.083   .     S
C351   C356    1.389   .     A
C351   C361    1.404   .     A
C352   O402    1.303   .     A
C352   C359    1.462   .     S
C352   O403    1.305   .     A
C353   C357    1.391   .     A
C353   H382    1.083   .     S
C353   C360    1.404   .     A
C354   C358    1.401   .     A
C354   H383    1.081   .     S
C355   H384    1.083   .     S
C355   C359    1.402   .     A
C356   H385    1.081   .     S
C356   C359    1.401   .     A
C357   C358    1.402   .     A
C357   H387    1.083   .     S
C361   C292    1.471   1_655 S
C362   H375    1.100   .     S
C362   H386    1.109   .     S
C362   H392    1.111   .     S
C362   C363    1.506   .     S
C363   N399    1.388   .     A
C363   C370    1.413   .     A
C364   C367    1.507   .     S
C364   H394    1.110   .     S
C364   H393    1.089   .     S
C364   H395    1.111   .     S
C365   C368    1.506   .     S
C365   H397    1.109   .     S
C365   H396    1.100   .     S
C365   H398    1.111   .     S
C366   H377    1.110   .     S
C366   C369    1.507   .     S
C366   H378    1.111   .     S
C366   H376    1.089   .     S
C367   N400    1.389   .     A
C367   C371    1.412   .     A
C368   C372    1.413   .     A
C368   N399    1.388   .     A
C369   N400    1.389   .     A
C370   H388    1.080   .     S
C371   H389    1.081   .     S
C372   H390    1.080   .     S
Cu373  O403    1.958   .     S
Cu373  O405    1.930   .     S
Cu373  O401    1.958   .     S
Cu373  Cu374   2.710   .     S
Cu373  N400    2.036   .     S
Cu373  O407    1.930   .     S
Cu374  O406    1.930   .     S
Cu374  O404    1.958   .     S
Cu374  O402    1.958   .     S
Cu374  O408    1.930   .     S
Cu374  N399    2.036   .     S
C409   C426    1.462   .     S
C409   O472    1.303   .     A
C409   O469    1.305   .     A
C410   C414    1.400   .     A
C410   C437    1.412   .     A
C410   H459    1.081   .     S
C411   O476    1.297   .     A
C411   O473    1.297   .     A
C411   C415    1.408   .     S
C412   O475    1.297   .     A
C412   O474    1.297   .     A
C412   C416    1.408   .     S
C413   C440    1.400   .     A
C413   C438    1.400   .     A
C414   C439    1.400   .     A
C414   C277    1.523   1_565 S
C416   C687    1.190   .     S
C417   C422    1.389   .     A
C417   C428    1.404   .     A
C417   H447    1.083   .     S
C418   C429    1.404   .     A
C418   C423    1.391   .     A
C418   H448    1.083   .     S
C419   H449    1.083   .     S
C419   C424    1.389   .     A
C419   C429    1.404   .     A
C420   O470    1.303   .     A
C420   C427    1.462   .     S
C420   O471    1.305   .     A
C421   C425    1.391   .     A
C421   H450    1.083   .     S
C421   C428    1.404   .     A
C422   C426    1.401   .     A
C422   H451    1.081   .     S
C423   H452    1.083   .     S
C423   C427    1.402   .     A
C424   H453    1.081   .     S
C424   C427    1.401   .     A
C425   C426    1.402   .     A
C425   H455    1.083   .     S
C428   C497    1.471   1_455 S
C429   C496    1.471   .     S
C430   H443    1.100   .     S
C430   H454    1.109   .     S
C430   H460    1.111   .     S
C430   C431    1.506   .     S
C431   N467    1.388   .     A
C431   C438    1.413   .     A
C432   C435    1.507   .     S
C432   H462    1.110   .     S
C432   H461    1.089   .     S
C432   H463    1.111   .     S
C433   C436    1.506   .     S
C433   H465    1.109   .     S
C433   H464    1.100   .     S
C433   H466    1.111   .     S
C434   H445    1.110   .     S
C434   C437    1.507   .     S
C434   H446    1.111   .     S
C434   H444    1.089   .     S
C435   N468    1.389   .     A
C435   C439    1.412   .     A
C436   C440    1.413   .     A
C436   N467    1.388   .     A
C437   N468    1.389   .     A
C438   H456    1.080   .     S
C439   H457    1.081   .     S
C440   H458    1.080   .     S
Cu441  O471    1.958   .     S
Cu441  O473    1.930   .     S
Cu441  O469    1.958   .     S
Cu441  Cu442   2.710   .     S
Cu441  N468    2.036   .     S
Cu441  O475    1.930   .     S
Cu442  O474    1.930   .     S
Cu442  O472    1.958   .     S
Cu442  O470    1.958   .     S
Cu442  O476    1.930   .     S
Cu442  N467    2.036   .     S
C477   C494    1.462   .     S
C477   O540    1.303   .     A
C477   O537    1.305   .     A
C478   C482    1.400   .     A
C478   C505    1.412   .     A
C478   H527    1.081   .     S
C479   O544    1.297   .     A
C479   O541    1.297   .     A
C479   C483    1.408   .     S
C480   O543    1.297   .     A
C480   O542    1.297   .     A
C480   C484    1.408   .     S
C481   C508    1.400   .     A
C481   C506    1.400   .     A
C482   C507    1.400   .     A
C482   C345    1.523   1_565 S
C484   C755    1.190   .     S
C485   C490    1.389   .     A
C485   C496    1.404   .     A
C485   H515    1.083   .     S
C486   C497    1.404   .     A
C486   C491    1.391   .     A
C486   H516    1.083   .     S
C487   H517    1.083   .     S
C487   C492    1.389   .     A
C487   C497    1.404   .     A
C488   O538    1.303   .     A
C488   C495    1.462   .     S
C488   O539    1.305   .     A
C489   C493    1.391   .     A
C489   H518    1.083   .     S
C489   C496    1.404   .     A
C490   C494    1.401   .     A
C490   H519    1.081   .     S
C491   H520    1.083   .     S
C491   C495    1.402   .     A
C492   H521    1.081   .     S
C492   C495    1.401   .     A
C493   C494    1.402   .     A
C493   H523    1.083   .     S
C497   C428    1.471   1_655 S
C498   H511    1.100   .     S
C498   H522    1.109   .     S
C498   H528    1.111   .     S
C498   C499    1.506   .     S
C499   N535    1.388   .     A
C499   C506    1.413   .     A
C500   C503    1.507   .     S
C500   H530    1.110   .     S
C500   H529    1.089   .     S
C500   H531    1.111   .     S
C501   C504    1.506   .     S
C501   H533    1.109   .     S
C501   H532    1.100   .     S
C501   H534    1.111   .     S
C502   H513    1.110   .     S
C502   C505    1.507   .     S
C502   H514    1.111   .     S
C502   H512    1.089   .     S
C503   N536    1.389   .     A
C503   C507    1.412   .     A
C504   C508    1.413   .     A
C504   N535    1.388   .     A
C505   N536    1.389   .     A
C506   H524    1.080   .     S
C507   H525    1.081   .     S
C508   H526    1.080   .     S
Cu509  O539    1.958   .     S
Cu509  O541    1.930   .     S
Cu509  O537    1.958   .     S
Cu509  Cu510   2.710   .     S
Cu509  N536    2.036   .     S
Cu509  O543    1.930   .     S
Cu510  O542    1.930   .     S
Cu510  O540    1.958   .     S
Cu510  O538    1.958   .     S
Cu510  O544    1.930   .     S
Cu510  N535    2.036   .     S
C545   C562    1.462   .     S
C545   O608    1.303   .     A
C545   O605    1.305   .     A
C546   C550    1.400   .     A
C546   C573    1.412   .     A
C546   H595    1.081   .     S
C547   O612    1.297   .     A
C547   O609    1.297   .     A
C547   C551    1.408   .     S
C548   O611    1.297   .     A
C548   O610    1.297   .     A
C548   C552    1.408   .     S
C549   C576    1.400   .     A
C549   C574    1.400   .     A
C549   C686    1.523   1_545 S
C550   C575    1.400   .     A
C550   C685    1.523   .     S
C552   C7      1.190   1_556 S
C553   C558    1.389   .     A
C553   C564    1.404   .     A
C553   H583    1.083   .     S
C554   C565    1.404   .     A
C554   C559    1.391   .     A
C554   H584    1.083   .     S
C555   H585    1.083   .     S
C555   C560    1.389   .     A
C555   C565    1.404   .     A
C556   O606    1.303   .     A
C556   C563    1.462   .     S
C556   O607    1.305   .     A
C557   C561    1.391   .     A
C557   H586    1.083   .     S
C557   C564    1.404   .     A
C558   C562    1.401   .     A
C558   H587    1.081   .     S
C559   H588    1.083   .     S
C559   C563    1.402   .     A
C560   H589    1.081   .     S
C560   C563    1.401   .     A
C561   C562    1.402   .     A
C561   H591    1.083   .     S
C564   C633    1.471   1_455 S
C565   C632    1.471   .     S
C566   H579    1.100   .     S
C566   H590    1.109   .     S
C566   H596    1.111   .     S
C566   C567    1.506   .     S
C567   N603    1.388   .     A
C567   C574    1.413   .     A
C568   C571    1.507   .     S
C568   H598    1.110   .     S
C568   H597    1.089   .     S
C568   H599    1.111   .     S
C569   C572    1.506   .     S
C569   H601    1.109   .     S
C569   H600    1.100   .     S
C569   H602    1.111   .     S
C570   H581    1.110   .     S
C570   C573    1.507   .     S
C570   H582    1.111   .     S
C570   H580    1.089   .     S
C571   N604    1.389   .     A
C571   C575    1.412   .     A
C572   C576    1.413   .     A
C572   N603    1.388   .     A
C573   N604    1.389   .     A
C574   H592    1.080   .     S
C575   H593    1.081   .     S
C576   H594    1.080   .     S
Cu577  O607    1.958   .     S
Cu577  O609    1.930   .     S
Cu577  O605    1.958   .     S
Cu577  Cu578   2.710   .     S
Cu577  N604    2.036   .     S
Cu577  O611    1.930   .     S
Cu578  O610    1.930   .     S
Cu578  O608    1.958   .     S
Cu578  O606    1.958   .     S
Cu578  O612    1.930   .     S
Cu578  N603    2.036   .     S
C613   C630    1.462   .     S
C613   O676    1.303   .     A
C613   O673    1.305   .     A
C614   C618    1.400   .     A
C614   C641    1.412   .     A
C614   H663    1.081   .     S
C615   O680    1.297   .     A
C615   O677    1.297   .     A
C615   C619    1.408   .     S
C616   O679    1.297   .     A
C616   O678    1.297   .     A
C616   C620    1.408   .     S
C617   C644    1.400   .     A
C617   C642    1.400   .     A
C617   C754    1.523   1_545 S
C618   C643    1.400   .     A
C618   C753    1.523   .     S
C620   C75     1.190   1_556 S
C621   C626    1.389   .     A
C621   C632    1.404   .     A
C621   H651    1.083   .     S
C622   C633    1.404   .     A
C622   C627    1.391   .     A
C622   H652    1.083   .     S
C623   H653    1.083   .     S
C623   C628    1.389   .     A
C623   C633    1.404   .     A
C624   O674    1.303   .     A
C624   C631    1.462   .     S
C624   O675    1.305   .     A
C625   C629    1.391   .     A
C625   H654    1.083   .     S
C625   C632    1.404   .     A
C626   C630    1.401   .     A
C626   H655    1.081   .     S
C627   H656    1.083   .     S
C627   C631    1.402   .     A
C628   H657    1.081   .     S
C628   C631    1.401   .     A
C629   C630    1.402   .     A
C629   H659    1.083   .     S
C633   C564    1.471   1_655 S
C634   H647    1.100   .     S
C634   H658    1.109   .     S
C634   H664    1.111   .     S
C634   C635    1.506   .     S
C635   N671    1.388   .     A
C635   C642    1.413   .     A
C636   C639    1.507   .     S
C636   H666    1.110   .     S
C636   H665    1.089   .     S
C636   H667    1.111   .     S
C637   C640    1.506   .     S
C637   H669    1.109   .     S
C637   H668    1.100   .     S
C637   H670    1.111   .     S
C638   H649    1.110   .     S
C638   C641    1.507   .     S
C638   H650    1.111   .     S
C638   H648    1.089   .     S
C639   N672    1.389   .     A
C639   C643    1.412   .     A
C640   C644    1.413   .     A
C640   N671    1.388   .     A
C641   N672    1.389   .     A
C642   H660    1.080   .     S
C643   H661    1.081   .     S
C644   H662    1.080   .     S
Cu645  O675    1.958   .     S
Cu645  O677    1.930   .     S
Cu645  O673    1.958   .     S
Cu645  Cu646   2.710   .     S
Cu645  N672    2.036   .     S
Cu645  O679    1.930   .     S
Cu646  O678    1.930   .     S
Cu646  O676    1.958   .     S
Cu646  O674    1.958   .     S
Cu646  O680    1.930   .     S
Cu646  N671    2.036   .     S
C681   C698    1.462   .     S
C681   O744    1.303   .     A
C681   O741    1.305   .     A
C682   C686    1.400   .     A
C682   C709    1.412   .     A
C682   H731    1.081   .     S
C683   O748    1.297   .     A
C683   O745    1.297   .     A
C683   C687    1.408   .     S
C684   O747    1.297   .     A
C684   O746    1.297   .     A
C684   C688    1.408   .     S
C685   C712    1.400   .     A
C685   C710    1.400   .     A
C686   C711    1.400   .     A
C686   C549    1.523   1_565 S
C688   C143    1.190   1_556 S
C689   C694    1.389   .     A
C689   C700    1.404   .     A
C689   H719    1.083   .     S
C690   C701    1.404   .     A
C690   C695    1.391   .     A
C690   H720    1.083   .     S
C691   H721    1.083   .     S
C691   C696    1.389   .     A
C691   C701    1.404   .     A
C692   O742    1.303   .     A
C692   C699    1.462   .     S
C692   O743    1.305   .     A
C693   C697    1.391   .     A
C693   H722    1.083   .     S
C693   C700    1.404   .     A
C694   C698    1.401   .     A
C694   H723    1.081   .     S
C695   H724    1.083   .     S
C695   C699    1.402   .     A
C696   H725    1.081   .     S
C696   C699    1.401   .     A
C697   C698    1.402   .     A
C697   H727    1.083   .     S
C700   C769    1.471   1_455 S
C701   C768    1.471   .     S
C702   H715    1.100   .     S
C702   H726    1.109   .     S
C702   H732    1.111   .     S
C702   C703    1.506   .     S
C703   N739    1.388   .     A
C703   C710    1.413   .     A
C704   C707    1.507   .     S
C704   H734    1.110   .     S
C704   H733    1.089   .     S
C704   H735    1.111   .     S
C705   C708    1.506   .     S
C705   H737    1.109   .     S
C705   H736    1.100   .     S
C705   H738    1.111   .     S
C706   H717    1.110   .     S
C706   C709    1.507   .     S
C706   H718    1.111   .     S
C706   H716    1.089   .     S
C707   N740    1.389   .     A
C707   C711    1.412   .     A
C708   C712    1.413   .     A
C708   N739    1.388   .     A
C709   N740    1.389   .     A
C710   H728    1.080   .     S
C711   H729    1.081   .     S
C712   H730    1.080   .     S
Cu713  O743    1.958   .     S
Cu713  O745    1.930   .     S
Cu713  O741    1.958   .     S
Cu713  Cu714   2.710   .     S
Cu713  N740    2.036   .     S
Cu713  O747    1.930   .     S
Cu714  O746    1.930   .     S
Cu714  O744    1.958   .     S
Cu714  O742    1.958   .     S
Cu714  O748    1.930   .     S
Cu714  N739    2.036   .     S
C749   C766    1.462   .     S
C749   O812    1.303   .     A
C749   O809    1.305   .     A
C750   C754    1.400   .     A
C750   C777    1.412   .     A
C750   H799    1.081   .     S
C751   O816    1.297   .     A
C751   O813    1.297   .     A
C751   C755    1.408   .     S
C752   O815    1.297   .     A
C752   O814    1.297   .     A
C752   C756    1.408   .     S
C753   C780    1.400   .     A
C753   C778    1.400   .     A
C754   C779    1.400   .     A
C754   C617    1.523   1_565 S
C756   C211    1.190   1_556 S
C757   C762    1.389   .     A
C757   C768    1.404   .     A
C757   H787    1.083   .     S
C758   C769    1.404   .     A
C758   C763    1.391   .     A
C758   H788    1.083   .     S
C759   H789    1.083   .     S
C759   C764    1.389   .     A
C759   C769    1.404   .     A
C760   O810    1.303   .     A
C760   C767    1.462   .     S
C760   O811    1.305   .     A
C761   C765    1.391   .     A
C761   H790    1.083   .     S
C761   C768    1.404   .     A
C762   C766    1.401   .     A
C762   H791    1.081   .     S
C763   H792    1.083   .     S
C763   C767    1.402   .     A
C764   H793    1.081   .     S
C764   C767    1.401   .     A
C765   C766    1.402   .     A
C765   H795    1.083   .     S
C769   C700    1.471   1_655 S
C770   H783    1.100   .     S
C770   H794    1.109   .     S
C770   H800    1.111   .     S
C770   C771    1.506   .     S
C771   N807    1.388   .     A
C771   C778    1.413   .     A
C772   C775    1.507   .     S
C772   H802    1.110   .     S
C772   H801    1.089   .     S
C772   H803    1.111   .     S
C773   C776    1.506   .     S
C773   H805    1.109   .     S
C773   H804    1.100   .     S
C773   H806    1.111   .     S
C774   H785    1.110   .     S
C774   C777    1.507   .     S
C774   H786    1.111   .     S
C774   H784    1.089   .     S
C775   N808    1.389   .     A
C775   C779    1.412   .     A
C776   C780    1.413   .     A
C776   N807    1.388   .     A
C777   N808    1.389   .     A
C778   H796    1.080   .     S
C779   H797    1.081   .     S
C780   H798    1.080   .     S
Cu781  O811    1.958   .     S
Cu781  O813    1.930   .     S
Cu781  O809    1.958   .     S
Cu781  Cu782   2.710   .     S
Cu781  N808    2.036   .     S
Cu781  O815    1.930   .     S
Cu782  O814    1.930   .     S
Cu782  O812    1.958   .     S
Cu782  O810    1.958   .     S
Cu782  O816    1.930   .     S
Cu782  N807    2.036   .     S
