data_str_m2_o10_o18_pcu_sym.57
_audit_creation_date              2020-01-03
_audit_creation_method            'Materials Studio'
_symmetry_space_group_name_H-M    'P1'
_symmetry_Int_Tables_number       1
_symmetry_cell_setting            triclinic
loop_
_symmetry_equiv_pos_as_xyz
  x,y,z
_cell_length_a                    22.6409
_cell_length_b                    26.0473
_cell_length_c                    31.4827
_cell_angle_alpha                 95.2657
_cell_angle_beta                  76.0553
_cell_angle_gamma                 103.4638
loop_
_atom_site_label
_atom_site_type_symbol
_atom_site_fract_x
_atom_site_fract_y
_atom_site_fract_z
_atom_site_U_iso_or_equiv
_atom_site_adp_type
_atom_site_occupancy
C1     C     0.18162   0.26664   0.25155   0.00000  Uiso   1.00
C2     C     0.20466   0.17346   0.16727   0.00000  Uiso   1.00
C3     C     0.10728   0.14948   0.37992   0.00000  Uiso   1.00
C4     C     0.22605   0.18385   0.12008   0.00000  Uiso   1.00
C5     C     0.02497   0.12496   0.44438   0.00000  Uiso   1.00
C6     C     0.30836   0.20836   0.05562   0.00000  Uiso   1.00
C7     C     0.04393   0.13871   0.40051   0.00000  Uiso   1.00
C8     C     0.28941   0.19461   0.09949   0.00000  Uiso   1.00
C9     C     0.15077   0.14658   0.40448   0.00000  Uiso   1.00
C10    C     0.18257   0.18675   0.09552   0.00000  Uiso   1.00
C11    C     0.13321   0.14980   0.45035   0.00000  Uiso   1.00
C12    C     0.15172   0.06669   0.24845   0.00000  Uiso   1.00
C13    C     0.20013   0.18352   0.04965   0.00000  Uiso   1.00
C14    C     0.06934   0.13263   0.47002   0.00000  Uiso   1.00
C15    C     0.26400   0.20069   0.02998   0.00000  Uiso   1.00
C16    C     0.17682   0.16868   0.47697   0.00000  Uiso   1.00
C17    C     0.15651   0.16464   0.02303   0.00000  Uiso   1.00
C18    C     0.13167   0.21224   0.11570   0.00000  Uiso   1.00
C19    C     0.20166   0.12109   0.38429   0.00000  Uiso   1.00
C20    C     0.31930   0.24942   0.30979   0.00000  Uiso   1.00
C21    C     0.02293   0.27757   0.34288   0.00000  Uiso   1.00
C22    C     0.01403   0.08391   0.19021   0.00000  Uiso   1.00
C23    C     0.09436   0.13875   0.04088   0.00000  Uiso   1.00
C24    C     0.31040   0.05577   0.15712   0.00000  Uiso   1.00
C25    C     0.23898   0.19457   0.45912   0.00000  Uiso   1.00
C26    C     0.05117   0.12363   0.01472   0.00000  Uiso   1.00
C27    C     0.28217   0.20969   0.48528   0.00000  Uiso   1.00
C28    C     0.18936   0.32279   0.25312   0.00000  Uiso   1.00
C29    C     0.14398   0.01055   0.24688   0.00000  Uiso   1.00
C30    C     0.12867   0.15988   0.33273   0.00000  Uiso   1.00
Cu31   Cu    0.10737   0.16108   0.24516   0.00000  Uiso   1.00
Cu32   Cu    0.22596   0.17225   0.25483   0.00000  Uiso   1.00
H33    H     0.00305   0.10643   0.02977   0.00000  Uiso   1.00
H34    H     0.10084   0.31983   0.24024   0.00000  Uiso   1.00
H35    H     0.26920   0.24703   0.32473   0.00000  Uiso   1.00
H36    H     0.00038   0.27361   0.28012   0.00000  Uiso   1.00
H37    H     0.07362   0.28120   0.32906   0.00000  Uiso   1.00
H38    H     0.01356   0.31773   0.35112   0.00000  Uiso   1.00
H39    H     0.00932   0.25499   0.37325   0.00000  Uiso   1.00
H40    H     0.33294   0.05973   0.21988   0.00000  Uiso   1.00
H41    H     0.06413   0.08630   0.17527   0.00000  Uiso   1.00
H42    H     0.32400   0.07835   0.12675   0.00000  Uiso   1.00
H43    H     0.31977   0.01561   0.14888   0.00000  Uiso   1.00
H44    H     0.33028   0.22690   0.47023   0.00000  Uiso   1.00
H45    H     0.25971   0.05213   0.17094   0.00000  Uiso   1.00
H46    H     0.32370   0.19457   0.11786   0.00000  Uiso   1.00
H47    H     0.00963   0.13876   0.38214   0.00000  Uiso   1.00
H48    H     0.30908   0.11192   0.45889   0.00000  Uiso   1.00
H49    H     0.02426   0.22140   0.04111   0.00000  Uiso   1.00
H50    H     0.07828   0.13049   0.07526   0.00000  Uiso   1.00
H51    H     0.25506   0.20284   0.42474   0.00000  Uiso   1.00
H52    H     0.23250   0.01350   0.25976   0.00000  Uiso   1.00
N53    N     0.31506   0.18068   0.26212   0.00000  Uiso   1.00
N54    N     0.01827   0.15265   0.23788   0.00000  Uiso   1.00
N55    N     0.09251   0.23395   0.13241   0.00000  Uiso   1.00
N56    N     0.24082   0.09938   0.36759   0.00000  Uiso   1.00
O57    O     0.12815   0.23809   0.24686   0.00000  Uiso   1.00
O58    O     0.00198   0.13479   0.19993   0.00000  Uiso   1.00
O59    O     0.20518   0.09524   0.25314   0.00000  Uiso   1.00
O60    O     0.22829   0.24753   0.25502   0.00000  Uiso   1.00
O61    O     0.10504   0.08580   0.24497   0.00000  Uiso   1.00
O62    O     0.08851   0.15930   0.30854   0.00000  Uiso   1.00
O63    O     0.24482   0.17403   0.19145   0.00000  Uiso   1.00
O64    O     0.18866   0.16874   0.31671   0.00000  Uiso   1.00
O65    O     0.14468   0.16460   0.18329   0.00000  Uiso   1.00
O66    O     0.33136   0.19855   0.30007   0.00000  Uiso   1.00
C67    C     0.51495   0.26664   0.25155   0.00000  Uiso   1.00
C68    C     0.53800   0.17346   0.16727   0.00000  Uiso   1.00
C69    C     0.44061   0.14948   0.37992   0.00000  Uiso   1.00
C70    C     0.55939   0.18385   0.12008   0.00000  Uiso   1.00
C71    C     0.35831   0.12496   0.44438   0.00000  Uiso   1.00
C72    C     0.64170   0.20836   0.05562   0.00000  Uiso   1.00
C73    C     0.37726   0.13871   0.40051   0.00000  Uiso   1.00
C74    C     0.62274   0.19461   0.09949   0.00000  Uiso   1.00
C75    C     0.48410   0.14658   0.40448   0.00000  Uiso   1.00
C76    C     0.51590   0.18675   0.09552   0.00000  Uiso   1.00
C77    C     0.46654   0.14980   0.45035   0.00000  Uiso   1.00
C78    C     0.48505   0.06669   0.24845   0.00000  Uiso   1.00
C79    C     0.53346   0.18352   0.04965   0.00000  Uiso   1.00
C80    C     0.40267   0.13263   0.47002   0.00000  Uiso   1.00
C81    C     0.59733   0.20069   0.02998   0.00000  Uiso   1.00
C82    C     0.51016   0.16868   0.47697   0.00000  Uiso   1.00
C83    C     0.48985   0.16464   0.02303   0.00000  Uiso   1.00
C84    C     0.46501   0.21224   0.11570   0.00000  Uiso   1.00
C85    C     0.53500   0.12109   0.38429   0.00000  Uiso   1.00
C86    C     0.65264   0.24942   0.30979   0.00000  Uiso   1.00
C87    C     0.35626   0.27757   0.34288   0.00000  Uiso   1.00
C88    C     0.34736   0.08391   0.19021   0.00000  Uiso   1.00
C89    C     0.42769   0.13875   0.04088   0.00000  Uiso   1.00
C90    C     0.64374   0.05577   0.15712   0.00000  Uiso   1.00
C91    C     0.57231   0.19457   0.45912   0.00000  Uiso   1.00
C92    C     0.38450   0.12363   0.01472   0.00000  Uiso   1.00
C93    C     0.61550   0.20969   0.48528   0.00000  Uiso   1.00
C94    C     0.52269   0.32279   0.25312   0.00000  Uiso   1.00
C95    C     0.47731   0.01055   0.24688   0.00000  Uiso   1.00
C96    C     0.46200   0.15988   0.33273   0.00000  Uiso   1.00
Cu97   Cu    0.44071   0.16108   0.24516   0.00000  Uiso   1.00
Cu98   Cu    0.55929   0.17225   0.25483   0.00000  Uiso   1.00
H99    H     0.33639   0.10643   0.02977   0.00000  Uiso   1.00
H100   H     0.43417   0.31983   0.24024   0.00000  Uiso   1.00
H101   H     0.60254   0.24703   0.32473   0.00000  Uiso   1.00
H102   H     0.33372   0.27361   0.28012   0.00000  Uiso   1.00
H103   H     0.40695   0.28120   0.32906   0.00000  Uiso   1.00
H104   H     0.34690   0.31773   0.35112   0.00000  Uiso   1.00
H105   H     0.34265   0.25499   0.37325   0.00000  Uiso   1.00
H106   H     0.66627   0.05973   0.21988   0.00000  Uiso   1.00
H107   H     0.39746   0.08630   0.17527   0.00000  Uiso   1.00
H108   H     0.65734   0.07835   0.12675   0.00000  Uiso   1.00
H109   H     0.65311   0.01561   0.14888   0.00000  Uiso   1.00
H110   H     0.66361   0.22690   0.47023   0.00000  Uiso   1.00
H111   H     0.59304   0.05213   0.17094   0.00000  Uiso   1.00
H112   H     0.65703   0.19457   0.11786   0.00000  Uiso   1.00
H113   H     0.34297   0.13876   0.38214   0.00000  Uiso   1.00
H114   H     0.64241   0.11192   0.45889   0.00000  Uiso   1.00
H115   H     0.35759   0.22140   0.04111   0.00000  Uiso   1.00
H116   H     0.41161   0.13049   0.07526   0.00000  Uiso   1.00
H117   H     0.58839   0.20284   0.42474   0.00000  Uiso   1.00
H118   H     0.56583   0.01350   0.25976   0.00000  Uiso   1.00
N119   N     0.64839   0.18068   0.26212   0.00000  Uiso   1.00
N120   N     0.35161   0.15265   0.23788   0.00000  Uiso   1.00
N121   N     0.42585   0.23395   0.13241   0.00000  Uiso   1.00
N122   N     0.57416   0.09938   0.36759   0.00000  Uiso   1.00
O123   O     0.46148   0.23809   0.24686   0.00000  Uiso   1.00
O124   O     0.33531   0.13479   0.19993   0.00000  Uiso   1.00
O125   O     0.53852   0.09524   0.25314   0.00000  Uiso   1.00
O126   O     0.56163   0.24753   0.25502   0.00000  Uiso   1.00
O127   O     0.43837   0.08580   0.24497   0.00000  Uiso   1.00
O128   O     0.42185   0.15930   0.30854   0.00000  Uiso   1.00
O129   O     0.57815   0.17403   0.19145   0.00000  Uiso   1.00
O130   O     0.52199   0.16874   0.31671   0.00000  Uiso   1.00
O131   O     0.47801   0.16460   0.18329   0.00000  Uiso   1.00
O132   O     0.66469   0.19855   0.30007   0.00000  Uiso   1.00
C133   C     0.84828   0.26664   0.25155   0.00000  Uiso   1.00
C134   C     0.87133   0.17346   0.16727   0.00000  Uiso   1.00
C135   C     0.77395   0.14948   0.37992   0.00000  Uiso   1.00
C136   C     0.89272   0.18385   0.12008   0.00000  Uiso   1.00
C137   C     0.69164   0.12496   0.44438   0.00000  Uiso   1.00
C138   C     0.97503   0.20836   0.05562   0.00000  Uiso   1.00
C139   C     0.71059   0.13871   0.40051   0.00000  Uiso   1.00
C140   C     0.95607   0.19461   0.09949   0.00000  Uiso   1.00
C141   C     0.81743   0.14658   0.40448   0.00000  Uiso   1.00
C142   C     0.84923   0.18675   0.09552   0.00000  Uiso   1.00
C143   C     0.79987   0.14980   0.45035   0.00000  Uiso   1.00
C144   C     0.81838   0.06669   0.24845   0.00000  Uiso   1.00
C145   C     0.86680   0.18352   0.04965   0.00000  Uiso   1.00
C146   C     0.73600   0.13263   0.47002   0.00000  Uiso   1.00
C147   C     0.93067   0.20069   0.02998   0.00000  Uiso   1.00
C148   C     0.84349   0.16868   0.47697   0.00000  Uiso   1.00
C149   C     0.82318   0.16464   0.02303   0.00000  Uiso   1.00
C150   C     0.79834   0.21224   0.11570   0.00000  Uiso   1.00
C151   C     0.86833   0.12109   0.38429   0.00000  Uiso   1.00
C152   C     0.98597   0.24942   0.30979   0.00000  Uiso   1.00
C153   C     0.68959   0.27757   0.34288   0.00000  Uiso   1.00
C154   C     0.68069   0.08391   0.19021   0.00000  Uiso   1.00
C155   C     0.76103   0.13875   0.04088   0.00000  Uiso   1.00
C156   C     0.97707   0.05577   0.15712   0.00000  Uiso   1.00
C157   C     0.90564   0.19457   0.45912   0.00000  Uiso   1.00
C158   C     0.71783   0.12363   0.01472   0.00000  Uiso   1.00
C159   C     0.94884   0.20969   0.48528   0.00000  Uiso   1.00
C160   C     0.85602   0.32279   0.25312   0.00000  Uiso   1.00
C161   C     0.81064   0.01055   0.24688   0.00000  Uiso   1.00
C162   C     0.79534   0.15988   0.33273   0.00000  Uiso   1.00
Cu163  Cu    0.77404   0.16108   0.24516   0.00000  Uiso   1.00
Cu164  Cu    0.89263   0.17225   0.25483   0.00000  Uiso   1.00
H165   H     0.66972   0.10643   0.02977   0.00000  Uiso   1.00
H166   H     0.76750   0.31983   0.24024   0.00000  Uiso   1.00
H167   H     0.93587   0.24703   0.32473   0.00000  Uiso   1.00
H168   H     0.66705   0.27361   0.28012   0.00000  Uiso   1.00
H169   H     0.74028   0.28120   0.32906   0.00000  Uiso   1.00
H170   H     0.68023   0.31773   0.35112   0.00000  Uiso   1.00
H171   H     0.67598   0.25499   0.37325   0.00000  Uiso   1.00
H172   H     0.99961   0.05973   0.21988   0.00000  Uiso   1.00
H173   H     0.73079   0.08630   0.17527   0.00000  Uiso   1.00
H174   H     0.99067   0.07835   0.12675   0.00000  Uiso   1.00
H175   H     0.98644   0.01561   0.14888   0.00000  Uiso   1.00
H176   H     0.99695   0.22690   0.47023   0.00000  Uiso   1.00
H177   H     0.92638   0.05213   0.17094   0.00000  Uiso   1.00
H178   H     0.99037   0.19457   0.11786   0.00000  Uiso   1.00
H179   H     0.67630   0.13876   0.38214   0.00000  Uiso   1.00
H180   H     0.97575   0.11192   0.45889   0.00000  Uiso   1.00
H181   H     0.69092   0.22140   0.04111   0.00000  Uiso   1.00
H182   H     0.74494   0.13049   0.07526   0.00000  Uiso   1.00
H183   H     0.92173   0.20284   0.42474   0.00000  Uiso   1.00
H184   H     0.89916   0.01350   0.25976   0.00000  Uiso   1.00
N185   N     0.98173   0.18068   0.26212   0.00000  Uiso   1.00
N186   N     0.68494   0.15265   0.23788   0.00000  Uiso   1.00
N187   N     0.75918   0.23395   0.13241   0.00000  Uiso   1.00
N188   N     0.90749   0.09938   0.36759   0.00000  Uiso   1.00
O189   O     0.79482   0.23809   0.24686   0.00000  Uiso   1.00
O190   O     0.66865   0.13479   0.19993   0.00000  Uiso   1.00
O191   O     0.87185   0.09524   0.25314   0.00000  Uiso   1.00
O192   O     0.89496   0.24753   0.25502   0.00000  Uiso   1.00
O193   O     0.77171   0.08580   0.24497   0.00000  Uiso   1.00
O194   O     0.75518   0.15930   0.30854   0.00000  Uiso   1.00
O195   O     0.91149   0.17403   0.19145   0.00000  Uiso   1.00
O196   O     0.85532   0.16874   0.31671   0.00000  Uiso   1.00
O197   O     0.81134   0.16460   0.18329   0.00000  Uiso   1.00
O198   O     0.99803   0.19855   0.30007   0.00000  Uiso   1.00
C199   C     0.18162   0.59997   0.25155   0.00000  Uiso   1.00
C200   C     0.20466   0.50679   0.16727   0.00000  Uiso   1.00
C201   C     0.10728   0.48281   0.37992   0.00000  Uiso   1.00
C202   C     0.22605   0.51719   0.12008   0.00000  Uiso   1.00
C203   C     0.02497   0.45830   0.44438   0.00000  Uiso   1.00
C204   C     0.30836   0.54169   0.05562   0.00000  Uiso   1.00
C205   C     0.04393   0.47204   0.40051   0.00000  Uiso   1.00
C206   C     0.28941   0.52795   0.09949   0.00000  Uiso   1.00
C207   C     0.15077   0.47991   0.40448   0.00000  Uiso   1.00
C208   C     0.18257   0.52008   0.09552   0.00000  Uiso   1.00
C209   C     0.13321   0.48313   0.45035   0.00000  Uiso   1.00
C210   C     0.15172   0.40003   0.24845   0.00000  Uiso   1.00
C211   C     0.20013   0.51686   0.04965   0.00000  Uiso   1.00
C212   C     0.06934   0.46597   0.47002   0.00000  Uiso   1.00
C213   C     0.26400   0.53402   0.02998   0.00000  Uiso   1.00
C214   C     0.17682   0.50201   0.47697   0.00000  Uiso   1.00
C215   C     0.15651   0.49798   0.02303   0.00000  Uiso   1.00
C216   C     0.13167   0.54558   0.11570   0.00000  Uiso   1.00
C217   C     0.20166   0.45442   0.38429   0.00000  Uiso   1.00
C218   C     0.31930   0.58276   0.30979   0.00000  Uiso   1.00
C219   C     0.02293   0.61090   0.34288   0.00000  Uiso   1.00
C220   C     0.01403   0.41724   0.19021   0.00000  Uiso   1.00
C221   C     0.09436   0.47208   0.04088   0.00000  Uiso   1.00
C222   C     0.31040   0.38910   0.15712   0.00000  Uiso   1.00
C223   C     0.23898   0.52790   0.45912   0.00000  Uiso   1.00
C224   C     0.05117   0.45697   0.01472   0.00000  Uiso   1.00
C225   C     0.28217   0.54302   0.48528   0.00000  Uiso   1.00
C226   C     0.18936   0.65612   0.25312   0.00000  Uiso   1.00
C227   C     0.14398   0.34388   0.24688   0.00000  Uiso   1.00
C228   C     0.12867   0.49321   0.33273   0.00000  Uiso   1.00
Cu229  Cu    0.10737   0.49441   0.24516   0.00000  Uiso   1.00
Cu230  Cu    0.22596   0.50559   0.25483   0.00000  Uiso   1.00
H231   H     0.00305   0.43976   0.02977   0.00000  Uiso   1.00
H232   H     0.10084   0.65317   0.24024   0.00000  Uiso   1.00
H233   H     0.26920   0.58036   0.32473   0.00000  Uiso   1.00
H234   H     0.00038   0.60694   0.28012   0.00000  Uiso   1.00
H235   H     0.07362   0.61453   0.32906   0.00000  Uiso   1.00
H236   H     0.01356   0.65107   0.35112   0.00000  Uiso   1.00
H237   H     0.00932   0.58832   0.37325   0.00000  Uiso   1.00
H238   H     0.33294   0.39306   0.21988   0.00000  Uiso   1.00
H239   H     0.06413   0.41963   0.17527   0.00000  Uiso   1.00
H240   H     0.32400   0.41169   0.12675   0.00000  Uiso   1.00
H241   H     0.31977   0.34894   0.14888   0.00000  Uiso   1.00
H242   H     0.33028   0.56023   0.47023   0.00000  Uiso   1.00
H243   H     0.25971   0.38546   0.17094   0.00000  Uiso   1.00
H244   H     0.32370   0.52790   0.11786   0.00000  Uiso   1.00
H245   H     0.00963   0.47209   0.38214   0.00000  Uiso   1.00
H246   H     0.30908   0.44525   0.45889   0.00000  Uiso   1.00
H247   H     0.02426   0.55474   0.04111   0.00000  Uiso   1.00
H248   H     0.07828   0.46382   0.07526   0.00000  Uiso   1.00
H249   H     0.25506   0.53617   0.42474   0.00000  Uiso   1.00
H250   H     0.23250   0.34683   0.25976   0.00000  Uiso   1.00
N251   N     0.31506   0.51401   0.26212   0.00000  Uiso   1.00
N252   N     0.01827   0.48599   0.23788   0.00000  Uiso   1.00
N253   N     0.09251   0.56729   0.13241   0.00000  Uiso   1.00
N254   N     0.24082   0.43271   0.36759   0.00000  Uiso   1.00
O255   O     0.12815   0.57142   0.24686   0.00000  Uiso   1.00
O256   O     0.00198   0.46813   0.19993   0.00000  Uiso   1.00
O257   O     0.20518   0.42858   0.25314   0.00000  Uiso   1.00
O258   O     0.22829   0.58086   0.25502   0.00000  Uiso   1.00
O259   O     0.10504   0.41914   0.24497   0.00000  Uiso   1.00
O260   O     0.08851   0.49263   0.30854   0.00000  Uiso   1.00
O261   O     0.24482   0.50737   0.19145   0.00000  Uiso   1.00
O262   O     0.18866   0.50207   0.31671   0.00000  Uiso   1.00
O263   O     0.14468   0.49793   0.18329   0.00000  Uiso   1.00
O264   O     0.33136   0.53188   0.30007   0.00000  Uiso   1.00
C265   C     0.51495   0.59997   0.25155   0.00000  Uiso   1.00
C266   C     0.53800   0.50679   0.16727   0.00000  Uiso   1.00
C267   C     0.44061   0.48281   0.37992   0.00000  Uiso   1.00
C268   C     0.55939   0.51719   0.12008   0.00000  Uiso   1.00
C269   C     0.35831   0.45830   0.44438   0.00000  Uiso   1.00
C270   C     0.64170   0.54169   0.05562   0.00000  Uiso   1.00
C271   C     0.37726   0.47204   0.40051   0.00000  Uiso   1.00
C272   C     0.62274   0.52795   0.09949   0.00000  Uiso   1.00
C273   C     0.48410   0.47991   0.40448   0.00000  Uiso   1.00
C274   C     0.51590   0.52008   0.09552   0.00000  Uiso   1.00
C275   C     0.46654   0.48313   0.45035   0.00000  Uiso   1.00
C276   C     0.48505   0.40003   0.24845   0.00000  Uiso   1.00
C277   C     0.53346   0.51686   0.04965   0.00000  Uiso   1.00
C278   C     0.40267   0.46597   0.47002   0.00000  Uiso   1.00
C279   C     0.59733   0.53402   0.02998   0.00000  Uiso   1.00
C280   C     0.51016   0.50201   0.47697   0.00000  Uiso   1.00
C281   C     0.48985   0.49798   0.02303   0.00000  Uiso   1.00
C282   C     0.46501   0.54558   0.11570   0.00000  Uiso   1.00
C283   C     0.53500   0.45442   0.38429   0.00000  Uiso   1.00
C284   C     0.65264   0.58276   0.30979   0.00000  Uiso   1.00
C285   C     0.35626   0.61090   0.34288   0.00000  Uiso   1.00
C286   C     0.34736   0.41724   0.19021   0.00000  Uiso   1.00
C287   C     0.42769   0.47208   0.04088   0.00000  Uiso   1.00
C288   C     0.64374   0.38910   0.15712   0.00000  Uiso   1.00
C289   C     0.57231   0.52790   0.45912   0.00000  Uiso   1.00
C290   C     0.38450   0.45697   0.01472   0.00000  Uiso   1.00
C291   C     0.61550   0.54302   0.48528   0.00000  Uiso   1.00
C292   C     0.52269   0.65612   0.25312   0.00000  Uiso   1.00
C293   C     0.47731   0.34388   0.24688   0.00000  Uiso   1.00
C294   C     0.46200   0.49321   0.33273   0.00000  Uiso   1.00
Cu295  Cu    0.44071   0.49441   0.24516   0.00000  Uiso   1.00
Cu296  Cu    0.55929   0.50559   0.25483   0.00000  Uiso   1.00
H297   H     0.33639   0.43976   0.02977   0.00000  Uiso   1.00
H298   H     0.43417   0.65317   0.24024   0.00000  Uiso   1.00
H299   H     0.60254   0.58036   0.32473   0.00000  Uiso   1.00
H300   H     0.33372   0.60694   0.28012   0.00000  Uiso   1.00
H301   H     0.40695   0.61453   0.32906   0.00000  Uiso   1.00
H302   H     0.34690   0.65107   0.35112   0.00000  Uiso   1.00
H303   H     0.34265   0.58832   0.37325   0.00000  Uiso   1.00
H304   H     0.66627   0.39306   0.21988   0.00000  Uiso   1.00
H305   H     0.39746   0.41963   0.17527   0.00000  Uiso   1.00
H306   H     0.65734   0.41169   0.12675   0.00000  Uiso   1.00
H307   H     0.65311   0.34894   0.14888   0.00000  Uiso   1.00
H308   H     0.66361   0.56023   0.47023   0.00000  Uiso   1.00
H309   H     0.59304   0.38546   0.17094   0.00000  Uiso   1.00
H310   H     0.65703   0.52790   0.11786   0.00000  Uiso   1.00
H311   H     0.34297   0.47209   0.38214   0.00000  Uiso   1.00
H312   H     0.64241   0.44525   0.45889   0.00000  Uiso   1.00
H313   H     0.35759   0.55474   0.04111   0.00000  Uiso   1.00
H314   H     0.41161   0.46382   0.07526   0.00000  Uiso   1.00
H315   H     0.58839   0.53617   0.42474   0.00000  Uiso   1.00
H316   H     0.56583   0.34683   0.25976   0.00000  Uiso   1.00
N317   N     0.64839   0.51401   0.26212   0.00000  Uiso   1.00
N318   N     0.35161   0.48599   0.23788   0.00000  Uiso   1.00
N319   N     0.42585   0.56729   0.13241   0.00000  Uiso   1.00
N320   N     0.57416   0.43271   0.36759   0.00000  Uiso   1.00
O321   O     0.46148   0.57142   0.24686   0.00000  Uiso   1.00
O322   O     0.33531   0.46813   0.19993   0.00000  Uiso   1.00
O323   O     0.53852   0.42858   0.25314   0.00000  Uiso   1.00
O324   O     0.56163   0.58086   0.25502   0.00000  Uiso   1.00
O325   O     0.43837   0.41914   0.24497   0.00000  Uiso   1.00
O326   O     0.42185   0.49263   0.30854   0.00000  Uiso   1.00
O327   O     0.57815   0.50737   0.19145   0.00000  Uiso   1.00
O328   O     0.52199   0.50207   0.31671   0.00000  Uiso   1.00
O329   O     0.47801   0.49793   0.18329   0.00000  Uiso   1.00
O330   O     0.66469   0.53188   0.30007   0.00000  Uiso   1.00
C331   C     0.84828   0.59997   0.25155   0.00000  Uiso   1.00
C332   C     0.87133   0.50679   0.16727   0.00000  Uiso   1.00
C333   C     0.77395   0.48281   0.37992   0.00000  Uiso   1.00
C334   C     0.89272   0.51719   0.12008   0.00000  Uiso   1.00
C335   C     0.69164   0.45830   0.44438   0.00000  Uiso   1.00
C336   C     0.97503   0.54169   0.05562   0.00000  Uiso   1.00
C337   C     0.71059   0.47204   0.40051   0.00000  Uiso   1.00
C338   C     0.95607   0.52795   0.09949   0.00000  Uiso   1.00
C339   C     0.81743   0.47991   0.40448   0.00000  Uiso   1.00
C340   C     0.84923   0.52008   0.09552   0.00000  Uiso   1.00
C341   C     0.79987   0.48313   0.45035   0.00000  Uiso   1.00
C342   C     0.81838   0.40003   0.24845   0.00000  Uiso   1.00
C343   C     0.86680   0.51686   0.04965   0.00000  Uiso   1.00
C344   C     0.73600   0.46597   0.47002   0.00000  Uiso   1.00
C345   C     0.93067   0.53402   0.02998   0.00000  Uiso   1.00
C346   C     0.84349   0.50201   0.47697   0.00000  Uiso   1.00
C347   C     0.82318   0.49798   0.02303   0.00000  Uiso   1.00
C348   C     0.79834   0.54558   0.11570   0.00000  Uiso   1.00
C349   C     0.86833   0.45442   0.38429   0.00000  Uiso   1.00
C350   C     0.98597   0.58276   0.30979   0.00000  Uiso   1.00
C351   C     0.68959   0.61090   0.34288   0.00000  Uiso   1.00
C352   C     0.68069   0.41724   0.19021   0.00000  Uiso   1.00
C353   C     0.76103   0.47208   0.04088   0.00000  Uiso   1.00
C354   C     0.97707   0.38910   0.15712   0.00000  Uiso   1.00
C355   C     0.90564   0.52790   0.45912   0.00000  Uiso   1.00
C356   C     0.71783   0.45697   0.01472   0.00000  Uiso   1.00
C357   C     0.94884   0.54302   0.48528   0.00000  Uiso   1.00
C358   C     0.85602   0.65612   0.25312   0.00000  Uiso   1.00
C359   C     0.81064   0.34388   0.24688   0.00000  Uiso   1.00
C360   C     0.79534   0.49321   0.33273   0.00000  Uiso   1.00
Cu361  Cu    0.77404   0.49441   0.24516   0.00000  Uiso   1.00
Cu362  Cu    0.89263   0.50559   0.25483   0.00000  Uiso   1.00
H363   H     0.66972   0.43976   0.02977   0.00000  Uiso   1.00
H364   H     0.76750   0.65317   0.24024   0.00000  Uiso   1.00
H365   H     0.93587   0.58036   0.32473   0.00000  Uiso   1.00
H366   H     0.66705   0.60694   0.28012   0.00000  Uiso   1.00
H367   H     0.74028   0.61453   0.32906   0.00000  Uiso   1.00
H368   H     0.68023   0.65107   0.35112   0.00000  Uiso   1.00
H369   H     0.67598   0.58832   0.37325   0.00000  Uiso   1.00
H370   H     0.99961   0.39306   0.21988   0.00000  Uiso   1.00
H371   H     0.73079   0.41963   0.17527   0.00000  Uiso   1.00
H372   H     0.99067   0.41169   0.12675   0.00000  Uiso   1.00
H373   H     0.98644   0.34894   0.14888   0.00000  Uiso   1.00
H374   H     0.99695   0.56023   0.47023   0.00000  Uiso   1.00
H375   H     0.92638   0.38546   0.17094   0.00000  Uiso   1.00
H376   H     0.99037   0.52790   0.11786   0.00000  Uiso   1.00
H377   H     0.67630   0.47209   0.38214   0.00000  Uiso   1.00
H378   H     0.97575   0.44525   0.45889   0.00000  Uiso   1.00
H379   H     0.69092   0.55474   0.04111   0.00000  Uiso   1.00
H380   H     0.74494   0.46382   0.07526   0.00000  Uiso   1.00
H381   H     0.92173   0.53617   0.42474   0.00000  Uiso   1.00
H382   H     0.89916   0.34683   0.25976   0.00000  Uiso   1.00
N383   N     0.98173   0.51401   0.26212   0.00000  Uiso   1.00
N384   N     0.68494   0.48599   0.23788   0.00000  Uiso   1.00
N385   N     0.75918   0.56729   0.13241   0.00000  Uiso   1.00
N386   N     0.90749   0.43271   0.36759   0.00000  Uiso   1.00
O387   O     0.79482   0.57142   0.24686   0.00000  Uiso   1.00
O388   O     0.66865   0.46813   0.19993   0.00000  Uiso   1.00
O389   O     0.87185   0.42858   0.25314   0.00000  Uiso   1.00
O390   O     0.89496   0.58086   0.25502   0.00000  Uiso   1.00
O391   O     0.77171   0.41914   0.24497   0.00000  Uiso   1.00
O392   O     0.75518   0.49263   0.30854   0.00000  Uiso   1.00
O393   O     0.91149   0.50737   0.19145   0.00000  Uiso   1.00
O394   O     0.85532   0.50207   0.31671   0.00000  Uiso   1.00
O395   O     0.81134   0.49793   0.18329   0.00000  Uiso   1.00
O396   O     0.99803   0.53188   0.30007   0.00000  Uiso   1.00
C397   C     0.18162   0.93331   0.25155   0.00000  Uiso   1.00
C398   C     0.20466   0.84012   0.16727   0.00000  Uiso   1.00
C399   C     0.10728   0.81614   0.37992   0.00000  Uiso   1.00
C400   C     0.22605   0.85052   0.12008   0.00000  Uiso   1.00
C401   C     0.02497   0.79163   0.44438   0.00000  Uiso   1.00
C402   C     0.30836   0.87503   0.05562   0.00000  Uiso   1.00
C403   C     0.04393   0.80538   0.40051   0.00000  Uiso   1.00
C404   C     0.28941   0.86128   0.09949   0.00000  Uiso   1.00
C405   C     0.15077   0.81324   0.40448   0.00000  Uiso   1.00
C406   C     0.18257   0.85342   0.09552   0.00000  Uiso   1.00
C407   C     0.13321   0.81646   0.45035   0.00000  Uiso   1.00
C408   C     0.15172   0.73336   0.24845   0.00000  Uiso   1.00
C409   C     0.20013   0.85019   0.04965   0.00000  Uiso   1.00
C410   C     0.06934   0.79930   0.47002   0.00000  Uiso   1.00
C411   C     0.26400   0.86735   0.02998   0.00000  Uiso   1.00
C412   C     0.17682   0.83534   0.47697   0.00000  Uiso   1.00
C413   C     0.15651   0.83131   0.02303   0.00000  Uiso   1.00
C414   C     0.13167   0.87891   0.11570   0.00000  Uiso   1.00
C415   C     0.20166   0.78775   0.38429   0.00000  Uiso   1.00
C416   C     0.31930   0.91609   0.30979   0.00000  Uiso   1.00
C417   C     0.02293   0.94423   0.34288   0.00000  Uiso   1.00
C418   C     0.01403   0.75058   0.19021   0.00000  Uiso   1.00
C419   C     0.09436   0.80542   0.04088   0.00000  Uiso   1.00
C420   C     0.31040   0.72244   0.15712   0.00000  Uiso   1.00
C421   C     0.23898   0.86124   0.45912   0.00000  Uiso   1.00
C422   C     0.05117   0.79030   0.01472   0.00000  Uiso   1.00
C423   C     0.28217   0.87636   0.48528   0.00000  Uiso   1.00
C424   C     0.18936   0.98945   0.25312   0.00000  Uiso   1.00
C425   C     0.14398   0.67721   0.24688   0.00000  Uiso   1.00
C426   C     0.12867   0.82654   0.33273   0.00000  Uiso   1.00
Cu427  Cu    0.10737   0.82775   0.24516   0.00000  Uiso   1.00
Cu428  Cu    0.22596   0.83892   0.25483   0.00000  Uiso   1.00
H429   H     0.00305   0.77309   0.02977   0.00000  Uiso   1.00
H430   H     0.10084   0.98650   0.24024   0.00000  Uiso   1.00
H431   H     0.26920   0.91370   0.32473   0.00000  Uiso   1.00
H432   H     0.00038   0.94028   0.28012   0.00000  Uiso   1.00
H433   H     0.07362   0.94787   0.32906   0.00000  Uiso   1.00
H434   H     0.01356   0.98440   0.35112   0.00000  Uiso   1.00
H435   H     0.00932   0.92165   0.37325   0.00000  Uiso   1.00
H436   H     0.33294   0.72639   0.21988   0.00000  Uiso   1.00
H437   H     0.06413   0.75297   0.17527   0.00000  Uiso   1.00
H438   H     0.32400   0.74502   0.12675   0.00000  Uiso   1.00
H439   H     0.31977   0.68227   0.14888   0.00000  Uiso   1.00
H440   H     0.33028   0.89356   0.47023   0.00000  Uiso   1.00
H441   H     0.25971   0.71880   0.17094   0.00000  Uiso   1.00
H442   H     0.32370   0.86124   0.11786   0.00000  Uiso   1.00
H443   H     0.00963   0.80542   0.38214   0.00000  Uiso   1.00
H444   H     0.30908   0.77858   0.45889   0.00000  Uiso   1.00
H445   H     0.02426   0.88807   0.04111   0.00000  Uiso   1.00
H446   H     0.07828   0.79715   0.07526   0.00000  Uiso   1.00
H447   H     0.25506   0.86950   0.42474   0.00000  Uiso   1.00
H448   H     0.23250   0.68017   0.25976   0.00000  Uiso   1.00
N449   N     0.31506   0.84735   0.26212   0.00000  Uiso   1.00
N450   N     0.01827   0.81932   0.23788   0.00000  Uiso   1.00
N451   N     0.09251   0.90062   0.13241   0.00000  Uiso   1.00
N452   N     0.24082   0.76604   0.36759   0.00000  Uiso   1.00
O453   O     0.12815   0.90476   0.24686   0.00000  Uiso   1.00
O454   O     0.00198   0.80146   0.19993   0.00000  Uiso   1.00
O455   O     0.20518   0.76191   0.25314   0.00000  Uiso   1.00
O456   O     0.22829   0.91420   0.25502   0.00000  Uiso   1.00
O457   O     0.10504   0.75247   0.24497   0.00000  Uiso   1.00
O458   O     0.08851   0.82597   0.30854   0.00000  Uiso   1.00
O459   O     0.24482   0.84070   0.19145   0.00000  Uiso   1.00
O460   O     0.18866   0.83540   0.31671   0.00000  Uiso   1.00
O461   O     0.14468   0.83126   0.18329   0.00000  Uiso   1.00
O462   O     0.33136   0.86521   0.30007   0.00000  Uiso   1.00
C463   C     0.51495   0.93331   0.25155   0.00000  Uiso   1.00
C464   C     0.53800   0.84012   0.16727   0.00000  Uiso   1.00
C465   C     0.44061   0.81614   0.37992   0.00000  Uiso   1.00
C466   C     0.55939   0.85052   0.12008   0.00000  Uiso   1.00
C467   C     0.35831   0.79163   0.44438   0.00000  Uiso   1.00
C468   C     0.64170   0.87503   0.05562   0.00000  Uiso   1.00
C469   C     0.37726   0.80538   0.40051   0.00000  Uiso   1.00
C470   C     0.62274   0.86128   0.09949   0.00000  Uiso   1.00
C471   C     0.48410   0.81324   0.40448   0.00000  Uiso   1.00
C472   C     0.51590   0.85342   0.09552   0.00000  Uiso   1.00
C473   C     0.46654   0.81646   0.45035   0.00000  Uiso   1.00
C474   C     0.48505   0.73336   0.24845   0.00000  Uiso   1.00
C475   C     0.53346   0.85019   0.04965   0.00000  Uiso   1.00
C476   C     0.40267   0.79930   0.47002   0.00000  Uiso   1.00
C477   C     0.59733   0.86735   0.02998   0.00000  Uiso   1.00
C478   C     0.51016   0.83534   0.47697   0.00000  Uiso   1.00
C479   C     0.48985   0.83131   0.02303   0.00000  Uiso   1.00
C480   C     0.46501   0.87891   0.11570   0.00000  Uiso   1.00
C481   C     0.53500   0.78775   0.38429   0.00000  Uiso   1.00
C482   C     0.65264   0.91609   0.30979   0.00000  Uiso   1.00
C483   C     0.35626   0.94423   0.34288   0.00000  Uiso   1.00
C484   C     0.34736   0.75058   0.19021   0.00000  Uiso   1.00
C485   C     0.42769   0.80542   0.04088   0.00000  Uiso   1.00
C486   C     0.64374   0.72244   0.15712   0.00000  Uiso   1.00
C487   C     0.57231   0.86124   0.45912   0.00000  Uiso   1.00
C488   C     0.38450   0.79030   0.01472   0.00000  Uiso   1.00
C489   C     0.61550   0.87636   0.48528   0.00000  Uiso   1.00
C490   C     0.52269   0.98945   0.25312   0.00000  Uiso   1.00
C491   C     0.47731   0.67721   0.24688   0.00000  Uiso   1.00
C492   C     0.46200   0.82654   0.33273   0.00000  Uiso   1.00
Cu493  Cu    0.44071   0.82775   0.24516   0.00000  Uiso   1.00
Cu494  Cu    0.55929   0.83892   0.25483   0.00000  Uiso   1.00
H495   H     0.33639   0.77309   0.02977   0.00000  Uiso   1.00
H496   H     0.43417   0.98650   0.24024   0.00000  Uiso   1.00
H497   H     0.60254   0.91370   0.32473   0.00000  Uiso   1.00
H498   H     0.33372   0.94028   0.28012   0.00000  Uiso   1.00
H499   H     0.40695   0.94787   0.32906   0.00000  Uiso   1.00
H500   H     0.34690   0.98440   0.35112   0.00000  Uiso   1.00
H501   H     0.34265   0.92165   0.37325   0.00000  Uiso   1.00
H502   H     0.66627   0.72639   0.21988   0.00000  Uiso   1.00
H503   H     0.39746   0.75297   0.17527   0.00000  Uiso   1.00
H504   H     0.65734   0.74502   0.12675   0.00000  Uiso   1.00
H505   H     0.65311   0.68227   0.14888   0.00000  Uiso   1.00
H506   H     0.66361   0.89356   0.47023   0.00000  Uiso   1.00
H507   H     0.59304   0.71880   0.17094   0.00000  Uiso   1.00
H508   H     0.65703   0.86124   0.11786   0.00000  Uiso   1.00
H509   H     0.34297   0.80542   0.38214   0.00000  Uiso   1.00
H510   H     0.64241   0.77858   0.45889   0.00000  Uiso   1.00
H511   H     0.35759   0.88807   0.04111   0.00000  Uiso   1.00
H512   H     0.41161   0.79715   0.07526   0.00000  Uiso   1.00
H513   H     0.58839   0.86950   0.42474   0.00000  Uiso   1.00
H514   H     0.56583   0.68017   0.25976   0.00000  Uiso   1.00
N515   N     0.64839   0.84735   0.26212   0.00000  Uiso   1.00
N516   N     0.35161   0.81932   0.23788   0.00000  Uiso   1.00
N517   N     0.42585   0.90062   0.13241   0.00000  Uiso   1.00
N518   N     0.57416   0.76604   0.36759   0.00000  Uiso   1.00
O519   O     0.46148   0.90476   0.24686   0.00000  Uiso   1.00
O520   O     0.33531   0.80146   0.19993   0.00000  Uiso   1.00
O521   O     0.53852   0.76191   0.25314   0.00000  Uiso   1.00
O522   O     0.56163   0.91420   0.25502   0.00000  Uiso   1.00
O523   O     0.43837   0.75247   0.24497   0.00000  Uiso   1.00
O524   O     0.42185   0.82597   0.30854   0.00000  Uiso   1.00
O525   O     0.57815   0.84070   0.19145   0.00000  Uiso   1.00
O526   O     0.52199   0.83540   0.31671   0.00000  Uiso   1.00
O527   O     0.47801   0.83126   0.18329   0.00000  Uiso   1.00
O528   O     0.66469   0.86521   0.30007   0.00000  Uiso   1.00
C529   C     0.84828   0.93331   0.25155   0.00000  Uiso   1.00
C530   C     0.87133   0.84012   0.16727   0.00000  Uiso   1.00
C531   C     0.77395   0.81614   0.37992   0.00000  Uiso   1.00
C532   C     0.89272   0.85052   0.12008   0.00000  Uiso   1.00
C533   C     0.69164   0.79163   0.44438   0.00000  Uiso   1.00
C534   C     0.97503   0.87503   0.05562   0.00000  Uiso   1.00
C535   C     0.71059   0.80538   0.40051   0.00000  Uiso   1.00
C536   C     0.95607   0.86128   0.09949   0.00000  Uiso   1.00
C537   C     0.81743   0.81324   0.40448   0.00000  Uiso   1.00
C538   C     0.84923   0.85342   0.09552   0.00000  Uiso   1.00
C539   C     0.79987   0.81646   0.45035   0.00000  Uiso   1.00
C540   C     0.81838   0.73336   0.24845   0.00000  Uiso   1.00
C541   C     0.86680   0.85019   0.04965   0.00000  Uiso   1.00
C542   C     0.73600   0.79930   0.47002   0.00000  Uiso   1.00
C543   C     0.93067   0.86735   0.02998   0.00000  Uiso   1.00
C544   C     0.84349   0.83534   0.47697   0.00000  Uiso   1.00
C545   C     0.82318   0.83131   0.02303   0.00000  Uiso   1.00
C546   C     0.79834   0.87891   0.11570   0.00000  Uiso   1.00
C547   C     0.86833   0.78775   0.38429   0.00000  Uiso   1.00
C548   C     0.98597   0.91609   0.30979   0.00000  Uiso   1.00
C549   C     0.68959   0.94423   0.34288   0.00000  Uiso   1.00
C550   C     0.68069   0.75058   0.19021   0.00000  Uiso   1.00
C551   C     0.76103   0.80542   0.04088   0.00000  Uiso   1.00
C552   C     0.97707   0.72244   0.15712   0.00000  Uiso   1.00
C553   C     0.90564   0.86124   0.45912   0.00000  Uiso   1.00
C554   C     0.71783   0.79030   0.01472   0.00000  Uiso   1.00
C555   C     0.94884   0.87636   0.48528   0.00000  Uiso   1.00
C556   C     0.85602   0.98945   0.25312   0.00000  Uiso   1.00
C557   C     0.81064   0.67721   0.24688   0.00000  Uiso   1.00
C558   C     0.79534   0.82654   0.33273   0.00000  Uiso   1.00
Cu559  Cu    0.77404   0.82775   0.24516   0.00000  Uiso   1.00
Cu560  Cu    0.89263   0.83892   0.25483   0.00000  Uiso   1.00
H561   H     0.66972   0.77309   0.02977   0.00000  Uiso   1.00
H562   H     0.76750   0.98650   0.24024   0.00000  Uiso   1.00
H563   H     0.93587   0.91370   0.32473   0.00000  Uiso   1.00
H564   H     0.66705   0.94028   0.28012   0.00000  Uiso   1.00
H565   H     0.74028   0.94787   0.32906   0.00000  Uiso   1.00
H566   H     0.68023   0.98440   0.35112   0.00000  Uiso   1.00
H567   H     0.67598   0.92165   0.37325   0.00000  Uiso   1.00
H568   H     0.99961   0.72639   0.21988   0.00000  Uiso   1.00
H569   H     0.73079   0.75297   0.17527   0.00000  Uiso   1.00
H570   H     0.99067   0.74502   0.12675   0.00000  Uiso   1.00
H571   H     0.98644   0.68227   0.14888   0.00000  Uiso   1.00
H572   H     0.99695   0.89356   0.47023   0.00000  Uiso   1.00
H573   H     0.92638   0.71880   0.17094   0.00000  Uiso   1.00
H574   H     0.99037   0.86124   0.11786   0.00000  Uiso   1.00
H575   H     0.67630   0.80542   0.38214   0.00000  Uiso   1.00
H576   H     0.97575   0.77858   0.45889   0.00000  Uiso   1.00
H577   H     0.69092   0.88807   0.04111   0.00000  Uiso   1.00
H578   H     0.74494   0.79715   0.07526   0.00000  Uiso   1.00
H579   H     0.92173   0.86950   0.42474   0.00000  Uiso   1.00
H580   H     0.89916   0.68017   0.25976   0.00000  Uiso   1.00
N581   N     0.98173   0.84735   0.26212   0.00000  Uiso   1.00
N582   N     0.68494   0.81932   0.23788   0.00000  Uiso   1.00
N583   N     0.75918   0.90062   0.13241   0.00000  Uiso   1.00
N584   N     0.90749   0.76604   0.36759   0.00000  Uiso   1.00
O585   O     0.79482   0.90476   0.24686   0.00000  Uiso   1.00
O586   O     0.66865   0.80146   0.19993   0.00000  Uiso   1.00
O587   O     0.87185   0.76191   0.25314   0.00000  Uiso   1.00
O588   O     0.89496   0.91420   0.25502   0.00000  Uiso   1.00
O589   O     0.77171   0.75247   0.24497   0.00000  Uiso   1.00
O590   O     0.75518   0.82597   0.30854   0.00000  Uiso   1.00
O591   O     0.91149   0.84070   0.19145   0.00000  Uiso   1.00
O592   O     0.85532   0.83540   0.31671   0.00000  Uiso   1.00
O593   O     0.81134   0.83126   0.18329   0.00000  Uiso   1.00
O594   O     0.99803   0.86521   0.30007   0.00000  Uiso   1.00
C595   C     0.18162   0.26664   0.75155   0.00000  Uiso   1.00
C596   C     0.20466   0.17346   0.66727   0.00000  Uiso   1.00
C597   C     0.10728   0.14948   0.87992   0.00000  Uiso   1.00
C598   C     0.22605   0.18385   0.62008   0.00000  Uiso   1.00
C599   C     0.02497   0.12496   0.94438   0.00000  Uiso   1.00
C600   C     0.30836   0.20836   0.55562   0.00000  Uiso   1.00
C601   C     0.04393   0.13871   0.90051   0.00000  Uiso   1.00
C602   C     0.28941   0.19461   0.59949   0.00000  Uiso   1.00
C603   C     0.15077   0.14658   0.90448   0.00000  Uiso   1.00
C604   C     0.18257   0.18675   0.59552   0.00000  Uiso   1.00
C605   C     0.13321   0.14980   0.95035   0.00000  Uiso   1.00
C606   C     0.15172   0.06669   0.74845   0.00000  Uiso   1.00
C607   C     0.20013   0.18352   0.54965   0.00000  Uiso   1.00
C608   C     0.06934   0.13263   0.97002   0.00000  Uiso   1.00
C609   C     0.26400   0.20069   0.52998   0.00000  Uiso   1.00
C610   C     0.17682   0.16868   0.97697   0.00000  Uiso   1.00
C611   C     0.15651   0.16464   0.52303   0.00000  Uiso   1.00
C612   C     0.13167   0.21224   0.61570   0.00000  Uiso   1.00
C613   C     0.20166   0.12109   0.88429   0.00000  Uiso   1.00
C614   C     0.31930   0.24942   0.80979   0.00000  Uiso   1.00
C615   C     0.02293   0.27757   0.84288   0.00000  Uiso   1.00
C616   C     0.01403   0.08391   0.69021   0.00000  Uiso   1.00
C617   C     0.09436   0.13875   0.54088   0.00000  Uiso   1.00
C618   C     0.31040   0.05577   0.65712   0.00000  Uiso   1.00
C619   C     0.23898   0.19457   0.95912   0.00000  Uiso   1.00
C620   C     0.05117   0.12363   0.51472   0.00000  Uiso   1.00
C621   C     0.28217   0.20969   0.98528   0.00000  Uiso   1.00
C622   C     0.18936   0.32279   0.75312   0.00000  Uiso   1.00
C623   C     0.14398   0.01055   0.74688   0.00000  Uiso   1.00
C624   C     0.12867   0.15988   0.83273   0.00000  Uiso   1.00
Cu625  Cu    0.10737   0.16108   0.74516   0.00000  Uiso   1.00
Cu626  Cu    0.22596   0.17225   0.75483   0.00000  Uiso   1.00
H627   H     0.00305   0.10643   0.52977   0.00000  Uiso   1.00
H628   H     0.10084   0.31983   0.74024   0.00000  Uiso   1.00
H629   H     0.26920   0.24703   0.82473   0.00000  Uiso   1.00
H630   H     0.00038   0.27361   0.78012   0.00000  Uiso   1.00
H631   H     0.07362   0.28120   0.82906   0.00000  Uiso   1.00
H632   H     0.01356   0.31773   0.85112   0.00000  Uiso   1.00
H633   H     0.00932   0.25499   0.87325   0.00000  Uiso   1.00
H634   H     0.33294   0.05973   0.71988   0.00000  Uiso   1.00
H635   H     0.06413   0.08630   0.67527   0.00000  Uiso   1.00
H636   H     0.32400   0.07835   0.62675   0.00000  Uiso   1.00
H637   H     0.31977   0.01561   0.64888   0.00000  Uiso   1.00
H638   H     0.33028   0.22690   0.97023   0.00000  Uiso   1.00
H639   H     0.25971   0.05213   0.67094   0.00000  Uiso   1.00
H640   H     0.32370   0.19457   0.61786   0.00000  Uiso   1.00
H641   H     0.00963   0.13876   0.88214   0.00000  Uiso   1.00
H642   H     0.30908   0.11192   0.95889   0.00000  Uiso   1.00
H643   H     0.02426   0.22140   0.54111   0.00000  Uiso   1.00
H644   H     0.07828   0.13049   0.57526   0.00000  Uiso   1.00
H645   H     0.25506   0.20284   0.92474   0.00000  Uiso   1.00
H646   H     0.23250   0.01350   0.75976   0.00000  Uiso   1.00
N647   N     0.31506   0.18068   0.76212   0.00000  Uiso   1.00
N648   N     0.01827   0.15265   0.73788   0.00000  Uiso   1.00
N649   N     0.09251   0.23395   0.63241   0.00000  Uiso   1.00
N650   N     0.24082   0.09938   0.86759   0.00000  Uiso   1.00
O651   O     0.12815   0.23809   0.74686   0.00000  Uiso   1.00
O652   O     0.00198   0.13479   0.69993   0.00000  Uiso   1.00
O653   O     0.20518   0.09524   0.75314   0.00000  Uiso   1.00
O654   O     0.22829   0.24753   0.75502   0.00000  Uiso   1.00
O655   O     0.10504   0.08580   0.74497   0.00000  Uiso   1.00
O656   O     0.08851   0.15930   0.80854   0.00000  Uiso   1.00
O657   O     0.24482   0.17403   0.69145   0.00000  Uiso   1.00
O658   O     0.18866   0.16874   0.81671   0.00000  Uiso   1.00
O659   O     0.14468   0.16460   0.68329   0.00000  Uiso   1.00
O660   O     0.33136   0.19855   0.80007   0.00000  Uiso   1.00
C661   C     0.51495   0.26664   0.75155   0.00000  Uiso   1.00
C662   C     0.53800   0.17346   0.66727   0.00000  Uiso   1.00
C663   C     0.44061   0.14948   0.87992   0.00000  Uiso   1.00
C664   C     0.55939   0.18385   0.62008   0.00000  Uiso   1.00
C665   C     0.35831   0.12496   0.94438   0.00000  Uiso   1.00
C666   C     0.64170   0.20836   0.55562   0.00000  Uiso   1.00
C667   C     0.37726   0.13871   0.90051   0.00000  Uiso   1.00
C668   C     0.62274   0.19461   0.59949   0.00000  Uiso   1.00
C669   C     0.48410   0.14658   0.90448   0.00000  Uiso   1.00
C670   C     0.51590   0.18675   0.59552   0.00000  Uiso   1.00
C671   C     0.46654   0.14980   0.95035   0.00000  Uiso   1.00
C672   C     0.48505   0.06669   0.74845   0.00000  Uiso   1.00
C673   C     0.53346   0.18352   0.54965   0.00000  Uiso   1.00
C674   C     0.40267   0.13263   0.97002   0.00000  Uiso   1.00
C675   C     0.59733   0.20069   0.52998   0.00000  Uiso   1.00
C676   C     0.51016   0.16868   0.97697   0.00000  Uiso   1.00
C677   C     0.48985   0.16464   0.52303   0.00000  Uiso   1.00
C678   C     0.46501   0.21224   0.61570   0.00000  Uiso   1.00
C679   C     0.53500   0.12109   0.88429   0.00000  Uiso   1.00
C680   C     0.65264   0.24942   0.80979   0.00000  Uiso   1.00
C681   C     0.35626   0.27757   0.84288   0.00000  Uiso   1.00
C682   C     0.34736   0.08391   0.69021   0.00000  Uiso   1.00
C683   C     0.42769   0.13875   0.54088   0.00000  Uiso   1.00
C684   C     0.64374   0.05577   0.65712   0.00000  Uiso   1.00
C685   C     0.57231   0.19457   0.95912   0.00000  Uiso   1.00
C686   C     0.38450   0.12363   0.51472   0.00000  Uiso   1.00
C687   C     0.61550   0.20969   0.98528   0.00000  Uiso   1.00
C688   C     0.52269   0.32279   0.75312   0.00000  Uiso   1.00
C689   C     0.47731   0.01055   0.74688   0.00000  Uiso   1.00
C690   C     0.46200   0.15988   0.83273   0.00000  Uiso   1.00
Cu691  Cu    0.44071   0.16108   0.74516   0.00000  Uiso   1.00
Cu692  Cu    0.55929   0.17225   0.75483   0.00000  Uiso   1.00
H693   H     0.33639   0.10643   0.52977   0.00000  Uiso   1.00
H694   H     0.43417   0.31983   0.74024   0.00000  Uiso   1.00
H695   H     0.60254   0.24703   0.82473   0.00000  Uiso   1.00
H696   H     0.33372   0.27361   0.78012   0.00000  Uiso   1.00
H697   H     0.40695   0.28120   0.82906   0.00000  Uiso   1.00
H698   H     0.34690   0.31773   0.85112   0.00000  Uiso   1.00
H699   H     0.34265   0.25499   0.87325   0.00000  Uiso   1.00
H700   H     0.66627   0.05973   0.71988   0.00000  Uiso   1.00
H701   H     0.39746   0.08630   0.67527   0.00000  Uiso   1.00
H702   H     0.65734   0.07835   0.62675   0.00000  Uiso   1.00
H703   H     0.65311   0.01561   0.64888   0.00000  Uiso   1.00
H704   H     0.66361   0.22690   0.97023   0.00000  Uiso   1.00
H705   H     0.59304   0.05213   0.67094   0.00000  Uiso   1.00
H706   H     0.65703   0.19457   0.61786   0.00000  Uiso   1.00
H707   H     0.34297   0.13876   0.88214   0.00000  Uiso   1.00
H708   H     0.64241   0.11192   0.95889   0.00000  Uiso   1.00
H709   H     0.35759   0.22140   0.54111   0.00000  Uiso   1.00
H710   H     0.41161   0.13049   0.57526   0.00000  Uiso   1.00
H711   H     0.58839   0.20284   0.92474   0.00000  Uiso   1.00
H712   H     0.56583   0.01350   0.75976   0.00000  Uiso   1.00
N713   N     0.64839   0.18068   0.76212   0.00000  Uiso   1.00
N714   N     0.35161   0.15265   0.73788   0.00000  Uiso   1.00
N715   N     0.42585   0.23395   0.63241   0.00000  Uiso   1.00
N716   N     0.57416   0.09938   0.86759   0.00000  Uiso   1.00
O717   O     0.46148   0.23809   0.74686   0.00000  Uiso   1.00
O718   O     0.33531   0.13479   0.69993   0.00000  Uiso   1.00
O719   O     0.53852   0.09524   0.75314   0.00000  Uiso   1.00
O720   O     0.56163   0.24753   0.75502   0.00000  Uiso   1.00
O721   O     0.43837   0.08580   0.74497   0.00000  Uiso   1.00
O722   O     0.42185   0.15930   0.80854   0.00000  Uiso   1.00
O723   O     0.57815   0.17403   0.69145   0.00000  Uiso   1.00
O724   O     0.52199   0.16874   0.81671   0.00000  Uiso   1.00
O725   O     0.47801   0.16460   0.68329   0.00000  Uiso   1.00
O726   O     0.66469   0.19855   0.80007   0.00000  Uiso   1.00
C727   C     0.84828   0.26664   0.75155   0.00000  Uiso   1.00
C728   C     0.87133   0.17346   0.66727   0.00000  Uiso   1.00
C729   C     0.77395   0.14948   0.87992   0.00000  Uiso   1.00
C730   C     0.89272   0.18385   0.62008   0.00000  Uiso   1.00
C731   C     0.69164   0.12496   0.94438   0.00000  Uiso   1.00
C732   C     0.97503   0.20836   0.55562   0.00000  Uiso   1.00
C733   C     0.71059   0.13871   0.90051   0.00000  Uiso   1.00
C734   C     0.95607   0.19461   0.59949   0.00000  Uiso   1.00
C735   C     0.81743   0.14658   0.90448   0.00000  Uiso   1.00
C736   C     0.84923   0.18675   0.59552   0.00000  Uiso   1.00
C737   C     0.79987   0.14980   0.95035   0.00000  Uiso   1.00
C738   C     0.81838   0.06669   0.74845   0.00000  Uiso   1.00
C739   C     0.86680   0.18352   0.54965   0.00000  Uiso   1.00
C740   C     0.73600   0.13263   0.97002   0.00000  Uiso   1.00
C741   C     0.93067   0.20069   0.52998   0.00000  Uiso   1.00
C742   C     0.84349   0.16868   0.97697   0.00000  Uiso   1.00
C743   C     0.82318   0.16464   0.52303   0.00000  Uiso   1.00
C744   C     0.79834   0.21224   0.61570   0.00000  Uiso   1.00
C745   C     0.86833   0.12109   0.88429   0.00000  Uiso   1.00
C746   C     0.98597   0.24942   0.80979   0.00000  Uiso   1.00
C747   C     0.68959   0.27757   0.84288   0.00000  Uiso   1.00
C748   C     0.68069   0.08391   0.69021   0.00000  Uiso   1.00
C749   C     0.76103   0.13875   0.54088   0.00000  Uiso   1.00
C750   C     0.97707   0.05577   0.65712   0.00000  Uiso   1.00
C751   C     0.90564   0.19457   0.95912   0.00000  Uiso   1.00
C752   C     0.71783   0.12363   0.51472   0.00000  Uiso   1.00
C753   C     0.94884   0.20969   0.98528   0.00000  Uiso   1.00
C754   C     0.85602   0.32279   0.75312   0.00000  Uiso   1.00
C755   C     0.81064   0.01055   0.74688   0.00000  Uiso   1.00
C756   C     0.79534   0.15988   0.83273   0.00000  Uiso   1.00
Cu757  Cu    0.77404   0.16108   0.74516   0.00000  Uiso   1.00
Cu758  Cu    0.89263   0.17225   0.75483   0.00000  Uiso   1.00
H759   H     0.66972   0.10643   0.52977   0.00000  Uiso   1.00
H760   H     0.76750   0.31983   0.74024   0.00000  Uiso   1.00
H761   H     0.93587   0.24703   0.82473   0.00000  Uiso   1.00
H762   H     0.66705   0.27361   0.78012   0.00000  Uiso   1.00
H763   H     0.74028   0.28120   0.82906   0.00000  Uiso   1.00
H764   H     0.68023   0.31773   0.85112   0.00000  Uiso   1.00
H765   H     0.67598   0.25499   0.87325   0.00000  Uiso   1.00
H766   H     0.99961   0.05973   0.71988   0.00000  Uiso   1.00
H767   H     0.73079   0.08630   0.67527   0.00000  Uiso   1.00
H768   H     0.99067   0.07835   0.62675   0.00000  Uiso   1.00
H769   H     0.98644   0.01561   0.64888   0.00000  Uiso   1.00
H770   H     0.99695   0.22690   0.97023   0.00000  Uiso   1.00
H771   H     0.92638   0.05213   0.67094   0.00000  Uiso   1.00
H772   H     0.99037   0.19457   0.61786   0.00000  Uiso   1.00
H773   H     0.67630   0.13876   0.88214   0.00000  Uiso   1.00
H774   H     0.97575   0.11192   0.95889   0.00000  Uiso   1.00
H775   H     0.69092   0.22140   0.54111   0.00000  Uiso   1.00
H776   H     0.74494   0.13049   0.57526   0.00000  Uiso   1.00
H777   H     0.92173   0.20284   0.92474   0.00000  Uiso   1.00
H778   H     0.89916   0.01350   0.75976   0.00000  Uiso   1.00
N779   N     0.98173   0.18068   0.76212   0.00000  Uiso   1.00
N780   N     0.68494   0.15265   0.73788   0.00000  Uiso   1.00
N781   N     0.75918   0.23395   0.63241   0.00000  Uiso   1.00
N782   N     0.90749   0.09938   0.86759   0.00000  Uiso   1.00
O783   O     0.79482   0.23809   0.74686   0.00000  Uiso   1.00
O784   O     0.66865   0.13479   0.69993   0.00000  Uiso   1.00
O785   O     0.87185   0.09524   0.75314   0.00000  Uiso   1.00
O786   O     0.89496   0.24753   0.75502   0.00000  Uiso   1.00
O787   O     0.77171   0.08580   0.74497   0.00000  Uiso   1.00
O788   O     0.75518   0.15930   0.80854   0.00000  Uiso   1.00
O789   O     0.91149   0.17403   0.69145   0.00000  Uiso   1.00
O790   O     0.85532   0.16874   0.81671   0.00000  Uiso   1.00
O791   O     0.81134   0.16460   0.68329   0.00000  Uiso   1.00
O792   O     0.99803   0.19855   0.80007   0.00000  Uiso   1.00
C793   C     0.18162   0.59997   0.75155   0.00000  Uiso   1.00
C794   C     0.20466   0.50679   0.66727   0.00000  Uiso   1.00
C795   C     0.10728   0.48281   0.87992   0.00000  Uiso   1.00
C796   C     0.22605   0.51719   0.62008   0.00000  Uiso   1.00
C797   C     0.02497   0.45830   0.94438   0.00000  Uiso   1.00
C798   C     0.30836   0.54169   0.55562   0.00000  Uiso   1.00
C799   C     0.04393   0.47204   0.90051   0.00000  Uiso   1.00
C800   C     0.28941   0.52795   0.59949   0.00000  Uiso   1.00
C801   C     0.15077   0.47991   0.90448   0.00000  Uiso   1.00
C802   C     0.18257   0.52008   0.59552   0.00000  Uiso   1.00
C803   C     0.13321   0.48313   0.95035   0.00000  Uiso   1.00
C804   C     0.15172   0.40003   0.74845   0.00000  Uiso   1.00
C805   C     0.20013   0.51686   0.54965   0.00000  Uiso   1.00
C806   C     0.06934   0.46597   0.97002   0.00000  Uiso   1.00
C807   C     0.26400   0.53402   0.52998   0.00000  Uiso   1.00
C808   C     0.17682   0.50201   0.97697   0.00000  Uiso   1.00
C809   C     0.15651   0.49798   0.52303   0.00000  Uiso   1.00
C810   C     0.13167   0.54558   0.61570   0.00000  Uiso   1.00
C811   C     0.20166   0.45442   0.88429   0.00000  Uiso   1.00
C812   C     0.31930   0.58276   0.80979   0.00000  Uiso   1.00
C813   C     0.02293   0.61090   0.84288   0.00000  Uiso   1.00
C814   C     0.01403   0.41724   0.69021   0.00000  Uiso   1.00
C815   C     0.09436   0.47208   0.54088   0.00000  Uiso   1.00
C816   C     0.31040   0.38910   0.65712   0.00000  Uiso   1.00
C817   C     0.23898   0.52790   0.95912   0.00000  Uiso   1.00
C818   C     0.05117   0.45697   0.51472   0.00000  Uiso   1.00
C819   C     0.28217   0.54302   0.98528   0.00000  Uiso   1.00
C820   C     0.18936   0.65612   0.75312   0.00000  Uiso   1.00
C821   C     0.14398   0.34388   0.74688   0.00000  Uiso   1.00
C822   C     0.12867   0.49321   0.83273   0.00000  Uiso   1.00
Cu823  Cu    0.10737   0.49441   0.74516   0.00000  Uiso   1.00
Cu824  Cu    0.22596   0.50559   0.75483   0.00000  Uiso   1.00
H825   H     0.00305   0.43976   0.52977   0.00000  Uiso   1.00
H826   H     0.10084   0.65317   0.74024   0.00000  Uiso   1.00
H827   H     0.26920   0.58036   0.82473   0.00000  Uiso   1.00
H828   H     0.00038   0.60694   0.78012   0.00000  Uiso   1.00
H829   H     0.07362   0.61453   0.82906   0.00000  Uiso   1.00
H830   H     0.01356   0.65107   0.85112   0.00000  Uiso   1.00
H831   H     0.00932   0.58832   0.87325   0.00000  Uiso   1.00
H832   H     0.33294   0.39306   0.71988   0.00000  Uiso   1.00
H833   H     0.06413   0.41963   0.67527   0.00000  Uiso   1.00
H834   H     0.32400   0.41169   0.62675   0.00000  Uiso   1.00
H835   H     0.31977   0.34894   0.64888   0.00000  Uiso   1.00
H836   H     0.33028   0.56023   0.97023   0.00000  Uiso   1.00
H837   H     0.25971   0.38546   0.67094   0.00000  Uiso   1.00
H838   H     0.32370   0.52790   0.61786   0.00000  Uiso   1.00
H839   H     0.00963   0.47209   0.88214   0.00000  Uiso   1.00
H840   H     0.30908   0.44525   0.95889   0.00000  Uiso   1.00
H841   H     0.02426   0.55474   0.54111   0.00000  Uiso   1.00
H842   H     0.07828   0.46382   0.57526   0.00000  Uiso   1.00
H843   H     0.25506   0.53617   0.92474   0.00000  Uiso   1.00
H844   H     0.23250   0.34683   0.75976   0.00000  Uiso   1.00
N845   N     0.31506   0.51401   0.76212   0.00000  Uiso   1.00
N846   N     0.01827   0.48599   0.73788   0.00000  Uiso   1.00
N847   N     0.09251   0.56729   0.63241   0.00000  Uiso   1.00
N848   N     0.24082   0.43271   0.86759   0.00000  Uiso   1.00
O849   O     0.12815   0.57142   0.74686   0.00000  Uiso   1.00
O850   O     0.00198   0.46813   0.69993   0.00000  Uiso   1.00
O851   O     0.20518   0.42858   0.75314   0.00000  Uiso   1.00
O852   O     0.22829   0.58086   0.75502   0.00000  Uiso   1.00
O853   O     0.10504   0.41914   0.74497   0.00000  Uiso   1.00
O854   O     0.08851   0.49263   0.80854   0.00000  Uiso   1.00
O855   O     0.24482   0.50737   0.69145   0.00000  Uiso   1.00
O856   O     0.18866   0.50207   0.81671   0.00000  Uiso   1.00
O857   O     0.14468   0.49793   0.68329   0.00000  Uiso   1.00
O858   O     0.33136   0.53188   0.80007   0.00000  Uiso   1.00
C859   C     0.51495   0.59997   0.75155   0.00000  Uiso   1.00
C860   C     0.53800   0.50679   0.66727   0.00000  Uiso   1.00
C861   C     0.44061   0.48281   0.87992   0.00000  Uiso   1.00
C862   C     0.55939   0.51719   0.62008   0.00000  Uiso   1.00
C863   C     0.35831   0.45830   0.94438   0.00000  Uiso   1.00
C864   C     0.64170   0.54169   0.55562   0.00000  Uiso   1.00
C865   C     0.37726   0.47204   0.90051   0.00000  Uiso   1.00
C866   C     0.62274   0.52795   0.59949   0.00000  Uiso   1.00
C867   C     0.48410   0.47991   0.90448   0.00000  Uiso   1.00
C868   C     0.51590   0.52008   0.59552   0.00000  Uiso   1.00
C869   C     0.46654   0.48313   0.95035   0.00000  Uiso   1.00
C870   C     0.48505   0.40003   0.74845   0.00000  Uiso   1.00
C871   C     0.53346   0.51686   0.54965   0.00000  Uiso   1.00
C872   C     0.40267   0.46597   0.97002   0.00000  Uiso   1.00
C873   C     0.59733   0.53402   0.52998   0.00000  Uiso   1.00
C874   C     0.51016   0.50201   0.97697   0.00000  Uiso   1.00
C875   C     0.48985   0.49798   0.52303   0.00000  Uiso   1.00
C876   C     0.46501   0.54558   0.61570   0.00000  Uiso   1.00
C877   C     0.53500   0.45442   0.88429   0.00000  Uiso   1.00
C878   C     0.65264   0.58276   0.80979   0.00000  Uiso   1.00
C879   C     0.35626   0.61090   0.84288   0.00000  Uiso   1.00
C880   C     0.34736   0.41724   0.69021   0.00000  Uiso   1.00
C881   C     0.42769   0.47208   0.54088   0.00000  Uiso   1.00
C882   C     0.64374   0.38910   0.65712   0.00000  Uiso   1.00
C883   C     0.57231   0.52790   0.95912   0.00000  Uiso   1.00
C884   C     0.38450   0.45697   0.51472   0.00000  Uiso   1.00
C885   C     0.61550   0.54302   0.98528   0.00000  Uiso   1.00
C886   C     0.52269   0.65612   0.75312   0.00000  Uiso   1.00
C887   C     0.47731   0.34388   0.74688   0.00000  Uiso   1.00
C888   C     0.46200   0.49321   0.83273   0.00000  Uiso   1.00
Cu889  Cu    0.44071   0.49441   0.74516   0.00000  Uiso   1.00
Cu890  Cu    0.55929   0.50559   0.75483   0.00000  Uiso   1.00
H891   H     0.33639   0.43976   0.52977   0.00000  Uiso   1.00
H892   H     0.43417   0.65317   0.74024   0.00000  Uiso   1.00
H893   H     0.60254   0.58036   0.82473   0.00000  Uiso   1.00
H894   H     0.33372   0.60694   0.78012   0.00000  Uiso   1.00
H895   H     0.40695   0.61453   0.82906   0.00000  Uiso   1.00
H896   H     0.34690   0.65107   0.85112   0.00000  Uiso   1.00
H897   H     0.34265   0.58832   0.87325   0.00000  Uiso   1.00
H898   H     0.66627   0.39306   0.71988   0.00000  Uiso   1.00
H899   H     0.39746   0.41963   0.67527   0.00000  Uiso   1.00
H900   H     0.65734   0.41169   0.62675   0.00000  Uiso   1.00
H901   H     0.65311   0.34894   0.64888   0.00000  Uiso   1.00
H902   H     0.66361   0.56023   0.97023   0.00000  Uiso   1.00
H903   H     0.59304   0.38546   0.67094   0.00000  Uiso   1.00
H904   H     0.65703   0.52790   0.61786   0.00000  Uiso   1.00
H905   H     0.34297   0.47209   0.88214   0.00000  Uiso   1.00
H906   H     0.64241   0.44525   0.95889   0.00000  Uiso   1.00
H907   H     0.35759   0.55474   0.54111   0.00000  Uiso   1.00
H908   H     0.41161   0.46382   0.57526   0.00000  Uiso   1.00
H909   H     0.58839   0.53617   0.92474   0.00000  Uiso   1.00
H910   H     0.56583   0.34683   0.75976   0.00000  Uiso   1.00
N911   N     0.64839   0.51401   0.76212   0.00000  Uiso   1.00
N912   N     0.35161   0.48599   0.73788   0.00000  Uiso   1.00
N913   N     0.42585   0.56729   0.63241   0.00000  Uiso   1.00
N914   N     0.57416   0.43271   0.86759   0.00000  Uiso   1.00
O915   O     0.46148   0.57142   0.74686   0.00000  Uiso   1.00
O916   O     0.33531   0.46813   0.69993   0.00000  Uiso   1.00
O917   O     0.53852   0.42858   0.75314   0.00000  Uiso   1.00
O918   O     0.56163   0.58086   0.75502   0.00000  Uiso   1.00
O919   O     0.43837   0.41914   0.74497   0.00000  Uiso   1.00
O920   O     0.42185   0.49263   0.80854   0.00000  Uiso   1.00
O921   O     0.57815   0.50737   0.69145   0.00000  Uiso   1.00
O922   O     0.52199   0.50207   0.81671   0.00000  Uiso   1.00
O923   O     0.47801   0.49793   0.68329   0.00000  Uiso   1.00
O924   O     0.66469   0.53188   0.80007   0.00000  Uiso   1.00
C925   C     0.84828   0.59997   0.75155   0.00000  Uiso   1.00
C926   C     0.87133   0.50679   0.66727   0.00000  Uiso   1.00
C927   C     0.77395   0.48281   0.87992   0.00000  Uiso   1.00
C928   C     0.89272   0.51719   0.62008   0.00000  Uiso   1.00
C929   C     0.69164   0.45830   0.94438   0.00000  Uiso   1.00
C930   C     0.97503   0.54169   0.55562   0.00000  Uiso   1.00
C931   C     0.71059   0.47204   0.90051   0.00000  Uiso   1.00
C932   C     0.95607   0.52795   0.59949   0.00000  Uiso   1.00
C933   C     0.81743   0.47991   0.90448   0.00000  Uiso   1.00
C934   C     0.84923   0.52008   0.59552   0.00000  Uiso   1.00
C935   C     0.79987   0.48313   0.95035   0.00000  Uiso   1.00
C936   C     0.81838   0.40003   0.74845   0.00000  Uiso   1.00
C937   C     0.86680   0.51686   0.54965   0.00000  Uiso   1.00
C938   C     0.73600   0.46597   0.97002   0.00000  Uiso   1.00
C939   C     0.93067   0.53402   0.52998   0.00000  Uiso   1.00
C940   C     0.84349   0.50201   0.97697   0.00000  Uiso   1.00
C941   C     0.82318   0.49798   0.52303   0.00000  Uiso   1.00
C942   C     0.79834   0.54558   0.61570   0.00000  Uiso   1.00
C943   C     0.86833   0.45442   0.88429   0.00000  Uiso   1.00
C944   C     0.98597   0.58276   0.80979   0.00000  Uiso   1.00
C945   C     0.68959   0.61090   0.84288   0.00000  Uiso   1.00
C946   C     0.68069   0.41724   0.69021   0.00000  Uiso   1.00
C947   C     0.76103   0.47208   0.54088   0.00000  Uiso   1.00
C948   C     0.97707   0.38910   0.65712   0.00000  Uiso   1.00
C949   C     0.90564   0.52790   0.95912   0.00000  Uiso   1.00
C950   C     0.71783   0.45697   0.51472   0.00000  Uiso   1.00
C951   C     0.94884   0.54302   0.98528   0.00000  Uiso   1.00
C952   C     0.85602   0.65612   0.75312   0.00000  Uiso   1.00
C953   C     0.81064   0.34388   0.74688   0.00000  Uiso   1.00
C954   C     0.79534   0.49321   0.83273   0.00000  Uiso   1.00
Cu955  Cu    0.77404   0.49441   0.74516   0.00000  Uiso   1.00
Cu956  Cu    0.89263   0.50559   0.75483   0.00000  Uiso   1.00
H957   H     0.66972   0.43976   0.52977   0.00000  Uiso   1.00
H958   H     0.76750   0.65317   0.74024   0.00000  Uiso   1.00
H959   H     0.93587   0.58036   0.82473   0.00000  Uiso   1.00
H960   H     0.66705   0.60694   0.78012   0.00000  Uiso   1.00
H961   H     0.74028   0.61453   0.82906   0.00000  Uiso   1.00
H962   H     0.68023   0.65107   0.85112   0.00000  Uiso   1.00
H963   H     0.67598   0.58832   0.87325   0.00000  Uiso   1.00
H964   H     0.99961   0.39306   0.71988   0.00000  Uiso   1.00
H965   H     0.73079   0.41963   0.67527   0.00000  Uiso   1.00
H966   H     0.99067   0.41169   0.62675   0.00000  Uiso   1.00
H967   H     0.98644   0.34894   0.64888   0.00000  Uiso   1.00
H968   H     0.99695   0.56023   0.97023   0.00000  Uiso   1.00
H969   H     0.92638   0.38546   0.67094   0.00000  Uiso   1.00
H970   H     0.99037   0.52790   0.61786   0.00000  Uiso   1.00
H971   H     0.67630   0.47209   0.88214   0.00000  Uiso   1.00
H972   H     0.97575   0.44525   0.95889   0.00000  Uiso   1.00
H973   H     0.69092   0.55474   0.54111   0.00000  Uiso   1.00
H974   H     0.74494   0.46382   0.57526   0.00000  Uiso   1.00
H975   H     0.92173   0.53617   0.92474   0.00000  Uiso   1.00
H976   H     0.89916   0.34683   0.75976   0.00000  Uiso   1.00
N977   N     0.98173   0.51401   0.76212   0.00000  Uiso   1.00
N978   N     0.68494   0.48599   0.73788   0.00000  Uiso   1.00
N979   N     0.75918   0.56729   0.63241   0.00000  Uiso   1.00
N980   N     0.90749   0.43271   0.86759   0.00000  Uiso   1.00
O981   O     0.79482   0.57142   0.74686   0.00000  Uiso   1.00
O982   O     0.66865   0.46813   0.69993   0.00000  Uiso   1.00
O983   O     0.87185   0.42858   0.75314   0.00000  Uiso   1.00
O984   O     0.89496   0.58086   0.75502   0.00000  Uiso   1.00
O985   O     0.77171   0.41914   0.74497   0.00000  Uiso   1.00
O986   O     0.75518   0.49263   0.80854   0.00000  Uiso   1.00
O987   O     0.91149   0.50737   0.69145   0.00000  Uiso   1.00
O988   O     0.85532   0.50207   0.81671   0.00000  Uiso   1.00
O989   O     0.81134   0.49793   0.68329   0.00000  Uiso   1.00
O990   O     0.99803   0.53188   0.80007   0.00000  Uiso   1.00
C991   C     0.18162   0.93331   0.75155   0.00000  Uiso   1.00
C992   C     0.20466   0.84012   0.66727   0.00000  Uiso   1.00
C993   C     0.10728   0.81614   0.87992   0.00000  Uiso   1.00
C994   C     0.22605   0.85052   0.62008   0.00000  Uiso   1.00
C995   C     0.02497   0.79163   0.94438   0.00000  Uiso   1.00
C996   C     0.30836   0.87503   0.55562   0.00000  Uiso   1.00
C997   C     0.04393   0.80538   0.90051   0.00000  Uiso   1.00
C998   C     0.28941   0.86128   0.59949   0.00000  Uiso   1.00
C999   C     0.15077   0.81324   0.90448   0.00000  Uiso   1.00
C1000  C     0.18257   0.85342   0.59552   0.00000  Uiso   1.00
C1001  C     0.13321   0.81646   0.95035   0.00000  Uiso   1.00
C1002  C     0.15172   0.73336   0.74845   0.00000  Uiso   1.00
C1003  C     0.20013   0.85019   0.54965   0.00000  Uiso   1.00
C1004  C     0.06934   0.79930   0.97002   0.00000  Uiso   1.00
C1005  C     0.26400   0.86735   0.52998   0.00000  Uiso   1.00
C1006  C     0.17682   0.83534   0.97697   0.00000  Uiso   1.00
C1007  C     0.15651   0.83131   0.52303   0.00000  Uiso   1.00
C1008  C     0.13167   0.87891   0.61570   0.00000  Uiso   1.00
C1009  C     0.20166   0.78775   0.88429   0.00000  Uiso   1.00
C1010  C     0.31930   0.91609   0.80979   0.00000  Uiso   1.00
C1011  C     0.02293   0.94423   0.84288   0.00000  Uiso   1.00
C1012  C     0.01403   0.75058   0.69021   0.00000  Uiso   1.00
C1013  C     0.09436   0.80542   0.54088   0.00000  Uiso   1.00
C1014  C     0.31040   0.72244   0.65712   0.00000  Uiso   1.00
C1015  C     0.23898   0.86124   0.95912   0.00000  Uiso   1.00
C1016  C     0.05117   0.79030   0.51472   0.00000  Uiso   1.00
C1017  C     0.28217   0.87636   0.98528   0.00000  Uiso   1.00
C1018  C     0.18936   0.98945   0.75312   0.00000  Uiso   1.00
C1019  C     0.14398   0.67721   0.74688   0.00000  Uiso   1.00
C1020  C     0.12867   0.82654   0.83273   0.00000  Uiso   1.00
Cu1021 Cu    0.10737   0.82775   0.74516   0.00000  Uiso   1.00
Cu1022 Cu    0.22596   0.83892   0.75483   0.00000  Uiso   1.00
H1023  H     0.00305   0.77309   0.52977   0.00000  Uiso   1.00
H1024  H     0.10084   0.98650   0.74024   0.00000  Uiso   1.00
H1025  H     0.26920   0.91370   0.82473   0.00000  Uiso   1.00
H1026  H     0.00038   0.94028   0.78012   0.00000  Uiso   1.00
H1027  H     0.07362   0.94787   0.82906   0.00000  Uiso   1.00
H1028  H     0.01356   0.98440   0.85112   0.00000  Uiso   1.00
H1029  H     0.00932   0.92165   0.87325   0.00000  Uiso   1.00
H1030  H     0.33294   0.72639   0.71988   0.00000  Uiso   1.00
H1031  H     0.06413   0.75297   0.67527   0.00000  Uiso   1.00
H1032  H     0.32400   0.74502   0.62675   0.00000  Uiso   1.00
H1033  H     0.31977   0.68227   0.64888   0.00000  Uiso   1.00
H1034  H     0.33028   0.89356   0.97023   0.00000  Uiso   1.00
H1035  H     0.25971   0.71880   0.67094   0.00000  Uiso   1.00
H1036  H     0.32370   0.86124   0.61786   0.00000  Uiso   1.00
H1037  H     0.00963   0.80542   0.88214   0.00000  Uiso   1.00
H1038  H     0.30908   0.77858   0.95889   0.00000  Uiso   1.00
H1039  H     0.02426   0.88807   0.54111   0.00000  Uiso   1.00
H1040  H     0.07828   0.79715   0.57526   0.00000  Uiso   1.00
H1041  H     0.25506   0.86950   0.92474   0.00000  Uiso   1.00
H1042  H     0.23250   0.68017   0.75976   0.00000  Uiso   1.00
N1043  N     0.31506   0.84735   0.76212   0.00000  Uiso   1.00
N1044  N     0.01827   0.81932   0.73788   0.00000  Uiso   1.00
N1045  N     0.09251   0.90062   0.63241   0.00000  Uiso   1.00
N1046  N     0.24082   0.76604   0.86759   0.00000  Uiso   1.00
O1047  O     0.12815   0.90476   0.74686   0.00000  Uiso   1.00
O1048  O     0.00198   0.80146   0.69993   0.00000  Uiso   1.00
O1049  O     0.20518   0.76191   0.75314   0.00000  Uiso   1.00
O1050  O     0.22829   0.91420   0.75502   0.00000  Uiso   1.00
O1051  O     0.10504   0.75247   0.74497   0.00000  Uiso   1.00
O1052  O     0.08851   0.82597   0.80854   0.00000  Uiso   1.00
O1053  O     0.24482   0.84070   0.69145   0.00000  Uiso   1.00
O1054  O     0.18866   0.83540   0.81671   0.00000  Uiso   1.00
O1055  O     0.14468   0.83126   0.68329   0.00000  Uiso   1.00
O1056  O     0.33136   0.86521   0.80007   0.00000  Uiso   1.00
C1057  C     0.51495   0.93331   0.75155   0.00000  Uiso   1.00
C1058  C     0.53800   0.84012   0.66727   0.00000  Uiso   1.00
C1059  C     0.44061   0.81614   0.87992   0.00000  Uiso   1.00
C1060  C     0.55939   0.85052   0.62008   0.00000  Uiso   1.00
C1061  C     0.35831   0.79163   0.94438   0.00000  Uiso   1.00
C1062  C     0.64170   0.87503   0.55562   0.00000  Uiso   1.00
C1063  C     0.37726   0.80538   0.90051   0.00000  Uiso   1.00
C1064  C     0.62274   0.86128   0.59949   0.00000  Uiso   1.00
C1065  C     0.48410   0.81324   0.90448   0.00000  Uiso   1.00
C1066  C     0.51590   0.85342   0.59552   0.00000  Uiso   1.00
C1067  C     0.46654   0.81646   0.95035   0.00000  Uiso   1.00
C1068  C     0.48505   0.73336   0.74845   0.00000  Uiso   1.00
C1069  C     0.53346   0.85019   0.54965   0.00000  Uiso   1.00
C1070  C     0.40267   0.79930   0.97002   0.00000  Uiso   1.00
C1071  C     0.59733   0.86735   0.52998   0.00000  Uiso   1.00
C1072  C     0.51016   0.83534   0.97697   0.00000  Uiso   1.00
C1073  C     0.48985   0.83131   0.52303   0.00000  Uiso   1.00
C1074  C     0.46501   0.87891   0.61570   0.00000  Uiso   1.00
C1075  C     0.53500   0.78775   0.88429   0.00000  Uiso   1.00
C1076  C     0.65264   0.91609   0.80979   0.00000  Uiso   1.00
C1077  C     0.35626   0.94423   0.84288   0.00000  Uiso   1.00
C1078  C     0.34736   0.75058   0.69021   0.00000  Uiso   1.00
C1079  C     0.42769   0.80542   0.54088   0.00000  Uiso   1.00
C1080  C     0.64374   0.72244   0.65712   0.00000  Uiso   1.00
C1081  C     0.57231   0.86124   0.95912   0.00000  Uiso   1.00
C1082  C     0.38450   0.79030   0.51472   0.00000  Uiso   1.00
C1083  C     0.61550   0.87636   0.98528   0.00000  Uiso   1.00
C1084  C     0.52269   0.98945   0.75312   0.00000  Uiso   1.00
C1085  C     0.47731   0.67721   0.74688   0.00000  Uiso   1.00
C1086  C     0.46200   0.82654   0.83273   0.00000  Uiso   1.00
Cu1087 Cu    0.44071   0.82775   0.74516   0.00000  Uiso   1.00
Cu1088 Cu    0.55929   0.83892   0.75483   0.00000  Uiso   1.00
H1089  H     0.33639   0.77309   0.52977   0.00000  Uiso   1.00
H1090  H     0.43417   0.98650   0.74024   0.00000  Uiso   1.00
H1091  H     0.60254   0.91370   0.82473   0.00000  Uiso   1.00
H1092  H     0.33372   0.94028   0.78012   0.00000  Uiso   1.00
H1093  H     0.40695   0.94787   0.82906   0.00000  Uiso   1.00
H1094  H     0.34690   0.98440   0.85112   0.00000  Uiso   1.00
H1095  H     0.34265   0.92165   0.87325   0.00000  Uiso   1.00
H1096  H     0.66627   0.72639   0.71988   0.00000  Uiso   1.00
H1097  H     0.39746   0.75297   0.67527   0.00000  Uiso   1.00
H1098  H     0.65734   0.74502   0.62675   0.00000  Uiso   1.00
H1099  H     0.65311   0.68227   0.64888   0.00000  Uiso   1.00
H1100  H     0.66361   0.89356   0.97023   0.00000  Uiso   1.00
H1101  H     0.59304   0.71880   0.67094   0.00000  Uiso   1.00
H1102  H     0.65703   0.86124   0.61786   0.00000  Uiso   1.00
H1103  H     0.34297   0.80542   0.88214   0.00000  Uiso   1.00
H1104  H     0.64241   0.77858   0.95889   0.00000  Uiso   1.00
H1105  H     0.35759   0.88807   0.54111   0.00000  Uiso   1.00
H1106  H     0.41161   0.79715   0.57526   0.00000  Uiso   1.00
H1107  H     0.58839   0.86950   0.92474   0.00000  Uiso   1.00
H1108  H     0.56583   0.68017   0.75976   0.00000  Uiso   1.00
N1109  N     0.64839   0.84735   0.76212   0.00000  Uiso   1.00
N1110  N     0.35161   0.81932   0.73788   0.00000  Uiso   1.00
N1111  N     0.42585   0.90062   0.63241   0.00000  Uiso   1.00
N1112  N     0.57416   0.76604   0.86759   0.00000  Uiso   1.00
O1113  O     0.46148   0.90476   0.74686   0.00000  Uiso   1.00
O1114  O     0.33531   0.80146   0.69993   0.00000  Uiso   1.00
O1115  O     0.53852   0.76191   0.75314   0.00000  Uiso   1.00
O1116  O     0.56163   0.91420   0.75502   0.00000  Uiso   1.00
O1117  O     0.43837   0.75247   0.74497   0.00000  Uiso   1.00
O1118  O     0.42185   0.82597   0.80854   0.00000  Uiso   1.00
O1119  O     0.57815   0.84070   0.69145   0.00000  Uiso   1.00
O1120  O     0.52199   0.83540   0.81671   0.00000  Uiso   1.00
O1121  O     0.47801   0.83126   0.68329   0.00000  Uiso   1.00
O1122  O     0.66469   0.86521   0.80007   0.00000  Uiso   1.00
C1123  C     0.84828   0.93331   0.75155   0.00000  Uiso   1.00
C1124  C     0.87133   0.84012   0.66727   0.00000  Uiso   1.00
C1125  C     0.77395   0.81614   0.87992   0.00000  Uiso   1.00
C1126  C     0.89272   0.85052   0.62008   0.00000  Uiso   1.00
C1127  C     0.69164   0.79163   0.94438   0.00000  Uiso   1.00
C1128  C     0.97503   0.87503   0.55562   0.00000  Uiso   1.00
C1129  C     0.71059   0.80538   0.90051   0.00000  Uiso   1.00
C1130  C     0.95607   0.86128   0.59949   0.00000  Uiso   1.00
C1131  C     0.81743   0.81324   0.90448   0.00000  Uiso   1.00
C1132  C     0.84923   0.85342   0.59552   0.00000  Uiso   1.00
C1133  C     0.79987   0.81646   0.95035   0.00000  Uiso   1.00
C1134  C     0.81838   0.73336   0.74845   0.00000  Uiso   1.00
C1135  C     0.86680   0.85019   0.54965   0.00000  Uiso   1.00
C1136  C     0.73600   0.79930   0.97002   0.00000  Uiso   1.00
C1137  C     0.93067   0.86735   0.52998   0.00000  Uiso   1.00
C1138  C     0.84349   0.83534   0.97697   0.00000  Uiso   1.00
C1139  C     0.82318   0.83131   0.52303   0.00000  Uiso   1.00
C1140  C     0.79834   0.87891   0.61570   0.00000  Uiso   1.00
C1141  C     0.86833   0.78775   0.88429   0.00000  Uiso   1.00
C1142  C     0.98597   0.91609   0.80979   0.00000  Uiso   1.00
C1143  C     0.68959   0.94423   0.84288   0.00000  Uiso   1.00
C1144  C     0.68069   0.75058   0.69021   0.00000  Uiso   1.00
C1145  C     0.76103   0.80542   0.54088   0.00000  Uiso   1.00
C1146  C     0.97707   0.72244   0.65712   0.00000  Uiso   1.00
C1147  C     0.90564   0.86124   0.95912   0.00000  Uiso   1.00
C1148  C     0.71783   0.79030   0.51472   0.00000  Uiso   1.00
C1149  C     0.94884   0.87636   0.98528   0.00000  Uiso   1.00
C1150  C     0.85602   0.98945   0.75312   0.00000  Uiso   1.00
C1151  C     0.81064   0.67721   0.74688   0.00000  Uiso   1.00
C1152  C     0.79534   0.82654   0.83273   0.00000  Uiso   1.00
Cu1153 Cu    0.77404   0.82775   0.74516   0.00000  Uiso   1.00
Cu1154 Cu    0.89263   0.83892   0.75483   0.00000  Uiso   1.00
H1155  H     0.66972   0.77309   0.52977   0.00000  Uiso   1.00
H1156  H     0.76750   0.98650   0.74024   0.00000  Uiso   1.00
H1157  H     0.93587   0.91370   0.82473   0.00000  Uiso   1.00
H1158  H     0.66705   0.94028   0.78012   0.00000  Uiso   1.00
H1159  H     0.74028   0.94787   0.82906   0.00000  Uiso   1.00
H1160  H     0.68023   0.98440   0.85112   0.00000  Uiso   1.00
H1161  H     0.67598   0.92165   0.87325   0.00000  Uiso   1.00
H1162  H     0.99961   0.72639   0.71988   0.00000  Uiso   1.00
H1163  H     0.73079   0.75297   0.67527   0.00000  Uiso   1.00
H1164  H     0.99067   0.74502   0.62675   0.00000  Uiso   1.00
H1165  H     0.98644   0.68227   0.64888   0.00000  Uiso   1.00
H1166  H     0.99695   0.89356   0.97023   0.00000  Uiso   1.00
H1167  H     0.92638   0.71880   0.67094   0.00000  Uiso   1.00
H1168  H     0.99037   0.86124   0.61786   0.00000  Uiso   1.00
H1169  H     0.67630   0.80542   0.88214   0.00000  Uiso   1.00
H1170  H     0.97575   0.77858   0.95889   0.00000  Uiso   1.00
H1171  H     0.69092   0.88807   0.54111   0.00000  Uiso   1.00
H1172  H     0.74494   0.79715   0.57526   0.00000  Uiso   1.00
H1173  H     0.92173   0.86950   0.92474   0.00000  Uiso   1.00
H1174  H     0.89916   0.68017   0.75976   0.00000  Uiso   1.00
N1175  N     0.98173   0.84735   0.76212   0.00000  Uiso   1.00
N1176  N     0.68494   0.81932   0.73788   0.00000  Uiso   1.00
N1177  N     0.75918   0.90062   0.63241   0.00000  Uiso   1.00
N1178  N     0.90749   0.76604   0.86759   0.00000  Uiso   1.00
O1179  O     0.79482   0.90476   0.74686   0.00000  Uiso   1.00
O1180  O     0.66865   0.80146   0.69993   0.00000  Uiso   1.00
O1181  O     0.87185   0.76191   0.75314   0.00000  Uiso   1.00
O1182  O     0.89496   0.91420   0.75502   0.00000  Uiso   1.00
O1183  O     0.77171   0.75247   0.74497   0.00000  Uiso   1.00
O1184  O     0.75518   0.82597   0.80854   0.00000  Uiso   1.00
O1185  O     0.91149   0.84070   0.69145   0.00000  Uiso   1.00
O1186  O     0.85532   0.83540   0.81671   0.00000  Uiso   1.00
O1187  O     0.81134   0.83126   0.68329   0.00000  Uiso   1.00
O1188  O     0.99803   0.86521   0.80007   0.00000  Uiso   1.00
loop_
_geom_bond_atom_site_label_1
_geom_bond_atom_site_label_2
_geom_bond_distance
_geom_bond_site_symmetry_2
_ccdc_geom_bond_type
C1     O57     1.299   .     A
C1     C28     1.430   .     S
C1     O60     1.299   .     A
C2     C4      1.477   .     S
C2     O65     1.303   .     A
C2     O63     1.316   .     A
C3     C30     1.477   .     S
C3     C9      1.409   .     A
C3     C7      1.398   .     A
C4     C8      1.398   .     A
C4     C10     1.409   .     A
C5     C14     1.403   .     A
C5     C7      1.398   .     A
C5     H180    1.083   1_455 S
C6     C8      1.398   .     A
C6     C15     1.403   .     A
C6     H115    1.083   .     S
C7     H47     1.074   .     S
C8     H46     1.074   .     S
C9     C11     1.402   .     A
C9     C19     1.449   .     S
C10    C18     1.449   .     S
C10    C13     1.402   .     A
C11    C16     1.420   .     A
C11    C14     1.412   .     A
C12    C29     1.430   .     S
C12    O59     1.299   .     A
C12    O61     1.299   .     A
C13    C17     1.420   .     A
C13    C15     1.412   .     A
C14    C620    1.393   .     S
C15    C621    1.393   1_554 S
C16    C25     1.413   .     A
C16    C611    1.418   .     S
C17    C23     1.413   .     A
C17    C610    1.418   1_554 S
C18    N55     1.156   .     T
C19    N56     1.156   .     T
C20    O66     1.406   .     S
C20    H35     1.108   .     S
C20    C87     1.522   .     S
C20    H102    1.114   .     S
C21    H39     1.110   .     S
C21    H37     1.110   .     S
C21    H38     1.111   .     S
C21    C152    1.522   1_455 S
C22    O58     1.407   .     S
C22    H41     1.108   .     S
C22    C156    1.522   1_455 S
C22    H172    1.114   1_455 S
C23    C26     1.392   .     A
C23    H50     1.080   .     S
C24    H45     1.110   .     S
C24    H42     1.110   .     S
C24    H43     1.111   .     S
C24    C88     1.522   .     S
C25    H51     1.080   .     S
C25    C27     1.392   .     A
C26    H33     1.084   .     S
C26    C608    1.393   1_554 S
C27    H44     1.084   .     S
C27    C609    1.393   .     S
C28    C227    1.333   .     S
C28    H250    1.086   .     S
C29    C424    1.333   1_545 S
C29    H430    1.086   1_545 S
C30    O62     1.316   .     A
C30    O64     1.303   .     A
Cu31   O61     1.949   .     S
Cu31   Cu32    2.720   .     S
Cu31   O57     1.950   .     S
Cu31   O62     1.940   .     S
Cu31   N54     2.044   .     S
Cu31   O65     1.929   .     S
Cu32   O59     1.950   .     S
Cu32   O60     1.949   .     S
Cu32   N53     2.044   .     S
Cu32   O64     1.929   .     S
Cu32   O63     1.940   .     S
H34    C227    1.086   .     S
H36    C152    1.114   1_455 S
H40    C88     1.114   .     S
H48    C71     1.083   .     S
H49    C138    1.083   1_455 S
H52    C424    1.086   1_545 S
N53    O66     1.346   .     S
N53    N120    1.294   .     S
N54    O58     1.346   .     S
N54    N185    1.294   1_455 S
C67    O123    1.299   .     A
C67    C94     1.430   .     S
C67    O126    1.299   .     A
C68    C70     1.477   .     S
C68    O131    1.303   .     A
C68    O129    1.316   .     A
C69    C96     1.477   .     S
C69    C75     1.409   .     A
C69    C73     1.398   .     A
C70    C74     1.398   .     A
C70    C76     1.409   .     A
C71    C80     1.403   .     A
C71    C73     1.398   .     A
C72    C74     1.398   .     A
C72    C81     1.403   .     A
C72    H181    1.083   .     S
C73    H113    1.074   .     S
C74    H112    1.074   .     S
C75    C77     1.402   .     A
C75    C85     1.449   .     S
C76    C84     1.449   .     S
C76    C79     1.402   .     A
C77    C82     1.420   .     A
C77    C80     1.412   .     A
C78    C95     1.430   .     S
C78    O125    1.299   .     A
C78    O127    1.299   .     A
C79    C83     1.420   .     A
C79    C81     1.412   .     A
C80    C686    1.393   .     S
C81    C687    1.393   1_554 S
C82    C91     1.413   .     A
C82    C677    1.418   .     S
C83    C89     1.413   .     A
C83    C676    1.418   1_554 S
C84    N121    1.156   .     T
C85    N122    1.156   .     T
C86    O132    1.406   .     S
C86    H101    1.108   .     S
C86    C153    1.522   .     S
C86    H168    1.114   .     S
C87    H105    1.110   .     S
C87    H103    1.110   .     S
C87    H104    1.111   .     S
C88    O124    1.407   .     S
C88    H107    1.108   .     S
C89    C92     1.392   .     A
C89    H116    1.080   .     S
C90    H111    1.110   .     S
C90    H108    1.110   .     S
C90    H109    1.111   .     S
C90    C154    1.522   .     S
C91    H117    1.080   .     S
C91    C93     1.392   .     A
C92    H99     1.084   .     S
C92    C674    1.393   1_554 S
C93    H110    1.084   .     S
C93    C675    1.393   .     S
C94    C293    1.333   .     S
C94    H316    1.086   .     S
C95    C490    1.333   1_545 S
C95    H496    1.086   1_545 S
C96    O128    1.316   .     A
C96    O130    1.303   .     A
Cu97   O127    1.949   .     S
Cu97   Cu98    2.720   .     S
Cu97   O123    1.950   .     S
Cu97   O128    1.940   .     S
Cu97   N120    2.044   .     S
Cu97   O131    1.929   .     S
Cu98   O125    1.950   .     S
Cu98   O126    1.949   .     S
Cu98   N119    2.044   .     S
Cu98   O130    1.929   .     S
Cu98   O129    1.940   .     S
H100   C293    1.086   .     S
H106   C154    1.114   .     S
H114   C137    1.083   .     S
H118   C490    1.086   1_545 S
N119   O132    1.346   .     S
N119   N186    1.294   .     S
N120   O124    1.346   .     S
C133   O189    1.299   .     A
C133   C160    1.430   .     S
C133   O192    1.299   .     A
C134   C136    1.477   .     S
C134   O197    1.303   .     A
C134   O195    1.316   .     A
C135   C162    1.477   .     S
C135   C141    1.409   .     A
C135   C139    1.398   .     A
C136   C140    1.398   .     A
C136   C142    1.409   .     A
C137   C146    1.403   .     A
C137   C139    1.398   .     A
C138   C140    1.398   .     A
C138   C147    1.403   .     A
C138   H49     1.083   1_655 S
C139   H179    1.074   .     S
C140   H178    1.074   .     S
C141   C143    1.402   .     A
C141   C151    1.449   .     S
C142   C150    1.449   .     S
C142   C145    1.402   .     A
C143   C148    1.420   .     A
C143   C146    1.412   .     A
C144   C161    1.430   .     S
C144   O191    1.299   .     A
C144   O193    1.299   .     A
C145   C149    1.420   .     A
C145   C147    1.412   .     A
C146   C752    1.393   .     S
C147   C753    1.393   1_554 S
C148   C157    1.413   .     A
C148   C743    1.418   .     S
C149   C155    1.413   .     A
C149   C742    1.418   1_554 S
C150   N187    1.156   .     T
C151   N188    1.156   .     T
C152   O198    1.406   .     S
C152   H167    1.108   .     S
C152   C21     1.522   1_655 S
C152   H36     1.114   1_655 S
C153   H171    1.110   .     S
C153   H169    1.110   .     S
C153   H170    1.111   .     S
C154   O190    1.407   .     S
C154   H173    1.108   .     S
C155   C158    1.392   .     A
C155   H182    1.080   .     S
C156   H177    1.110   .     S
C156   H174    1.110   .     S
C156   H175    1.111   .     S
C156   C22     1.522   1_655 S
C157   H183    1.080   .     S
C157   C159    1.392   .     A
C158   H165    1.084   .     S
C158   C740    1.393   1_554 S
C159   H176    1.084   .     S
C159   C741    1.393   .     S
C160   C359    1.333   .     S
C160   H382    1.086   .     S
C161   C556    1.333   1_545 S
C161   H562    1.086   1_545 S
C162   O194    1.316   .     A
C162   O196    1.303   .     A
Cu163  O193    1.949   .     S
Cu163  Cu164   2.720   .     S
Cu163  O189    1.950   .     S
Cu163  O194    1.940   .     S
Cu163  N186    2.044   .     S
Cu163  O197    1.929   .     S
Cu164  O191    1.950   .     S
Cu164  O192    1.949   .     S
Cu164  N185    2.044   .     S
Cu164  O196    1.929   .     S
Cu164  O195    1.940   .     S
H166   C359    1.086   .     S
H172   C22     1.114   1_655 S
H180   C5      1.083   1_655 S
H184   C556    1.086   1_545 S
N185   O198    1.346   .     S
N185   N54     1.294   1_655 S
N186   O190    1.346   .     S
C199   O255    1.299   .     A
C199   C226    1.430   .     S
C199   O258    1.299   .     A
C200   C202    1.477   .     S
C200   O263    1.303   .     A
C200   O261    1.316   .     A
C201   C228    1.477   .     S
C201   C207    1.409   .     A
C201   C205    1.398   .     A
C202   C206    1.398   .     A
C202   C208    1.409   .     A
C203   C212    1.403   .     A
C203   C205    1.398   .     A
C203   H378    1.083   1_455 S
C204   C206    1.398   .     A
C204   C213    1.403   .     A
C204   H313    1.083   .     S
C205   H245    1.074   .     S
C206   H244    1.074   .     S
C207   C209    1.402   .     A
C207   C217    1.449   .     S
C208   C216    1.449   .     S
C208   C211    1.402   .     A
C209   C214    1.420   .     A
C209   C212    1.412   .     A
C210   C227    1.430   .     S
C210   O257    1.299   .     A
C210   O259    1.299   .     A
C211   C215    1.420   .     A
C211   C213    1.412   .     A
C212   C818    1.393   .     S
C213   C819    1.393   1_554 S
C214   C223    1.413   .     A
C214   C809    1.418   .     S
C215   C221    1.413   .     A
C215   C808    1.418   1_554 S
C216   N253    1.156   .     T
C217   N254    1.156   .     T
C218   O264    1.406   .     S
C218   H233    1.108   .     S
C218   C285    1.522   .     S
C218   H300    1.114   .     S
C219   H237    1.110   .     S
C219   H235    1.110   .     S
C219   H236    1.111   .     S
C219   C350    1.522   1_455 S
C220   O256    1.407   .     S
C220   H239    1.108   .     S
C220   C354    1.522   1_455 S
C220   H370    1.114   1_455 S
C221   C224    1.392   .     A
C221   H248    1.080   .     S
C222   H243    1.110   .     S
C222   H240    1.110   .     S
C222   H241    1.111   .     S
C222   C286    1.522   .     S
C223   H249    1.080   .     S
C223   C225    1.392   .     A
C224   H231    1.084   .     S
C224   C806    1.393   1_554 S
C225   H242    1.084   .     S
C225   C807    1.393   .     S
C226   C425    1.333   .     S
C226   H448    1.086   .     S
C228   O260    1.316   .     A
C228   O262    1.303   .     A
Cu229  O259    1.949   .     S
Cu229  Cu230   2.720   .     S
Cu229  O255    1.950   .     S
Cu229  O260    1.940   .     S
Cu229  N252    2.044   .     S
Cu229  O263    1.929   .     S
Cu230  O257    1.950   .     S
Cu230  O258    1.949   .     S
Cu230  N251    2.044   .     S
Cu230  O262    1.929   .     S
Cu230  O261    1.940   .     S
H232   C425    1.086   .     S
H234   C350    1.114   1_455 S
H238   C286    1.114   .     S
H246   C269    1.083   .     S
H247   C336    1.083   1_455 S
N251   O264    1.346   .     S
N251   N318    1.294   .     S
N252   O256    1.346   .     S
N252   N383    1.294   1_455 S
C265   O321    1.299   .     A
C265   C292    1.430   .     S
C265   O324    1.299   .     A
C266   C268    1.477   .     S
C266   O329    1.303   .     A
C266   O327    1.316   .     A
C267   C294    1.477   .     S
C267   C273    1.409   .     A
C267   C271    1.398   .     A
C268   C272    1.398   .     A
C268   C274    1.409   .     A
C269   C278    1.403   .     A
C269   C271    1.398   .     A
C270   C272    1.398   .     A
C270   C279    1.403   .     A
C270   H379    1.083   .     S
C271   H311    1.074   .     S
C272   H310    1.074   .     S
C273   C275    1.402   .     A
C273   C283    1.449   .     S
C274   C282    1.449   .     S
C274   C277    1.402   .     A
C275   C280    1.420   .     A
C275   C278    1.412   .     A
C276   C293    1.430   .     S
C276   O323    1.299   .     A
C276   O325    1.299   .     A
C277   C281    1.420   .     A
C277   C279    1.412   .     A
C278   C884    1.393   .     S
C279   C885    1.393   1_554 S
C280   C289    1.413   .     A
C280   C875    1.418   .     S
C281   C287    1.413   .     A
C281   C874    1.418   1_554 S
C282   N319    1.156   .     T
C283   N320    1.156   .     T
C284   O330    1.406   .     S
C284   H299    1.108   .     S
C284   C351    1.522   .     S
C284   H366    1.114   .     S
C285   H303    1.110   .     S
C285   H301    1.110   .     S
C285   H302    1.111   .     S
C286   O322    1.407   .     S
C286   H305    1.108   .     S
C287   C290    1.392   .     A
C287   H314    1.080   .     S
C288   H309    1.110   .     S
C288   H306    1.110   .     S
C288   H307    1.111   .     S
C288   C352    1.522   .     S
C289   H315    1.080   .     S
C289   C291    1.392   .     A
C290   H297    1.084   .     S
C290   C872    1.393   1_554 S
C291   H308    1.084   .     S
C291   C873    1.393   .     S
C292   C491    1.333   .     S
C292   H514    1.086   .     S
C294   O326    1.316   .     A
C294   O328    1.303   .     A
Cu295  O325    1.949   .     S
Cu295  Cu296   2.720   .     S
Cu295  O321    1.950   .     S
Cu295  O326    1.940   .     S
Cu295  N318    2.044   .     S
Cu295  O329    1.929   .     S
Cu296  O323    1.950   .     S
Cu296  O324    1.949   .     S
Cu296  N317    2.044   .     S
Cu296  O328    1.929   .     S
Cu296  O327    1.940   .     S
H298   C491    1.086   .     S
H304   C352    1.114   .     S
H312   C335    1.083   .     S
N317   O330    1.346   .     S
N317   N384    1.294   .     S
N318   O322    1.346   .     S
C331   O387    1.299   .     A
C331   C358    1.430   .     S
C331   O390    1.299   .     A
C332   C334    1.477   .     S
C332   O395    1.303   .     A
C332   O393    1.316   .     A
C333   C360    1.477   .     S
C333   C339    1.409   .     A
C333   C337    1.398   .     A
C334   C338    1.398   .     A
C334   C340    1.409   .     A
C335   C344    1.403   .     A
C335   C337    1.398   .     A
C336   C338    1.398   .     A
C336   C345    1.403   .     A
C336   H247    1.083   1_655 S
C337   H377    1.074   .     S
C338   H376    1.074   .     S
C339   C341    1.402   .     A
C339   C349    1.449   .     S
C340   C348    1.449   .     S
C340   C343    1.402   .     A
C341   C346    1.420   .     A
C341   C344    1.412   .     A
C342   C359    1.430   .     S
C342   O389    1.299   .     A
C342   O391    1.299   .     A
C343   C347    1.420   .     A
C343   C345    1.412   .     A
C344   C950    1.393   .     S
C345   C951    1.393   1_554 S
C346   C355    1.413   .     A
C346   C941    1.418   .     S
C347   C353    1.413   .     A
C347   C940    1.418   1_554 S
C348   N385    1.156   .     T
C349   N386    1.156   .     T
C350   O396    1.406   .     S
C350   H365    1.108   .     S
C350   C219    1.522   1_655 S
C350   H234    1.114   1_655 S
C351   H369    1.110   .     S
C351   H367    1.110   .     S
C351   H368    1.111   .     S
C352   O388    1.407   .     S
C352   H371    1.108   .     S
C353   C356    1.392   .     A
C353   H380    1.080   .     S
C354   H375    1.110   .     S
C354   H372    1.110   .     S
C354   H373    1.111   .     S
C354   C220    1.522   1_655 S
C355   H381    1.080   .     S
C355   C357    1.392   .     A
C356   H363    1.084   .     S
C356   C938    1.393   1_554 S
C357   H374    1.084   .     S
C357   C939    1.393   .     S
C358   C557    1.333   .     S
C358   H580    1.086   .     S
C360   O392    1.316   .     A
C360   O394    1.303   .     A
Cu361  O391    1.949   .     S
Cu361  Cu362   2.720   .     S
Cu361  O387    1.950   .     S
Cu361  O392    1.940   .     S
Cu361  N384    2.044   .     S
Cu361  O395    1.929   .     S
Cu362  O389    1.950   .     S
Cu362  O390    1.949   .     S
Cu362  N383    2.044   .     S
Cu362  O394    1.929   .     S
Cu362  O393    1.940   .     S
H364   C557    1.086   .     S
H370   C220    1.114   1_655 S
H378   C203    1.083   1_655 S
N383   O396    1.346   .     S
N383   N252    1.294   1_655 S
N384   O388    1.346   .     S
C397   O453    1.299   .     A
C397   C424    1.430   .     S
C397   O456    1.299   .     A
C398   C400    1.477   .     S
C398   O461    1.303   .     A
C398   O459    1.316   .     A
C399   C426    1.477   .     S
C399   C405    1.409   .     A
C399   C403    1.398   .     A
C400   C404    1.398   .     A
C400   C406    1.409   .     A
C401   C410    1.403   .     A
C401   C403    1.398   .     A
C401   H576    1.083   1_455 S
C402   C404    1.398   .     A
C402   C411    1.403   .     A
C402   H511    1.083   .     S
C403   H443    1.074   .     S
C404   H442    1.074   .     S
C405   C407    1.402   .     A
C405   C415    1.449   .     S
C406   C414    1.449   .     S
C406   C409    1.402   .     A
C407   C412    1.420   .     A
C407   C410    1.412   .     A
C408   C425    1.430   .     S
C408   O455    1.299   .     A
C408   O457    1.299   .     A
C409   C413    1.420   .     A
C409   C411    1.412   .     A
C410   C1016   1.393   .     S
C411   C1017   1.393   1_554 S
C412   C421    1.413   .     A
C412   C1007   1.418   .     S
C413   C419    1.413   .     A
C413   C1006   1.418   1_554 S
C414   N451    1.156   .     T
C415   N452    1.156   .     T
C416   O462    1.406   .     S
C416   H431    1.108   .     S
C416   C483    1.522   .     S
C416   H498    1.114   .     S
C417   H435    1.110   .     S
C417   H433    1.110   .     S
C417   H434    1.111   .     S
C417   C548    1.522   1_455 S
C418   O454    1.407   .     S
C418   H437    1.108   .     S
C418   C552    1.522   1_455 S
C418   H568    1.114   1_455 S
C419   C422    1.392   .     A
C419   H446    1.080   .     S
C420   H441    1.110   .     S
C420   H438    1.110   .     S
C420   H439    1.111   .     S
C420   C484    1.522   .     S
C421   H447    1.080   .     S
C421   C423    1.392   .     A
C422   H429    1.084   .     S
C422   C1004   1.393   1_554 S
C423   H440    1.084   .     S
C423   C1005   1.393   .     S
C424   C29     1.333   1_565 S
C424   H52     1.086   1_565 S
C426   O458    1.316   .     A
C426   O460    1.303   .     A
Cu427  O457    1.949   .     S
Cu427  Cu428   2.720   .     S
Cu427  O453    1.950   .     S
Cu427  O458    1.940   .     S
Cu427  N450    2.044   .     S
Cu427  O461    1.929   .     S
Cu428  O455    1.950   .     S
Cu428  O456    1.949   .     S
Cu428  N449    2.044   .     S
Cu428  O460    1.929   .     S
Cu428  O459    1.940   .     S
H430   C29     1.086   1_565 S
H432   C548    1.114   1_455 S
H436   C484    1.114   .     S
H444   C467    1.083   .     S
H445   C534    1.083   1_455 S
N449   O462    1.346   .     S
N449   N516    1.294   .     S
N450   O454    1.346   .     S
N450   N581    1.294   1_455 S
C463   O519    1.299   .     A
C463   C490    1.430   .     S
C463   O522    1.299   .     A
C464   C466    1.477   .     S
C464   O527    1.303   .     A
C464   O525    1.316   .     A
C465   C492    1.477   .     S
C465   C471    1.409   .     A
C465   C469    1.398   .     A
C466   C470    1.398   .     A
C466   C472    1.409   .     A
C467   C476    1.403   .     A
C467   C469    1.398   .     A
C468   C470    1.398   .     A
C468   C477    1.403   .     A
C468   H577    1.083   .     S
C469   H509    1.074   .     S
C470   H508    1.074   .     S
C471   C473    1.402   .     A
C471   C481    1.449   .     S
C472   C480    1.449   .     S
C472   C475    1.402   .     A
C473   C478    1.420   .     A
C473   C476    1.412   .     A
C474   C491    1.430   .     S
C474   O521    1.299   .     A
C474   O523    1.299   .     A
C475   C479    1.420   .     A
C475   C477    1.412   .     A
C476   C1082   1.393   .     S
C477   C1083   1.393   1_554 S
C478   C487    1.413   .     A
C478   C1073   1.418   .     S
C479   C485    1.413   .     A
C479   C1072   1.418   1_554 S
C480   N517    1.156   .     T
C481   N518    1.156   .     T
C482   O528    1.406   .     S
C482   H497    1.108   .     S
C482   C549    1.522   .     S
C482   H564    1.114   .     S
C483   H501    1.110   .     S
C483   H499    1.110   .     S
C483   H500    1.111   .     S
C484   O520    1.407   .     S
C484   H503    1.108   .     S
C485   C488    1.392   .     A
C485   H512    1.080   .     S
C486   H507    1.110   .     S
C486   H504    1.110   .     S
C486   H505    1.111   .     S
C486   C550    1.522   .     S
C487   H513    1.080   .     S
C487   C489    1.392   .     A
C488   H495    1.084   .     S
C488   C1070   1.393   1_554 S
C489   H506    1.084   .     S
C489   C1071   1.393   .     S
C490   C95     1.333   1_565 S
C490   H118    1.086   1_565 S
C492   O524    1.316   .     A
C492   O526    1.303   .     A
Cu493  O523    1.949   .     S
Cu493  Cu494   2.720   .     S
Cu493  O519    1.950   .     S
Cu493  O524    1.940   .     S
Cu493  N516    2.044   .     S
Cu493  O527    1.929   .     S
Cu494  O521    1.950   .     S
Cu494  O522    1.949   .     S
Cu494  N515    2.044   .     S
Cu494  O526    1.929   .     S
Cu494  O525    1.940   .     S
H496   C95     1.086   1_565 S
H502   C550    1.114   .     S
H510   C533    1.083   .     S
N515   O528    1.346   .     S
N515   N582    1.294   .     S
N516   O520    1.346   .     S
C529   O585    1.299   .     A
C529   C556    1.430   .     S
C529   O588    1.299   .     A
C530   C532    1.477   .     S
C530   O593    1.303   .     A
C530   O591    1.316   .     A
C531   C558    1.477   .     S
C531   C537    1.409   .     A
C531   C535    1.398   .     A
C532   C536    1.398   .     A
C532   C538    1.409   .     A
C533   C542    1.403   .     A
C533   C535    1.398   .     A
C534   C536    1.398   .     A
C534   C543    1.403   .     A
C534   H445    1.083   1_655 S
C535   H575    1.074   .     S
C536   H574    1.074   .     S
C537   C539    1.402   .     A
C537   C547    1.449   .     S
C538   C546    1.449   .     S
C538   C541    1.402   .     A
C539   C544    1.420   .     A
C539   C542    1.412   .     A
C540   C557    1.430   .     S
C540   O587    1.299   .     A
C540   O589    1.299   .     A
C541   C545    1.420   .     A
C541   C543    1.412   .     A
C542   C1148   1.393   .     S
C543   C1149   1.393   1_554 S
C544   C553    1.413   .     A
C544   C1139   1.418   .     S
C545   C551    1.413   .     A
C545   C1138   1.418   1_554 S
C546   N583    1.156   .     T
C547   N584    1.156   .     T
C548   O594    1.406   .     S
C548   H563    1.108   .     S
C548   C417    1.522   1_655 S
C548   H432    1.114   1_655 S
C549   H567    1.110   .     S
C549   H565    1.110   .     S
C549   H566    1.111   .     S
C550   O586    1.407   .     S
C550   H569    1.108   .     S
C551   C554    1.392   .     A
C551   H578    1.080   .     S
C552   H573    1.110   .     S
C552   H570    1.110   .     S
C552   H571    1.111   .     S
C552   C418    1.522   1_655 S
C553   H579    1.080   .     S
C553   C555    1.392   .     A
C554   H561    1.084   .     S
C554   C1136   1.393   1_554 S
C555   H572    1.084   .     S
C555   C1137   1.393   .     S
C556   C161    1.333   1_565 S
C556   H184    1.086   1_565 S
C558   O590    1.316   .     A
C558   O592    1.303   .     A
Cu559  O589    1.949   .     S
Cu559  Cu560   2.720   .     S
Cu559  O585    1.950   .     S
Cu559  O590    1.940   .     S
Cu559  N582    2.044   .     S
Cu559  O593    1.929   .     S
Cu560  O587    1.950   .     S
Cu560  O588    1.949   .     S
Cu560  N581    2.044   .     S
Cu560  O592    1.929   .     S
Cu560  O591    1.940   .     S
H562   C161    1.086   1_565 S
H568   C418    1.114   1_655 S
H576   C401    1.083   1_655 S
N581   O594    1.346   .     S
N581   N450    1.294   1_655 S
N582   O586    1.346   .     S
C595   O651    1.299   .     A
C595   C622    1.430   .     S
C595   O654    1.299   .     A
C596   C598    1.477   .     S
C596   O659    1.303   .     A
C596   O657    1.316   .     A
C597   C624    1.477   .     S
C597   C603    1.409   .     A
C597   C601    1.398   .     A
C598   C602    1.398   .     A
C598   C604    1.409   .     A
C599   C608    1.403   .     A
C599   C601    1.398   .     A
C599   H774    1.083   1_455 S
C600   C602    1.398   .     A
C600   C609    1.403   .     A
C600   H709    1.083   .     S
C601   H641    1.074   .     S
C602   H640    1.074   .     S
C603   C605    1.402   .     A
C603   C613    1.449   .     S
C604   C612    1.449   .     S
C604   C607    1.402   .     A
C605   C610    1.420   .     A
C605   C608    1.412   .     A
C606   C623    1.430   .     S
C606   O653    1.299   .     A
C606   O655    1.299   .     A
C607   C611    1.420   .     A
C607   C609    1.412   .     A
C608   C26     1.393   1_556 S
C610   C619    1.413   .     A
C610   C17     1.418   1_556 S
C611   C617    1.413   .     A
C612   N649    1.156   .     T
C613   N650    1.156   .     T
C614   O660    1.406   .     S
C614   H629    1.108   .     S
C614   C681    1.522   .     S
C614   H696    1.114   .     S
C615   H633    1.110   .     S
C615   H631    1.110   .     S
C615   H632    1.111   .     S
C615   C746    1.522   1_455 S
C616   O652    1.407   .     S
C616   H635    1.108   .     S
C616   C750    1.522   1_455 S
C616   H766    1.114   1_455 S
C617   C620    1.392   .     A
C617   H644    1.080   .     S
C618   H639    1.110   .     S
C618   H636    1.110   .     S
C618   H637    1.111   .     S
C618   C682    1.522   .     S
C619   H645    1.080   .     S
C619   C621    1.392   .     A
C620   H627    1.084   .     S
C621   H638    1.084   .     S
C621   C15     1.393   1_556 S
C622   C821    1.333   .     S
C622   H844    1.086   .     S
C623   C1018   1.333   1_545 S
C623   H1024   1.086   1_545 S
C624   O656    1.316   .     A
C624   O658    1.303   .     A
Cu625  O655    1.949   .     S
Cu625  Cu626   2.720   .     S
Cu625  O651    1.950   .     S
Cu625  O656    1.940   .     S
Cu625  N648    2.044   .     S
Cu625  O659    1.929   .     S
Cu626  O653    1.950   .     S
Cu626  O654    1.949   .     S
Cu626  N647    2.044   .     S
Cu626  O658    1.929   .     S
Cu626  O657    1.940   .     S
H628   C821    1.086   .     S
H630   C746    1.114   1_455 S
H634   C682    1.114   .     S
H642   C665    1.083   .     S
H643   C732    1.083   1_455 S
H646   C1018   1.086   1_545 S
N647   O660    1.346   .     S
N647   N714    1.294   .     S
N648   O652    1.346   .     S
N648   N779    1.294   1_455 S
C661   O717    1.299   .     A
C661   C688    1.430   .     S
C661   O720    1.299   .     A
C662   C664    1.477   .     S
C662   O725    1.303   .     A
C662   O723    1.316   .     A
C663   C690    1.477   .     S
C663   C669    1.409   .     A
C663   C667    1.398   .     A
C664   C668    1.398   .     A
C664   C670    1.409   .     A
C665   C674    1.403   .     A
C665   C667    1.398   .     A
C666   C668    1.398   .     A
C666   C675    1.403   .     A
C666   H775    1.083   .     S
C667   H707    1.074   .     S
C668   H706    1.074   .     S
C669   C671    1.402   .     A
C669   C679    1.449   .     S
C670   C678    1.449   .     S
C670   C673    1.402   .     A
C671   C676    1.420   .     A
C671   C674    1.412   .     A
C672   C689    1.430   .     S
C672   O719    1.299   .     A
C672   O721    1.299   .     A
C673   C677    1.420   .     A
C673   C675    1.412   .     A
C674   C92     1.393   1_556 S
C676   C685    1.413   .     A
C676   C83     1.418   1_556 S
C677   C683    1.413   .     A
C678   N715    1.156   .     T
C679   N716    1.156   .     T
C680   O726    1.406   .     S
C680   H695    1.108   .     S
C680   C747    1.522   .     S
C680   H762    1.114   .     S
C681   H699    1.110   .     S
C681   H697    1.110   .     S
C681   H698    1.111   .     S
C682   O718    1.407   .     S
C682   H701    1.108   .     S
C683   C686    1.392   .     A
C683   H710    1.080   .     S
C684   H705    1.110   .     S
C684   H702    1.110   .     S
C684   H703    1.111   .     S
C684   C748    1.522   .     S
C685   H711    1.080   .     S
C685   C687    1.392   .     A
C686   H693    1.084   .     S
C687   H704    1.084   .     S
C687   C81     1.393   1_556 S
C688   C887    1.333   .     S
C688   H910    1.086   .     S
C689   C1084   1.333   1_545 S
C689   H1090   1.086   1_545 S
C690   O722    1.316   .     A
C690   O724    1.303   .     A
Cu691  O721    1.949   .     S
Cu691  Cu692   2.720   .     S
Cu691  O717    1.950   .     S
Cu691  O722    1.940   .     S
Cu691  N714    2.044   .     S
Cu691  O725    1.929   .     S
Cu692  O719    1.950   .     S
Cu692  O720    1.949   .     S
Cu692  N713    2.044   .     S
Cu692  O724    1.929   .     S
Cu692  O723    1.940   .     S
H694   C887    1.086   .     S
H700   C748    1.114   .     S
H708   C731    1.083   .     S
H712   C1084   1.086   1_545 S
N713   O726    1.346   .     S
N713   N780    1.294   .     S
N714   O718    1.346   .     S
C727   O783    1.299   .     A
C727   C754    1.430   .     S
C727   O786    1.299   .     A
C728   C730    1.477   .     S
C728   O791    1.303   .     A
C728   O789    1.316   .     A
C729   C756    1.477   .     S
C729   C735    1.409   .     A
C729   C733    1.398   .     A
C730   C734    1.398   .     A
C730   C736    1.409   .     A
C731   C740    1.403   .     A
C731   C733    1.398   .     A
C732   C734    1.398   .     A
C732   C741    1.403   .     A
C732   H643    1.083   1_655 S
C733   H773    1.074   .     S
C734   H772    1.074   .     S
C735   C737    1.402   .     A
C735   C745    1.449   .     S
C736   C744    1.449   .     S
C736   C739    1.402   .     A
C737   C742    1.420   .     A
C737   C740    1.412   .     A
C738   C755    1.430   .     S
C738   O785    1.299   .     A
C738   O787    1.299   .     A
C739   C743    1.420   .     A
C739   C741    1.412   .     A
C740   C158    1.393   1_556 S
C742   C751    1.413   .     A
C742   C149    1.418   1_556 S
C743   C749    1.413   .     A
C744   N781    1.156   .     T
C745   N782    1.156   .     T
C746   O792    1.406   .     S
C746   H761    1.108   .     S
C746   C615    1.522   1_655 S
C746   H630    1.114   1_655 S
C747   H765    1.110   .     S
C747   H763    1.110   .     S
C747   H764    1.111   .     S
C748   O784    1.407   .     S
C748   H767    1.108   .     S
C749   C752    1.392   .     A
C749   H776    1.080   .     S
C750   H771    1.110   .     S
C750   H768    1.110   .     S
C750   H769    1.111   .     S
C750   C616    1.522   1_655 S
C751   H777    1.080   .     S
C751   C753    1.392   .     A
C752   H759    1.084   .     S
C753   H770    1.084   .     S
C753   C147    1.393   1_556 S
C754   C953    1.333   .     S
C754   H976    1.086   .     S
C755   C1150   1.333   1_545 S
C755   H1156   1.086   1_545 S
C756   O788    1.316   .     A
C756   O790    1.303   .     A
Cu757  O787    1.949   .     S
Cu757  Cu758   2.720   .     S
Cu757  O783    1.950   .     S
Cu757  O788    1.940   .     S
Cu757  N780    2.044   .     S
Cu757  O791    1.929   .     S
Cu758  O785    1.950   .     S
Cu758  O786    1.949   .     S
Cu758  N779    2.044   .     S
Cu758  O790    1.929   .     S
Cu758  O789    1.940   .     S
H760   C953    1.086   .     S
H766   C616    1.114   1_655 S
H774   C599    1.083   1_655 S
H778   C1150   1.086   1_545 S
N779   O792    1.346   .     S
N779   N648    1.294   1_655 S
N780   O784    1.346   .     S
C793   O849    1.299   .     A
C793   C820    1.430   .     S
C793   O852    1.299   .     A
C794   C796    1.477   .     S
C794   O857    1.303   .     A
C794   O855    1.316   .     A
C795   C822    1.477   .     S
C795   C801    1.409   .     A
C795   C799    1.398   .     A
C796   C800    1.398   .     A
C796   C802    1.409   .     A
C797   C806    1.403   .     A
C797   C799    1.398   .     A
C797   H972    1.083   1_455 S
C798   C800    1.398   .     A
C798   C807    1.403   .     A
C798   H907    1.083   .     S
C799   H839    1.074   .     S
C800   H838    1.074   .     S
C801   C803    1.402   .     A
C801   C811    1.449   .     S
C802   C810    1.449   .     S
C802   C805    1.402   .     A
C803   C808    1.420   .     A
C803   C806    1.412   .     A
C804   C821    1.430   .     S
C804   O851    1.299   .     A
C804   O853    1.299   .     A
C805   C809    1.420   .     A
C805   C807    1.412   .     A
C806   C224    1.393   1_556 S
C808   C817    1.413   .     A
C808   C215    1.418   1_556 S
C809   C815    1.413   .     A
C810   N847    1.156   .     T
C811   N848    1.156   .     T
C812   O858    1.406   .     S
C812   H827    1.108   .     S
C812   C879    1.522   .     S
C812   H894    1.114   .     S
C813   H831    1.110   .     S
C813   H829    1.110   .     S
C813   H830    1.111   .     S
C813   C944    1.522   1_455 S
C814   O850    1.407   .     S
C814   H833    1.108   .     S
C814   C948    1.522   1_455 S
C814   H964    1.114   1_455 S
C815   C818    1.392   .     A
C815   H842    1.080   .     S
C816   H837    1.110   .     S
C816   H834    1.110   .     S
C816   H835    1.111   .     S
C816   C880    1.522   .     S
C817   H843    1.080   .     S
C817   C819    1.392   .     A
C818   H825    1.084   .     S
C819   H836    1.084   .     S
C819   C213    1.393   1_556 S
C820   C1019   1.333   .     S
C820   H1042   1.086   .     S
C822   O854    1.316   .     A
C822   O856    1.303   .     A
Cu823  O853    1.949   .     S
Cu823  Cu824   2.720   .     S
Cu823  O849    1.950   .     S
Cu823  O854    1.940   .     S
Cu823  N846    2.044   .     S
Cu823  O857    1.929   .     S
Cu824  O851    1.950   .     S
Cu824  O852    1.949   .     S
Cu824  N845    2.044   .     S
Cu824  O856    1.929   .     S
Cu824  O855    1.940   .     S
H826   C1019   1.086   .     S
H828   C944    1.114   1_455 S
H832   C880    1.114   .     S
H840   C863    1.083   .     S
H841   C930    1.083   1_455 S
N845   O858    1.346   .     S
N845   N912    1.294   .     S
N846   O850    1.346   .     S
N846   N977    1.294   1_455 S
C859   O915    1.299   .     A
C859   C886    1.430   .     S
C859   O918    1.299   .     A
C860   C862    1.477   .     S
C860   O923    1.303   .     A
C860   O921    1.316   .     A
C861   C888    1.477   .     S
C861   C867    1.409   .     A
C861   C865    1.398   .     A
C862   C866    1.398   .     A
C862   C868    1.409   .     A
C863   C872    1.403   .     A
C863   C865    1.398   .     A
C864   C866    1.398   .     A
C864   C873    1.403   .     A
C864   H973    1.083   .     S
C865   H905    1.074   .     S
C866   H904    1.074   .     S
C867   C869    1.402   .     A
C867   C877    1.449   .     S
C868   C876    1.449   .     S
C868   C871    1.402   .     A
C869   C874    1.420   .     A
C869   C872    1.412   .     A
C870   C887    1.430   .     S
C870   O917    1.299   .     A
C870   O919    1.299   .     A
C871   C875    1.420   .     A
C871   C873    1.412   .     A
C872   C290    1.393   1_556 S
C874   C883    1.413   .     A
C874   C281    1.418   1_556 S
C875   C881    1.413   .     A
C876   N913    1.156   .     T
C877   N914    1.156   .     T
C878   O924    1.406   .     S
C878   H893    1.108   .     S
C878   C945    1.522   .     S
C878   H960    1.114   .     S
C879   H897    1.110   .     S
C879   H895    1.110   .     S
C879   H896    1.111   .     S
C880   O916    1.407   .     S
C880   H899    1.108   .     S
C881   C884    1.392   .     A
C881   H908    1.080   .     S
C882   H903    1.110   .     S
C882   H900    1.110   .     S
C882   H901    1.111   .     S
C882   C946    1.522   .     S
C883   H909    1.080   .     S
C883   C885    1.392   .     A
C884   H891    1.084   .     S
C885   H902    1.084   .     S
C885   C279    1.393   1_556 S
C886   C1085   1.333   .     S
C886   H1108   1.086   .     S
C888   O920    1.316   .     A
C888   O922    1.303   .     A
Cu889  O919    1.949   .     S
Cu889  Cu890   2.720   .     S
Cu889  O915    1.950   .     S
Cu889  O920    1.940   .     S
Cu889  N912    2.044   .     S
Cu889  O923    1.929   .     S
Cu890  O917    1.950   .     S
Cu890  O918    1.949   .     S
Cu890  N911    2.044   .     S
Cu890  O922    1.929   .     S
Cu890  O921    1.940   .     S
H892   C1085   1.086   .     S
H898   C946    1.114   .     S
H906   C929    1.083   .     S
N911   O924    1.346   .     S
N911   N978    1.294   .     S
N912   O916    1.346   .     S
C925   O981    1.299   .     A
C925   C952    1.430   .     S
C925   O984    1.299   .     A
C926   C928    1.477   .     S
C926   O989    1.303   .     A
C926   O987    1.316   .     A
C927   C954    1.477   .     S
C927   C933    1.409   .     A
C927   C931    1.398   .     A
C928   C932    1.398   .     A
C928   C934    1.409   .     A
C929   C938    1.403   .     A
C929   C931    1.398   .     A
C930   C932    1.398   .     A
C930   C939    1.403   .     A
C930   H841    1.083   1_655 S
C931   H971    1.074   .     S
C932   H970    1.074   .     S
C933   C935    1.402   .     A
C933   C943    1.449   .     S
C934   C942    1.449   .     S
C934   C937    1.402   .     A
C935   C940    1.420   .     A
C935   C938    1.412   .     A
C936   C953    1.430   .     S
C936   O983    1.299   .     A
C936   O985    1.299   .     A
C937   C941    1.420   .     A
C937   C939    1.412   .     A
C938   C356    1.393   1_556 S
C940   C949    1.413   .     A
C940   C347    1.418   1_556 S
C941   C947    1.413   .     A
C942   N979    1.156   .     T
C943   N980    1.156   .     T
C944   O990    1.406   .     S
C944   H959    1.108   .     S
C944   C813    1.522   1_655 S
C944   H828    1.114   1_655 S
C945   H963    1.110   .     S
C945   H961    1.110   .     S
C945   H962    1.111   .     S
C946   O982    1.407   .     S
C946   H965    1.108   .     S
C947   C950    1.392   .     A
C947   H974    1.080   .     S
C948   H969    1.110   .     S
C948   H966    1.110   .     S
C948   H967    1.111   .     S
C948   C814    1.522   1_655 S
C949   H975    1.080   .     S
C949   C951    1.392   .     A
C950   H957    1.084   .     S
C951   H968    1.084   .     S
C951   C345    1.393   1_556 S
C952   C1151   1.333   .     S
C952   H1174   1.086   .     S
C954   O986    1.316   .     A
C954   O988    1.303   .     A
Cu955  O985    1.949   .     S
Cu955  Cu956   2.720   .     S
Cu955  O981    1.950   .     S
Cu955  O986    1.940   .     S
Cu955  N978    2.044   .     S
Cu955  O989    1.929   .     S
Cu956  O983    1.950   .     S
Cu956  O984    1.949   .     S
Cu956  N977    2.044   .     S
Cu956  O988    1.929   .     S
Cu956  O987    1.940   .     S
H958   C1151   1.086   .     S
H964   C814    1.114   1_655 S
H972   C797    1.083   1_655 S
N977   O990    1.346   .     S
N977   N846    1.294   1_655 S
N978   O982    1.346   .     S
C991   O1047   1.299   .     A
C991   C1018   1.430   .     S
C991   O1050   1.299   .     A
C992   C994    1.477   .     S
C992   O1055   1.303   .     A
C992   O1053   1.316   .     A
C993   C1020   1.477   .     S
C993   C999    1.409   .     A
C993   C997    1.398   .     A
C994   C998    1.398   .     A
C994   C1000   1.409   .     A
C995   C1004   1.403   .     A
C995   C997    1.398   .     A
C995   H1170   1.083   1_455 S
C996   C998    1.398   .     A
C996   C1005   1.403   .     A
C996   H1105   1.083   .     S
C997   H1037   1.074   .     S
C998   H1036   1.074   .     S
C999   C1001   1.402   .     A
C999   C1009   1.449   .     S
C1000  C1008   1.449   .     S
C1000  C1003   1.402   .     A
C1001  C1006   1.420   .     A
C1001  C1004   1.412   .     A
C1002  C1019   1.430   .     S
C1002  O1049   1.299   .     A
C1002  O1051   1.299   .     A
C1003  C1007   1.420   .     A
C1003  C1005   1.412   .     A
C1004  C422    1.393   1_556 S
C1006  C1015   1.413   .     A
C1006  C413    1.418   1_556 S
C1007  C1013   1.413   .     A
C1008  N1045   1.156   .     T
C1009  N1046   1.156   .     T
C1010  O1056   1.406   .     S
C1010  H1025   1.108   .     S
C1010  C1077   1.522   .     S
C1010  H1092   1.114   .     S
C1011  H1029   1.110   .     S
C1011  H1027   1.110   .     S
C1011  H1028   1.111   .     S
C1011  C1142   1.522   1_455 S
C1012  O1048   1.407   .     S
C1012  H1031   1.108   .     S
C1012  C1146   1.522   1_455 S
C1012  H1162   1.114   1_455 S
C1013  C1016   1.392   .     A
C1013  H1040   1.080   .     S
C1014  H1035   1.110   .     S
C1014  H1032   1.110   .     S
C1014  H1033   1.111   .     S
C1014  C1078   1.522   .     S
C1015  H1041   1.080   .     S
C1015  C1017   1.392   .     A
C1016  H1023   1.084   .     S
C1017  H1034   1.084   .     S
C1017  C411    1.393   1_556 S
C1018  C623    1.333   1_565 S
C1018  H646    1.086   1_565 S
C1020  O1052   1.316   .     A
C1020  O1054   1.303   .     A
Cu1021 O1051   1.949   .     S
Cu1021 Cu1022  2.720   .     S
Cu1021 O1047   1.950   .     S
Cu1021 O1052   1.940   .     S
Cu1021 N1044   2.044   .     S
Cu1021 O1055   1.929   .     S
Cu1022 O1049   1.950   .     S
Cu1022 O1050   1.949   .     S
Cu1022 N1043   2.044   .     S
Cu1022 O1054   1.929   .     S
Cu1022 O1053   1.940   .     S
H1024  C623    1.086   1_565 S
H1026  C1142   1.114   1_455 S
H1030  C1078   1.114   .     S
H1038  C1061   1.083   .     S
H1039  C1128   1.083   1_455 S
N1043  O1056   1.346   .     S
N1043  N1110   1.294   .     S
N1044  O1048   1.346   .     S
N1044  N1175   1.294   1_455 S
C1057  O1113   1.299   .     A
C1057  C1084   1.430   .     S
C1057  O1116   1.299   .     A
C1058  C1060   1.477   .     S
C1058  O1121   1.303   .     A
C1058  O1119   1.316   .     A
C1059  C1086   1.477   .     S
C1059  C1065   1.409   .     A
C1059  C1063   1.398   .     A
C1060  C1064   1.398   .     A
C1060  C1066   1.409   .     A
C1061  C1070   1.403   .     A
C1061  C1063   1.398   .     A
C1062  C1064   1.398   .     A
C1062  C1071   1.403   .     A
C1062  H1171   1.083   .     S
C1063  H1103   1.074   .     S
C1064  H1102   1.074   .     S
C1065  C1067   1.402   .     A
C1065  C1075   1.449   .     S
C1066  C1074   1.449   .     S
C1066  C1069   1.402   .     A
C1067  C1072   1.420   .     A
C1067  C1070   1.412   .     A
C1068  C1085   1.430   .     S
C1068  O1115   1.299   .     A
C1068  O1117   1.299   .     A
C1069  C1073   1.420   .     A
C1069  C1071   1.412   .     A
C1070  C488    1.393   1_556 S
C1072  C1081   1.413   .     A
C1072  C479    1.418   1_556 S
C1073  C1079   1.413   .     A
C1074  N1111   1.156   .     T
C1075  N1112   1.156   .     T
C1076  O1122   1.406   .     S
C1076  H1091   1.108   .     S
C1076  C1143   1.522   .     S
C1076  H1158   1.114   .     S
C1077  H1095   1.110   .     S
C1077  H1093   1.110   .     S
C1077  H1094   1.111   .     S
C1078  O1114   1.407   .     S
C1078  H1097   1.108   .     S
C1079  C1082   1.392   .     A
C1079  H1106   1.080   .     S
C1080  H1101   1.110   .     S
C1080  H1098   1.110   .     S
C1080  H1099   1.111   .     S
C1080  C1144   1.522   .     S
C1081  H1107   1.080   .     S
C1081  C1083   1.392   .     A
C1082  H1089   1.084   .     S
C1083  H1100   1.084   .     S
C1083  C477    1.393   1_556 S
C1084  C689    1.333   1_565 S
C1084  H712    1.086   1_565 S
C1086  O1118   1.316   .     A
C1086  O1120   1.303   .     A
Cu1087 O1117   1.949   .     S
Cu1087 Cu1088  2.720   .     S
Cu1087 O1113   1.950   .     S
Cu1087 O1118   1.940   .     S
Cu1087 N1110   2.044   .     S
Cu1087 O1121   1.929   .     S
Cu1088 O1115   1.950   .     S
Cu1088 O1116   1.949   .     S
Cu1088 N1109   2.044   .     S
Cu1088 O1120   1.929   .     S
Cu1088 O1119   1.940   .     S
H1090  C689    1.086   1_565 S
H1096  C1144   1.114   .     S
H1104  C1127   1.083   .     S
N1109  O1122   1.346   .     S
N1109  N1176   1.294   .     S
N1110  O1114   1.346   .     S
C1123  O1179   1.299   .     A
C1123  C1150   1.430   .     S
C1123  O1182   1.299   .     A
C1124  C1126   1.477   .     S
C1124  O1187   1.303   .     A
C1124  O1185   1.316   .     A
C1125  C1152   1.477   .     S
C1125  C1131   1.409   .     A
C1125  C1129   1.398   .     A
C1126  C1130   1.398   .     A
C1126  C1132   1.409   .     A
C1127  C1136   1.403   .     A
C1127  C1129   1.398   .     A
C1128  C1130   1.398   .     A
C1128  C1137   1.403   .     A
C1128  H1039   1.083   1_655 S
C1129  H1169   1.074   .     S
C1130  H1168   1.074   .     S
C1131  C1133   1.402   .     A
C1131  C1141   1.449   .     S
C1132  C1140   1.449   .     S
C1132  C1135   1.402   .     A
C1133  C1138   1.420   .     A
C1133  C1136   1.412   .     A
C1134  C1151   1.430   .     S
C1134  O1181   1.299   .     A
C1134  O1183   1.299   .     A
C1135  C1139   1.420   .     A
C1135  C1137   1.412   .     A
C1136  C554    1.393   1_556 S
C1138  C1147   1.413   .     A
C1138  C545    1.418   1_556 S
C1139  C1145   1.413   .     A
C1140  N1177   1.156   .     T
C1141  N1178   1.156   .     T
C1142  O1188   1.406   .     S
C1142  H1157   1.108   .     S
C1142  C1011   1.522   1_655 S
C1142  H1026   1.114   1_655 S
C1143  H1161   1.110   .     S
C1143  H1159   1.110   .     S
C1143  H1160   1.111   .     S
C1144  O1180   1.407   .     S
C1144  H1163   1.108   .     S
C1145  C1148   1.392   .     A
C1145  H1172   1.080   .     S
C1146  H1167   1.110   .     S
C1146  H1164   1.110   .     S
C1146  H1165   1.111   .     S
C1146  C1012   1.522   1_655 S
C1147  H1173   1.080   .     S
C1147  C1149   1.392   .     A
C1148  H1155   1.084   .     S
C1149  H1166   1.084   .     S
C1149  C543    1.393   1_556 S
C1150  C755    1.333   1_565 S
C1150  H778    1.086   1_565 S
C1152  O1184   1.316   .     A
C1152  O1186   1.303   .     A
Cu1153 O1183   1.949   .     S
Cu1153 Cu1154  2.720   .     S
Cu1153 O1179   1.950   .     S
Cu1153 O1184   1.940   .     S
Cu1153 N1176   2.044   .     S
Cu1153 O1187   1.929   .     S
Cu1154 O1181   1.950   .     S
Cu1154 O1182   1.949   .     S
Cu1154 N1175   2.044   .     S
Cu1154 O1186   1.929   .     S
Cu1154 O1185   1.940   .     S
H1156  C755    1.086   1_565 S
H1162  C1012   1.114   1_655 S
H1170  C995    1.083   1_655 S
N1175  O1188   1.346   .     S
N1175  N1044   1.294   1_655 S
N1176  O1180   1.346   .     S
