data_str_m2_o1_o17_pcu_sym.20
_audit_creation_date              2020-01-03
_audit_creation_method            'Materials Studio'
_symmetry_space_group_name_H-M    'P1'
_symmetry_Int_Tables_number       1
_symmetry_cell_setting            triclinic
loop_
_symmetry_equiv_pos_as_xyz
  x,y,z
_cell_length_a                    32.9694
_cell_length_b                    28.8506
_cell_length_c                    29.9331
_cell_angle_alpha                 89.9939
_cell_angle_beta                  92.9174
_cell_angle_gamma                 89.9893
loop_
_atom_site_label
_atom_site_type_symbol
_atom_site_fract_x
_atom_site_fract_y
_atom_site_fract_z
_atom_site_U_iso_or_equiv
_atom_site_adp_type
_atom_site_occupancy
Br1    Br    0.25326   0.16090   0.37827   0.00000  Uiso   1.00
Br2    Br    0.10662   0.27728   0.17675   0.00000  Uiso   1.00
Br3    Br    0.08008   0.16093   0.12173   0.00000  Uiso   1.00
Br4    Br    0.08130   0.15425   0.36842   0.00000  Uiso   1.00
Br5    Br    0.25204   0.15427   0.13159   0.00000  Uiso   1.00
Br6    Br    0.04961   0.22938   0.04408   0.00000  Uiso   1.00
Br7    Br    0.28371   0.22936   0.45590   0.00000  Uiso   1.00
Br8    Br    0.10641   0.05568   0.17708   0.00000  Uiso   1.00
Br9    Br    0.22681   0.27723   0.32316   0.00000  Uiso   1.00
Br10   Br    0.22683   0.05563   0.32300   0.00000  Uiso   1.00
C11    C     0.08747   0.16667   0.25078   0.00000  Uiso   1.00
C12    C     0.04277   0.16669   0.25159   0.00000  Uiso   1.00
C13    C     0.14199   0.02461   0.22018   0.00000  Uiso   1.00
C14    C     0.19133   0.30862   0.27986   0.00000  Uiso   1.00
C15    C     0.19133   0.02459   0.27982   0.00000  Uiso   1.00
C16    C     0.14202   0.30864   0.22013   0.00000  Uiso   1.00
C17    C     0.16638   0.16680   0.16449   0.00000  Uiso   1.00
C18    C     0.16695   0.16680   0.33551   0.00000  Uiso   1.00
C19    C     0.20402   0.17460   0.40854   0.00000  Uiso   1.00
C20    C     0.12931   0.17461   0.09146   0.00000  Uiso   1.00
C21    C     0.16701   0.16832   0.38408   0.00000  Uiso   1.00
C22    C     0.24586   0.16667   0.24921   0.00000  Uiso   1.00
C23    C     0.16632   0.16834   0.11592   0.00000  Uiso   1.00
C24    C     0.12977   0.17060   0.40456   0.00000  Uiso   1.00
C25    C     0.20357   0.17061   0.09544   0.00000  Uiso   1.00
C26    C     0.12924   0.18011   0.45088   0.00000  Uiso   1.00
C27    C     0.20409   0.18012   0.04912   0.00000  Uiso   1.00
C28    C     0.16666   0.18204   0.47640   0.00000  Uiso   1.00
C29    C     0.16668   0.18205   0.02360   0.00000  Uiso   1.00
C30    C     0.20401   0.18357   0.45494   0.00000  Uiso   1.00
C31    C     0.12932   0.18358   0.04506   0.00000  Uiso   1.00
C32    C     0.09316   0.19113   0.47228   0.00000  Uiso   1.00
C33    C     0.09381   0.19549   0.01910   0.00000  Uiso   1.00
C34    C     0.24017   0.19113   0.02772   0.00000  Uiso   1.00
C35    C     0.23952   0.19548   0.48089   0.00000  Uiso   1.00
C36    C     0.02126   0.12428   0.25174   0.00000  Uiso   1.00
C37    C     0.31207   0.20908   0.24826   0.00000  Uiso   1.00
C38    C     0.31211   0.12427   0.24852   0.00000  Uiso   1.00
C39    C     0.02123   0.20909   0.25146   0.00000  Uiso   1.00
C40    C     0.29057   0.16667   0.24840   0.00000  Uiso   1.00
Cu41   Cu    0.16667   0.21355   0.25000   0.00000  Uiso   1.00
Cu42   Cu    0.16667   0.11978   0.25000   0.00000  Uiso   1.00
H43    H     0.04980   0.23735   0.45087   0.00000  Uiso   1.00
H44    H     0.29863   0.06516   0.21386   0.00000  Uiso   1.00
H45    H     0.03385   0.27416   0.22938   0.00000  Uiso   1.00
H46    H     0.03469   0.26829   0.28600   0.00000  Uiso   1.00
H47    H     0.03307   0.18188   0.45744   0.00000  Uiso   1.00
H48    H     0.28351   0.23735   0.04911   0.00000  Uiso   1.00
H49    H     0.30026   0.18188   0.04256   0.00000  Uiso   1.00
H50    H     0.03393   0.05901   0.23022   0.00000  Uiso   1.00
H51    H     0.03478   0.06541   0.28678   0.00000  Uiso   1.00
H52    H     0.29937   0.27431   0.26987   0.00000  Uiso   1.00
H53    H     0.29855   0.26801   0.21329   0.00000  Uiso   1.00
H54    H     0.29951   0.05913   0.27046   0.00000  Uiso   1.00
N55    N     0.16667   0.28402   0.25000   0.00000  Uiso   1.00
N56    N     0.16667   0.04931   0.25000   0.00000  Uiso   1.00
N57    N     0.05672   0.20236   0.44637   0.00000  Uiso   1.00
N58    N     0.27661   0.20236   0.05361   0.00000  Uiso   1.00
N59    N     0.04248   0.08093   0.25682   0.00000  Uiso   1.00
N60    N     0.29084   0.25243   0.24322   0.00000  Uiso   1.00
N61    N     0.29093   0.08088   0.24373   0.00000  Uiso   1.00
N62    N     0.04241   0.25249   0.25617   0.00000  Uiso   1.00
O63    O     0.10655   0.20625   0.24999   0.00000  Uiso   1.00
O64    O     0.22679   0.12709   0.25001   0.00000  Uiso   1.00
O65    O     0.22679   0.20625   0.25000   0.00000  Uiso   1.00
O66    O     0.10655   0.12709   0.24999   0.00000  Uiso   1.00
O67    O     0.16666   0.20627   0.18513   0.00000  Uiso   1.00
O68    O     0.16668   0.12707   0.31487   0.00000  Uiso   1.00
O69    O     0.16668   0.20627   0.31487   0.00000  Uiso   1.00
O70    O     0.16666   0.12707   0.18513   0.00000  Uiso   1.00
Br71   Br    0.58659   0.16090   0.37827   0.00000  Uiso   1.00
Br72   Br    0.43995   0.27728   0.17675   0.00000  Uiso   1.00
Br73   Br    0.41341   0.16093   0.12173   0.00000  Uiso   1.00
Br74   Br    0.41463   0.15425   0.36842   0.00000  Uiso   1.00
Br75   Br    0.58538   0.15427   0.13159   0.00000  Uiso   1.00
Br76   Br    0.38294   0.22938   0.04408   0.00000  Uiso   1.00
Br77   Br    0.61704   0.22936   0.45590   0.00000  Uiso   1.00
Br78   Br    0.43975   0.05568   0.17708   0.00000  Uiso   1.00
Br79   Br    0.56014   0.27723   0.32316   0.00000  Uiso   1.00
Br80   Br    0.56017   0.05563   0.32300   0.00000  Uiso   1.00
C81    C     0.42081   0.16667   0.25078   0.00000  Uiso   1.00
C82    C     0.37610   0.16669   0.25159   0.00000  Uiso   1.00
C83    C     0.47533   0.02461   0.22018   0.00000  Uiso   1.00
C84    C     0.52466   0.30862   0.27986   0.00000  Uiso   1.00
C85    C     0.52466   0.02459   0.27982   0.00000  Uiso   1.00
C86    C     0.47535   0.30864   0.22013   0.00000  Uiso   1.00
C87    C     0.49972   0.16680   0.16449   0.00000  Uiso   1.00
C88    C     0.50029   0.16680   0.33551   0.00000  Uiso   1.00
C89    C     0.53735   0.17460   0.40854   0.00000  Uiso   1.00
C90    C     0.46265   0.17461   0.09146   0.00000  Uiso   1.00
C91    C     0.50034   0.16832   0.38408   0.00000  Uiso   1.00
C92    C     0.57919   0.16667   0.24921   0.00000  Uiso   1.00
C93    C     0.49966   0.16834   0.11592   0.00000  Uiso   1.00
C94    C     0.46310   0.17060   0.40456   0.00000  Uiso   1.00
C95    C     0.53690   0.17061   0.09544   0.00000  Uiso   1.00
C96    C     0.46258   0.18011   0.45088   0.00000  Uiso   1.00
C97    C     0.53742   0.18012   0.04912   0.00000  Uiso   1.00
C98    C     0.49999   0.18204   0.47640   0.00000  Uiso   1.00
C99    C     0.50001   0.18205   0.02360   0.00000  Uiso   1.00
C100   C     0.53734   0.18357   0.45494   0.00000  Uiso   1.00
C101   C     0.46266   0.18358   0.04506   0.00000  Uiso   1.00
C102   C     0.42649   0.19113   0.47228   0.00000  Uiso   1.00
C103   C     0.42714   0.19549   0.01910   0.00000  Uiso   1.00
C104   C     0.57351   0.19113   0.02772   0.00000  Uiso   1.00
C105   C     0.57285   0.19548   0.48089   0.00000  Uiso   1.00
C106   C     0.35459   0.12428   0.25174   0.00000  Uiso   1.00
C107   C     0.64540   0.20908   0.24826   0.00000  Uiso   1.00
C108   C     0.64544   0.12427   0.24852   0.00000  Uiso   1.00
C109   C     0.35456   0.20909   0.25146   0.00000  Uiso   1.00
C110   C     0.62390   0.16667   0.24840   0.00000  Uiso   1.00
Cu111  Cu    0.50000   0.21355   0.25000   0.00000  Uiso   1.00
Cu112  Cu    0.50000   0.11978   0.25000   0.00000  Uiso   1.00
H113   H     0.38314   0.23735   0.45087   0.00000  Uiso   1.00
H114   H     0.63197   0.06516   0.21386   0.00000  Uiso   1.00
H115   H     0.36719   0.27416   0.22938   0.00000  Uiso   1.00
H116   H     0.36803   0.26829   0.28600   0.00000  Uiso   1.00
H117   H     0.36640   0.18188   0.45744   0.00000  Uiso   1.00
H118   H     0.61685   0.23735   0.04911   0.00000  Uiso   1.00
H119   H     0.63360   0.18188   0.04256   0.00000  Uiso   1.00
H120   H     0.36727   0.05901   0.23022   0.00000  Uiso   1.00
H121   H     0.36811   0.06541   0.28678   0.00000  Uiso   1.00
H122   H     0.63270   0.27431   0.26987   0.00000  Uiso   1.00
H123   H     0.63189   0.26801   0.21329   0.00000  Uiso   1.00
H124   H     0.63284   0.05913   0.27046   0.00000  Uiso   1.00
N125   N     0.50000   0.28402   0.25000   0.00000  Uiso   1.00
N126   N     0.50000   0.04931   0.25000   0.00000  Uiso   1.00
N127   N     0.39005   0.20236   0.44637   0.00000  Uiso   1.00
N128   N     0.60994   0.20236   0.05361   0.00000  Uiso   1.00
N129   N     0.37581   0.08093   0.25682   0.00000  Uiso   1.00
N130   N     0.62418   0.25243   0.24322   0.00000  Uiso   1.00
N131   N     0.62426   0.08088   0.24373   0.00000  Uiso   1.00
N132   N     0.37575   0.25249   0.25617   0.00000  Uiso   1.00
O133   O     0.43988   0.20625   0.24999   0.00000  Uiso   1.00
O134   O     0.56012   0.12709   0.25001   0.00000  Uiso   1.00
O135   O     0.56012   0.20625   0.25000   0.00000  Uiso   1.00
O136   O     0.43988   0.12709   0.24999   0.00000  Uiso   1.00
O137   O     0.49999   0.20627   0.18513   0.00000  Uiso   1.00
O138   O     0.50001   0.12707   0.31487   0.00000  Uiso   1.00
O139   O     0.50001   0.20627   0.31487   0.00000  Uiso   1.00
O140   O     0.49999   0.12707   0.18513   0.00000  Uiso   1.00
Br141  Br    0.91993   0.16090   0.37827   0.00000  Uiso   1.00
Br142  Br    0.77328   0.27728   0.17675   0.00000  Uiso   1.00
Br143  Br    0.74674   0.16093   0.12173   0.00000  Uiso   1.00
Br144  Br    0.74796   0.15425   0.36842   0.00000  Uiso   1.00
Br145  Br    0.91871   0.15427   0.13159   0.00000  Uiso   1.00
Br146  Br    0.71627   0.22938   0.04408   0.00000  Uiso   1.00
Br147  Br    0.95038   0.22936   0.45590   0.00000  Uiso   1.00
Br148  Br    0.77308   0.05568   0.17708   0.00000  Uiso   1.00
Br149  Br    0.89347   0.27723   0.32316   0.00000  Uiso   1.00
Br150  Br    0.89350   0.05563   0.32300   0.00000  Uiso   1.00
C151   C     0.75414   0.16667   0.25078   0.00000  Uiso   1.00
C152   C     0.70943   0.16669   0.25159   0.00000  Uiso   1.00
C153   C     0.80866   0.02461   0.22018   0.00000  Uiso   1.00
C154   C     0.85799   0.30862   0.27986   0.00000  Uiso   1.00
C155   C     0.85800   0.02459   0.27982   0.00000  Uiso   1.00
C156   C     0.80868   0.30864   0.22013   0.00000  Uiso   1.00
C157   C     0.83305   0.16680   0.16449   0.00000  Uiso   1.00
C158   C     0.83362   0.16680   0.33551   0.00000  Uiso   1.00
C159   C     0.87069   0.17460   0.40854   0.00000  Uiso   1.00
C160   C     0.79598   0.17461   0.09146   0.00000  Uiso   1.00
C161   C     0.83368   0.16832   0.38408   0.00000  Uiso   1.00
C162   C     0.91253   0.16667   0.24921   0.00000  Uiso   1.00
C163   C     0.83299   0.16834   0.11592   0.00000  Uiso   1.00
C164   C     0.79643   0.17060   0.40456   0.00000  Uiso   1.00
C165   C     0.87024   0.17061   0.09544   0.00000  Uiso   1.00
C166   C     0.79591   0.18011   0.45088   0.00000  Uiso   1.00
C167   C     0.87076   0.18012   0.04912   0.00000  Uiso   1.00
C168   C     0.83332   0.18204   0.47640   0.00000  Uiso   1.00
C169   C     0.83334   0.18205   0.02360   0.00000  Uiso   1.00
C170   C     0.87067   0.18357   0.45494   0.00000  Uiso   1.00
C171   C     0.79599   0.18358   0.04506   0.00000  Uiso   1.00
C172   C     0.75982   0.19113   0.47228   0.00000  Uiso   1.00
C173   C     0.76047   0.19549   0.01910   0.00000  Uiso   1.00
C174   C     0.90684   0.19113   0.02772   0.00000  Uiso   1.00
C175   C     0.90619   0.19548   0.48089   0.00000  Uiso   1.00
C176   C     0.68793   0.12428   0.25174   0.00000  Uiso   1.00
C177   C     0.97874   0.20908   0.24826   0.00000  Uiso   1.00
C178   C     0.97877   0.12427   0.24852   0.00000  Uiso   1.00
C179   C     0.68789   0.20909   0.25146   0.00000  Uiso   1.00
C180   C     0.95723   0.16667   0.24840   0.00000  Uiso   1.00
Cu181  Cu    0.83333   0.21355   0.25000   0.00000  Uiso   1.00
Cu182  Cu    0.83333   0.11978   0.25000   0.00000  Uiso   1.00
H183   H     0.71647   0.23735   0.45087   0.00000  Uiso   1.00
H184   H     0.96530   0.06516   0.21386   0.00000  Uiso   1.00
H185   H     0.70052   0.27416   0.22938   0.00000  Uiso   1.00
H186   H     0.70136   0.26829   0.28600   0.00000  Uiso   1.00
H187   H     0.69974   0.18188   0.45744   0.00000  Uiso   1.00
H188   H     0.95018   0.23735   0.04911   0.00000  Uiso   1.00
H189   H     0.96693   0.18188   0.04256   0.00000  Uiso   1.00
H190   H     0.70060   0.05901   0.23022   0.00000  Uiso   1.00
H191   H     0.70145   0.06541   0.28678   0.00000  Uiso   1.00
H192   H     0.96603   0.27431   0.26987   0.00000  Uiso   1.00
H193   H     0.96522   0.26801   0.21329   0.00000  Uiso   1.00
H194   H     0.96617   0.05913   0.27046   0.00000  Uiso   1.00
N195   N     0.83333   0.28402   0.25000   0.00000  Uiso   1.00
N196   N     0.83333   0.04931   0.25000   0.00000  Uiso   1.00
N197   N     0.72339   0.20236   0.44637   0.00000  Uiso   1.00
N198   N     0.94327   0.20236   0.05361   0.00000  Uiso   1.00
N199   N     0.70915   0.08093   0.25682   0.00000  Uiso   1.00
N200   N     0.95751   0.25243   0.24322   0.00000  Uiso   1.00
N201   N     0.95759   0.08088   0.24373   0.00000  Uiso   1.00
N202   N     0.70908   0.25249   0.25617   0.00000  Uiso   1.00
O203   O     0.77321   0.20625   0.24999   0.00000  Uiso   1.00
O204   O     0.89345   0.12709   0.25001   0.00000  Uiso   1.00
O205   O     0.89345   0.20625   0.25000   0.00000  Uiso   1.00
O206   O     0.77321   0.12709   0.24999   0.00000  Uiso   1.00
O207   O     0.83332   0.20627   0.18513   0.00000  Uiso   1.00
O208   O     0.83334   0.12707   0.31487   0.00000  Uiso   1.00
O209   O     0.83334   0.20627   0.31487   0.00000  Uiso   1.00
O210   O     0.83332   0.12707   0.18513   0.00000  Uiso   1.00
Br211  Br    0.25326   0.49423   0.37827   0.00000  Uiso   1.00
Br212  Br    0.10662   0.61061   0.17675   0.00000  Uiso   1.00
Br213  Br    0.08008   0.49426   0.12173   0.00000  Uiso   1.00
Br214  Br    0.08130   0.48758   0.36842   0.00000  Uiso   1.00
Br215  Br    0.25204   0.48760   0.13159   0.00000  Uiso   1.00
Br216  Br    0.04961   0.56272   0.04408   0.00000  Uiso   1.00
Br217  Br    0.28371   0.56270   0.45590   0.00000  Uiso   1.00
Br218  Br    0.10641   0.38901   0.17708   0.00000  Uiso   1.00
Br219  Br    0.22681   0.61056   0.32316   0.00000  Uiso   1.00
Br220  Br    0.22683   0.38896   0.32300   0.00000  Uiso   1.00
C221   C     0.08747   0.50001   0.25078   0.00000  Uiso   1.00
C222   C     0.04277   0.50002   0.25159   0.00000  Uiso   1.00
C223   C     0.14199   0.35794   0.22018   0.00000  Uiso   1.00
C224   C     0.19133   0.64195   0.27986   0.00000  Uiso   1.00
C225   C     0.19133   0.35792   0.27982   0.00000  Uiso   1.00
C226   C     0.14202   0.64197   0.22013   0.00000  Uiso   1.00
C227   C     0.16638   0.50014   0.16449   0.00000  Uiso   1.00
C228   C     0.16695   0.50013   0.33551   0.00000  Uiso   1.00
C229   C     0.20402   0.50793   0.40854   0.00000  Uiso   1.00
C230   C     0.12931   0.50795   0.09146   0.00000  Uiso   1.00
C231   C     0.16701   0.50166   0.38408   0.00000  Uiso   1.00
C232   C     0.24586   0.50000   0.24921   0.00000  Uiso   1.00
C233   C     0.16632   0.50167   0.11592   0.00000  Uiso   1.00
C234   C     0.12977   0.50394   0.40456   0.00000  Uiso   1.00
C235   C     0.20357   0.50395   0.09544   0.00000  Uiso   1.00
C236   C     0.12924   0.51345   0.45088   0.00000  Uiso   1.00
C237   C     0.20409   0.51345   0.04912   0.00000  Uiso   1.00
C238   C     0.16666   0.51538   0.47640   0.00000  Uiso   1.00
C239   C     0.16668   0.51538   0.02360   0.00000  Uiso   1.00
C240   C     0.20401   0.51690   0.45494   0.00000  Uiso   1.00
C241   C     0.12932   0.51691   0.04506   0.00000  Uiso   1.00
C242   C     0.09316   0.52446   0.47228   0.00000  Uiso   1.00
C243   C     0.09381   0.52882   0.01910   0.00000  Uiso   1.00
C244   C     0.24017   0.52446   0.02772   0.00000  Uiso   1.00
C245   C     0.23952   0.52881   0.48089   0.00000  Uiso   1.00
C246   C     0.02126   0.45762   0.25174   0.00000  Uiso   1.00
C247   C     0.31207   0.54241   0.24826   0.00000  Uiso   1.00
C248   C     0.31211   0.45760   0.24852   0.00000  Uiso   1.00
C249   C     0.02123   0.54243   0.25146   0.00000  Uiso   1.00
C250   C     0.29057   0.50000   0.24840   0.00000  Uiso   1.00
Cu251  Cu    0.16667   0.54689   0.25000   0.00000  Uiso   1.00
Cu252  Cu    0.16667   0.45311   0.25000   0.00000  Uiso   1.00
H253   H     0.04980   0.57068   0.45087   0.00000  Uiso   1.00
H254   H     0.29863   0.39849   0.21386   0.00000  Uiso   1.00
H255   H     0.03385   0.60750   0.22938   0.00000  Uiso   1.00
H256   H     0.03469   0.60162   0.28600   0.00000  Uiso   1.00
H257   H     0.03307   0.51521   0.45744   0.00000  Uiso   1.00
H258   H     0.28351   0.57068   0.04911   0.00000  Uiso   1.00
H259   H     0.30026   0.51521   0.04256   0.00000  Uiso   1.00
H260   H     0.03393   0.39234   0.23022   0.00000  Uiso   1.00
H261   H     0.03478   0.39874   0.28678   0.00000  Uiso   1.00
H262   H     0.29937   0.60765   0.26987   0.00000  Uiso   1.00
H263   H     0.29855   0.60134   0.21329   0.00000  Uiso   1.00
H264   H     0.29951   0.39247   0.27046   0.00000  Uiso   1.00
N265   N     0.16667   0.61736   0.25000   0.00000  Uiso   1.00
N266   N     0.16667   0.38264   0.25000   0.00000  Uiso   1.00
N267   N     0.05672   0.53569   0.44637   0.00000  Uiso   1.00
N268   N     0.27661   0.53569   0.05361   0.00000  Uiso   1.00
N269   N     0.04248   0.41426   0.25682   0.00000  Uiso   1.00
N270   N     0.29084   0.58577   0.24322   0.00000  Uiso   1.00
N271   N     0.29093   0.41421   0.24373   0.00000  Uiso   1.00
N272   N     0.04241   0.58582   0.25617   0.00000  Uiso   1.00
O273   O     0.10655   0.53958   0.24999   0.00000  Uiso   1.00
O274   O     0.22679   0.46042   0.25001   0.00000  Uiso   1.00
O275   O     0.22679   0.53958   0.25000   0.00000  Uiso   1.00
O276   O     0.10655   0.46042   0.24999   0.00000  Uiso   1.00
O277   O     0.16666   0.53960   0.18513   0.00000  Uiso   1.00
O278   O     0.16668   0.46040   0.31487   0.00000  Uiso   1.00
O279   O     0.16668   0.53960   0.31487   0.00000  Uiso   1.00
O280   O     0.16666   0.46040   0.18513   0.00000  Uiso   1.00
Br281  Br    0.58659   0.49423   0.37827   0.00000  Uiso   1.00
Br282  Br    0.43995   0.61061   0.17675   0.00000  Uiso   1.00
Br283  Br    0.41341   0.49426   0.12173   0.00000  Uiso   1.00
Br284  Br    0.41463   0.48758   0.36842   0.00000  Uiso   1.00
Br285  Br    0.58538   0.48760   0.13159   0.00000  Uiso   1.00
Br286  Br    0.38294   0.56272   0.04408   0.00000  Uiso   1.00
Br287  Br    0.61704   0.56270   0.45590   0.00000  Uiso   1.00
Br288  Br    0.43975   0.38901   0.17708   0.00000  Uiso   1.00
Br289  Br    0.56014   0.61056   0.32316   0.00000  Uiso   1.00
Br290  Br    0.56017   0.38896   0.32300   0.00000  Uiso   1.00
C291   C     0.42081   0.50001   0.25078   0.00000  Uiso   1.00
C292   C     0.37610   0.50002   0.25159   0.00000  Uiso   1.00
C293   C     0.47533   0.35794   0.22018   0.00000  Uiso   1.00
C294   C     0.52466   0.64195   0.27986   0.00000  Uiso   1.00
C295   C     0.52466   0.35792   0.27982   0.00000  Uiso   1.00
C296   C     0.47535   0.64197   0.22013   0.00000  Uiso   1.00
C297   C     0.49972   0.50014   0.16449   0.00000  Uiso   1.00
C298   C     0.50029   0.50013   0.33551   0.00000  Uiso   1.00
C299   C     0.53735   0.50793   0.40854   0.00000  Uiso   1.00
C300   C     0.46265   0.50795   0.09146   0.00000  Uiso   1.00
C301   C     0.50034   0.50166   0.38408   0.00000  Uiso   1.00
C302   C     0.57919   0.50000   0.24921   0.00000  Uiso   1.00
C303   C     0.49966   0.50167   0.11592   0.00000  Uiso   1.00
C304   C     0.46310   0.50394   0.40456   0.00000  Uiso   1.00
C305   C     0.53690   0.50395   0.09544   0.00000  Uiso   1.00
C306   C     0.46258   0.51345   0.45088   0.00000  Uiso   1.00
C307   C     0.53742   0.51345   0.04912   0.00000  Uiso   1.00
C308   C     0.49999   0.51538   0.47640   0.00000  Uiso   1.00
C309   C     0.50001   0.51538   0.02360   0.00000  Uiso   1.00
C310   C     0.53734   0.51690   0.45494   0.00000  Uiso   1.00
C311   C     0.46266   0.51691   0.04506   0.00000  Uiso   1.00
C312   C     0.42649   0.52446   0.47228   0.00000  Uiso   1.00
C313   C     0.42714   0.52882   0.01910   0.00000  Uiso   1.00
C314   C     0.57351   0.52446   0.02772   0.00000  Uiso   1.00
C315   C     0.57285   0.52881   0.48089   0.00000  Uiso   1.00
C316   C     0.35459   0.45762   0.25174   0.00000  Uiso   1.00
C317   C     0.64540   0.54241   0.24826   0.00000  Uiso   1.00
C318   C     0.64544   0.45760   0.24852   0.00000  Uiso   1.00
C319   C     0.35456   0.54243   0.25146   0.00000  Uiso   1.00
C320   C     0.62390   0.50000   0.24840   0.00000  Uiso   1.00
Cu321  Cu    0.50000   0.54689   0.25000   0.00000  Uiso   1.00
Cu322  Cu    0.50000   0.45311   0.25000   0.00000  Uiso   1.00
H323   H     0.38314   0.57068   0.45087   0.00000  Uiso   1.00
H324   H     0.63197   0.39849   0.21386   0.00000  Uiso   1.00
H325   H     0.36719   0.60750   0.22938   0.00000  Uiso   1.00
H326   H     0.36803   0.60162   0.28600   0.00000  Uiso   1.00
H327   H     0.36640   0.51521   0.45744   0.00000  Uiso   1.00
H328   H     0.61685   0.57068   0.04911   0.00000  Uiso   1.00
H329   H     0.63360   0.51521   0.04256   0.00000  Uiso   1.00
H330   H     0.36727   0.39234   0.23022   0.00000  Uiso   1.00
H331   H     0.36811   0.39874   0.28678   0.00000  Uiso   1.00
H332   H     0.63270   0.60765   0.26987   0.00000  Uiso   1.00
H333   H     0.63189   0.60134   0.21329   0.00000  Uiso   1.00
H334   H     0.63284   0.39247   0.27046   0.00000  Uiso   1.00
N335   N     0.50000   0.61736   0.25000   0.00000  Uiso   1.00
N336   N     0.50000   0.38264   0.25000   0.00000  Uiso   1.00
N337   N     0.39005   0.53569   0.44637   0.00000  Uiso   1.00
N338   N     0.60994   0.53569   0.05361   0.00000  Uiso   1.00
N339   N     0.37581   0.41426   0.25682   0.00000  Uiso   1.00
N340   N     0.62418   0.58577   0.24322   0.00000  Uiso   1.00
N341   N     0.62426   0.41421   0.24373   0.00000  Uiso   1.00
N342   N     0.37575   0.58582   0.25617   0.00000  Uiso   1.00
O343   O     0.43988   0.53958   0.24999   0.00000  Uiso   1.00
O344   O     0.56012   0.46042   0.25001   0.00000  Uiso   1.00
O345   O     0.56012   0.53958   0.25000   0.00000  Uiso   1.00
O346   O     0.43988   0.46042   0.24999   0.00000  Uiso   1.00
O347   O     0.49999   0.53960   0.18513   0.00000  Uiso   1.00
O348   O     0.50001   0.46040   0.31487   0.00000  Uiso   1.00
O349   O     0.50001   0.53960   0.31487   0.00000  Uiso   1.00
O350   O     0.49999   0.46040   0.18513   0.00000  Uiso   1.00
Br351  Br    0.91993   0.49423   0.37827   0.00000  Uiso   1.00
Br352  Br    0.77328   0.61061   0.17675   0.00000  Uiso   1.00
Br353  Br    0.74674   0.49426   0.12173   0.00000  Uiso   1.00
Br354  Br    0.74796   0.48758   0.36842   0.00000  Uiso   1.00
Br355  Br    0.91871   0.48760   0.13159   0.00000  Uiso   1.00
Br356  Br    0.71627   0.56272   0.04408   0.00000  Uiso   1.00
Br357  Br    0.95038   0.56270   0.45590   0.00000  Uiso   1.00
Br358  Br    0.77308   0.38901   0.17708   0.00000  Uiso   1.00
Br359  Br    0.89347   0.61056   0.32316   0.00000  Uiso   1.00
Br360  Br    0.89350   0.38896   0.32300   0.00000  Uiso   1.00
C361   C     0.75414   0.50001   0.25078   0.00000  Uiso   1.00
C362   C     0.70943   0.50002   0.25159   0.00000  Uiso   1.00
C363   C     0.80866   0.35794   0.22018   0.00000  Uiso   1.00
C364   C     0.85799   0.64195   0.27986   0.00000  Uiso   1.00
C365   C     0.85800   0.35792   0.27982   0.00000  Uiso   1.00
C366   C     0.80868   0.64197   0.22013   0.00000  Uiso   1.00
C367   C     0.83305   0.50014   0.16449   0.00000  Uiso   1.00
C368   C     0.83362   0.50013   0.33551   0.00000  Uiso   1.00
C369   C     0.87069   0.50793   0.40854   0.00000  Uiso   1.00
C370   C     0.79598   0.50795   0.09146   0.00000  Uiso   1.00
C371   C     0.83368   0.50166   0.38408   0.00000  Uiso   1.00
C372   C     0.91253   0.50000   0.24921   0.00000  Uiso   1.00
C373   C     0.83299   0.50167   0.11592   0.00000  Uiso   1.00
C374   C     0.79643   0.50394   0.40456   0.00000  Uiso   1.00
C375   C     0.87024   0.50395   0.09544   0.00000  Uiso   1.00
C376   C     0.79591   0.51345   0.45088   0.00000  Uiso   1.00
C377   C     0.87076   0.51345   0.04912   0.00000  Uiso   1.00
C378   C     0.83332   0.51538   0.47640   0.00000  Uiso   1.00
C379   C     0.83334   0.51538   0.02360   0.00000  Uiso   1.00
C380   C     0.87067   0.51690   0.45494   0.00000  Uiso   1.00
C381   C     0.79599   0.51691   0.04506   0.00000  Uiso   1.00
C382   C     0.75982   0.52446   0.47228   0.00000  Uiso   1.00
C383   C     0.76047   0.52882   0.01910   0.00000  Uiso   1.00
C384   C     0.90684   0.52446   0.02772   0.00000  Uiso   1.00
C385   C     0.90619   0.52881   0.48089   0.00000  Uiso   1.00
C386   C     0.68793   0.45762   0.25174   0.00000  Uiso   1.00
C387   C     0.97874   0.54241   0.24826   0.00000  Uiso   1.00
C388   C     0.97877   0.45760   0.24852   0.00000  Uiso   1.00
C389   C     0.68789   0.54243   0.25146   0.00000  Uiso   1.00
C390   C     0.95723   0.50000   0.24840   0.00000  Uiso   1.00
Cu391  Cu    0.83333   0.54689   0.25000   0.00000  Uiso   1.00
Cu392  Cu    0.83333   0.45311   0.25000   0.00000  Uiso   1.00
H393   H     0.71647   0.57068   0.45087   0.00000  Uiso   1.00
H394   H     0.96530   0.39849   0.21386   0.00000  Uiso   1.00
H395   H     0.70052   0.60750   0.22938   0.00000  Uiso   1.00
H396   H     0.70136   0.60162   0.28600   0.00000  Uiso   1.00
H397   H     0.69974   0.51521   0.45744   0.00000  Uiso   1.00
H398   H     0.95018   0.57068   0.04911   0.00000  Uiso   1.00
H399   H     0.96693   0.51521   0.04256   0.00000  Uiso   1.00
H400   H     0.70060   0.39234   0.23022   0.00000  Uiso   1.00
H401   H     0.70145   0.39874   0.28678   0.00000  Uiso   1.00
H402   H     0.96603   0.60765   0.26987   0.00000  Uiso   1.00
H403   H     0.96522   0.60134   0.21329   0.00000  Uiso   1.00
H404   H     0.96617   0.39247   0.27046   0.00000  Uiso   1.00
N405   N     0.83333   0.61736   0.25000   0.00000  Uiso   1.00
N406   N     0.83333   0.38264   0.25000   0.00000  Uiso   1.00
N407   N     0.72339   0.53569   0.44637   0.00000  Uiso   1.00
N408   N     0.94327   0.53569   0.05361   0.00000  Uiso   1.00
N409   N     0.70915   0.41426   0.25682   0.00000  Uiso   1.00
N410   N     0.95751   0.58577   0.24322   0.00000  Uiso   1.00
N411   N     0.95759   0.41421   0.24373   0.00000  Uiso   1.00
N412   N     0.70908   0.58582   0.25617   0.00000  Uiso   1.00
O413   O     0.77321   0.53958   0.24999   0.00000  Uiso   1.00
O414   O     0.89345   0.46042   0.25001   0.00000  Uiso   1.00
O415   O     0.89345   0.53958   0.25000   0.00000  Uiso   1.00
O416   O     0.77321   0.46042   0.24999   0.00000  Uiso   1.00
O417   O     0.83332   0.53960   0.18513   0.00000  Uiso   1.00
O418   O     0.83334   0.46040   0.31487   0.00000  Uiso   1.00
O419   O     0.83334   0.53960   0.31487   0.00000  Uiso   1.00
O420   O     0.83332   0.46040   0.18513   0.00000  Uiso   1.00
Br421  Br    0.25326   0.82756   0.37827   0.00000  Uiso   1.00
Br422  Br    0.10662   0.94395   0.17675   0.00000  Uiso   1.00
Br423  Br    0.08008   0.82759   0.12173   0.00000  Uiso   1.00
Br424  Br    0.08130   0.82092   0.36842   0.00000  Uiso   1.00
Br425  Br    0.25204   0.82093   0.13159   0.00000  Uiso   1.00
Br426  Br    0.04961   0.89605   0.04408   0.00000  Uiso   1.00
Br427  Br    0.28371   0.89603   0.45590   0.00000  Uiso   1.00
Br428  Br    0.10641   0.72235   0.17708   0.00000  Uiso   1.00
Br429  Br    0.22681   0.94390   0.32316   0.00000  Uiso   1.00
Br430  Br    0.22683   0.72230   0.32300   0.00000  Uiso   1.00
C431   C     0.08747   0.83334   0.25078   0.00000  Uiso   1.00
C432   C     0.04277   0.83336   0.25159   0.00000  Uiso   1.00
C433   C     0.14199   0.69127   0.22018   0.00000  Uiso   1.00
C434   C     0.19133   0.97529   0.27986   0.00000  Uiso   1.00
C435   C     0.19133   0.69126   0.27982   0.00000  Uiso   1.00
C436   C     0.14202   0.97531   0.22013   0.00000  Uiso   1.00
C437   C     0.16638   0.83347   0.16449   0.00000  Uiso   1.00
C438   C     0.16695   0.83346   0.33551   0.00000  Uiso   1.00
C439   C     0.20402   0.84127   0.40854   0.00000  Uiso   1.00
C440   C     0.12931   0.84128   0.09146   0.00000  Uiso   1.00
C441   C     0.16701   0.83499   0.38408   0.00000  Uiso   1.00
C442   C     0.24586   0.83333   0.24921   0.00000  Uiso   1.00
C443   C     0.16632   0.83500   0.11592   0.00000  Uiso   1.00
C444   C     0.12977   0.83727   0.40456   0.00000  Uiso   1.00
C445   C     0.20357   0.83728   0.09544   0.00000  Uiso   1.00
C446   C     0.12924   0.84678   0.45088   0.00000  Uiso   1.00
C447   C     0.20409   0.84678   0.04912   0.00000  Uiso   1.00
C448   C     0.16666   0.84871   0.47640   0.00000  Uiso   1.00
C449   C     0.16668   0.84871   0.02360   0.00000  Uiso   1.00
C450   C     0.20401   0.85023   0.45494   0.00000  Uiso   1.00
C451   C     0.12932   0.85024   0.04506   0.00000  Uiso   1.00
C452   C     0.09316   0.85780   0.47228   0.00000  Uiso   1.00
C453   C     0.09381   0.86215   0.01910   0.00000  Uiso   1.00
C454   C     0.24017   0.85780   0.02772   0.00000  Uiso   1.00
C455   C     0.23952   0.86214   0.48089   0.00000  Uiso   1.00
C456   C     0.02126   0.79095   0.25174   0.00000  Uiso   1.00
C457   C     0.31207   0.87574   0.24826   0.00000  Uiso   1.00
C458   C     0.31211   0.79094   0.24852   0.00000  Uiso   1.00
C459   C     0.02123   0.87576   0.25146   0.00000  Uiso   1.00
C460   C     0.29057   0.83334   0.24840   0.00000  Uiso   1.00
Cu461  Cu    0.16667   0.88022   0.25000   0.00000  Uiso   1.00
Cu462  Cu    0.16667   0.78645   0.25000   0.00000  Uiso   1.00
H463   H     0.04980   0.90402   0.45087   0.00000  Uiso   1.00
H464   H     0.29863   0.73183   0.21386   0.00000  Uiso   1.00
H465   H     0.03385   0.94083   0.22938   0.00000  Uiso   1.00
H466   H     0.03469   0.93495   0.28600   0.00000  Uiso   1.00
H467   H     0.03307   0.84855   0.45744   0.00000  Uiso   1.00
H468   H     0.28351   0.90402   0.04911   0.00000  Uiso   1.00
H469   H     0.30026   0.84854   0.04256   0.00000  Uiso   1.00
H470   H     0.03393   0.72568   0.23022   0.00000  Uiso   1.00
H471   H     0.03478   0.73207   0.28678   0.00000  Uiso   1.00
H472   H     0.29937   0.94098   0.26987   0.00000  Uiso   1.00
H473   H     0.29855   0.93468   0.21329   0.00000  Uiso   1.00
H474   H     0.29951   0.72580   0.27046   0.00000  Uiso   1.00
N475   N     0.16667   0.95069   0.25000   0.00000  Uiso   1.00
N476   N     0.16667   0.71598   0.25000   0.00000  Uiso   1.00
N477   N     0.05672   0.86902   0.44637   0.00000  Uiso   1.00
N478   N     0.27661   0.86903   0.05361   0.00000  Uiso   1.00
N479   N     0.04248   0.74760   0.25682   0.00000  Uiso   1.00
N480   N     0.29084   0.91910   0.24322   0.00000  Uiso   1.00
N481   N     0.29093   0.74754   0.24373   0.00000  Uiso   1.00
N482   N     0.04241   0.91916   0.25617   0.00000  Uiso   1.00
O483   O     0.10655   0.87291   0.24999   0.00000  Uiso   1.00
O484   O     0.22679   0.79375   0.25001   0.00000  Uiso   1.00
O485   O     0.22679   0.87291   0.25000   0.00000  Uiso   1.00
O486   O     0.10655   0.79375   0.24999   0.00000  Uiso   1.00
O487   O     0.16666   0.87293   0.18513   0.00000  Uiso   1.00
O488   O     0.16668   0.79373   0.31487   0.00000  Uiso   1.00
O489   O     0.16668   0.87293   0.31487   0.00000  Uiso   1.00
O490   O     0.16666   0.79373   0.18513   0.00000  Uiso   1.00
Br491  Br    0.58659   0.82756   0.37827   0.00000  Uiso   1.00
Br492  Br    0.43995   0.94395   0.17675   0.00000  Uiso   1.00
Br493  Br    0.41341   0.82759   0.12173   0.00000  Uiso   1.00
Br494  Br    0.41463   0.82092   0.36842   0.00000  Uiso   1.00
Br495  Br    0.58538   0.82093   0.13159   0.00000  Uiso   1.00
Br496  Br    0.38294   0.89605   0.04408   0.00000  Uiso   1.00
Br497  Br    0.61704   0.89603   0.45590   0.00000  Uiso   1.00
Br498  Br    0.43975   0.72235   0.17708   0.00000  Uiso   1.00
Br499  Br    0.56014   0.94390   0.32316   0.00000  Uiso   1.00
Br500  Br    0.56017   0.72230   0.32300   0.00000  Uiso   1.00
C501   C     0.42081   0.83334   0.25078   0.00000  Uiso   1.00
C502   C     0.37610   0.83336   0.25159   0.00000  Uiso   1.00
C503   C     0.47533   0.69127   0.22018   0.00000  Uiso   1.00
C504   C     0.52466   0.97529   0.27986   0.00000  Uiso   1.00
C505   C     0.52466   0.69126   0.27982   0.00000  Uiso   1.00
C506   C     0.47535   0.97531   0.22013   0.00000  Uiso   1.00
C507   C     0.49972   0.83347   0.16449   0.00000  Uiso   1.00
C508   C     0.50029   0.83346   0.33551   0.00000  Uiso   1.00
C509   C     0.53735   0.84127   0.40854   0.00000  Uiso   1.00
C510   C     0.46265   0.84128   0.09146   0.00000  Uiso   1.00
C511   C     0.50034   0.83499   0.38408   0.00000  Uiso   1.00
C512   C     0.57919   0.83333   0.24921   0.00000  Uiso   1.00
C513   C     0.49966   0.83500   0.11592   0.00000  Uiso   1.00
C514   C     0.46310   0.83727   0.40456   0.00000  Uiso   1.00
C515   C     0.53690   0.83728   0.09544   0.00000  Uiso   1.00
C516   C     0.46258   0.84678   0.45088   0.00000  Uiso   1.00
C517   C     0.53742   0.84678   0.04912   0.00000  Uiso   1.00
C518   C     0.49999   0.84871   0.47640   0.00000  Uiso   1.00
C519   C     0.50001   0.84871   0.02360   0.00000  Uiso   1.00
C520   C     0.53734   0.85023   0.45494   0.00000  Uiso   1.00
C521   C     0.46266   0.85024   0.04506   0.00000  Uiso   1.00
C522   C     0.42649   0.85780   0.47228   0.00000  Uiso   1.00
C523   C     0.42714   0.86215   0.01910   0.00000  Uiso   1.00
C524   C     0.57351   0.85780   0.02772   0.00000  Uiso   1.00
C525   C     0.57285   0.86214   0.48089   0.00000  Uiso   1.00
C526   C     0.35459   0.79095   0.25174   0.00000  Uiso   1.00
C527   C     0.64540   0.87574   0.24826   0.00000  Uiso   1.00
C528   C     0.64544   0.79094   0.24852   0.00000  Uiso   1.00
C529   C     0.35456   0.87576   0.25146   0.00000  Uiso   1.00
C530   C     0.62390   0.83334   0.24840   0.00000  Uiso   1.00
Cu531  Cu    0.50000   0.88022   0.25000   0.00000  Uiso   1.00
Cu532  Cu    0.50000   0.78645   0.25000   0.00000  Uiso   1.00
H533   H     0.38314   0.90402   0.45087   0.00000  Uiso   1.00
H534   H     0.63197   0.73183   0.21386   0.00000  Uiso   1.00
H535   H     0.36719   0.94083   0.22938   0.00000  Uiso   1.00
H536   H     0.36803   0.93495   0.28600   0.00000  Uiso   1.00
H537   H     0.36640   0.84855   0.45744   0.00000  Uiso   1.00
H538   H     0.61685   0.90402   0.04911   0.00000  Uiso   1.00
H539   H     0.63360   0.84854   0.04256   0.00000  Uiso   1.00
H540   H     0.36727   0.72568   0.23022   0.00000  Uiso   1.00
H541   H     0.36811   0.73207   0.28678   0.00000  Uiso   1.00
H542   H     0.63270   0.94098   0.26987   0.00000  Uiso   1.00
H543   H     0.63189   0.93468   0.21329   0.00000  Uiso   1.00
H544   H     0.63284   0.72580   0.27046   0.00000  Uiso   1.00
N545   N     0.50000   0.95069   0.25000   0.00000  Uiso   1.00
N546   N     0.50000   0.71598   0.25000   0.00000  Uiso   1.00
N547   N     0.39005   0.86902   0.44637   0.00000  Uiso   1.00
N548   N     0.60994   0.86903   0.05361   0.00000  Uiso   1.00
N549   N     0.37581   0.74760   0.25682   0.00000  Uiso   1.00
N550   N     0.62418   0.91910   0.24322   0.00000  Uiso   1.00
N551   N     0.62426   0.74754   0.24373   0.00000  Uiso   1.00
N552   N     0.37575   0.91916   0.25617   0.00000  Uiso   1.00
O553   O     0.43988   0.87291   0.24999   0.00000  Uiso   1.00
O554   O     0.56012   0.79375   0.25001   0.00000  Uiso   1.00
O555   O     0.56012   0.87291   0.25000   0.00000  Uiso   1.00
O556   O     0.43988   0.79375   0.24999   0.00000  Uiso   1.00
O557   O     0.49999   0.87293   0.18513   0.00000  Uiso   1.00
O558   O     0.50001   0.79373   0.31487   0.00000  Uiso   1.00
O559   O     0.50001   0.87293   0.31487   0.00000  Uiso   1.00
O560   O     0.49999   0.79373   0.18513   0.00000  Uiso   1.00
Br561  Br    0.91993   0.82756   0.37827   0.00000  Uiso   1.00
Br562  Br    0.77328   0.94395   0.17675   0.00000  Uiso   1.00
Br563  Br    0.74674   0.82759   0.12173   0.00000  Uiso   1.00
Br564  Br    0.74796   0.82092   0.36842   0.00000  Uiso   1.00
Br565  Br    0.91871   0.82093   0.13159   0.00000  Uiso   1.00
Br566  Br    0.71627   0.89605   0.04408   0.00000  Uiso   1.00
Br567  Br    0.95038   0.89603   0.45590   0.00000  Uiso   1.00
Br568  Br    0.77308   0.72235   0.17708   0.00000  Uiso   1.00
Br569  Br    0.89347   0.94390   0.32316   0.00000  Uiso   1.00
Br570  Br    0.89350   0.72230   0.32300   0.00000  Uiso   1.00
C571   C     0.75414   0.83334   0.25078   0.00000  Uiso   1.00
C572   C     0.70943   0.83336   0.25159   0.00000  Uiso   1.00
C573   C     0.80866   0.69127   0.22018   0.00000  Uiso   1.00
C574   C     0.85799   0.97529   0.27986   0.00000  Uiso   1.00
C575   C     0.85800   0.69126   0.27982   0.00000  Uiso   1.00
C576   C     0.80868   0.97531   0.22013   0.00000  Uiso   1.00
C577   C     0.83305   0.83347   0.16449   0.00000  Uiso   1.00
C578   C     0.83362   0.83346   0.33551   0.00000  Uiso   1.00
C579   C     0.87069   0.84127   0.40854   0.00000  Uiso   1.00
C580   C     0.79598   0.84128   0.09146   0.00000  Uiso   1.00
C581   C     0.83368   0.83499   0.38408   0.00000  Uiso   1.00
C582   C     0.91253   0.83333   0.24921   0.00000  Uiso   1.00
C583   C     0.83299   0.83500   0.11592   0.00000  Uiso   1.00
C584   C     0.79643   0.83727   0.40456   0.00000  Uiso   1.00
C585   C     0.87024   0.83728   0.09544   0.00000  Uiso   1.00
C586   C     0.79591   0.84678   0.45088   0.00000  Uiso   1.00
C587   C     0.87076   0.84678   0.04912   0.00000  Uiso   1.00
C588   C     0.83332   0.84871   0.47640   0.00000  Uiso   1.00
C589   C     0.83334   0.84871   0.02360   0.00000  Uiso   1.00
C590   C     0.87067   0.85023   0.45494   0.00000  Uiso   1.00
C591   C     0.79599   0.85024   0.04506   0.00000  Uiso   1.00
C592   C     0.75982   0.85780   0.47228   0.00000  Uiso   1.00
C593   C     0.76047   0.86215   0.01910   0.00000  Uiso   1.00
C594   C     0.90684   0.85780   0.02772   0.00000  Uiso   1.00
C595   C     0.90619   0.86214   0.48089   0.00000  Uiso   1.00
C596   C     0.68793   0.79095   0.25174   0.00000  Uiso   1.00
C597   C     0.97874   0.87574   0.24826   0.00000  Uiso   1.00
C598   C     0.97877   0.79094   0.24852   0.00000  Uiso   1.00
C599   C     0.68789   0.87576   0.25146   0.00000  Uiso   1.00
C600   C     0.95723   0.83334   0.24840   0.00000  Uiso   1.00
Cu601  Cu    0.83333   0.88022   0.25000   0.00000  Uiso   1.00
Cu602  Cu    0.83333   0.78645   0.25000   0.00000  Uiso   1.00
H603   H     0.71647   0.90402   0.45087   0.00000  Uiso   1.00
H604   H     0.96530   0.73183   0.21386   0.00000  Uiso   1.00
H605   H     0.70052   0.94083   0.22938   0.00000  Uiso   1.00
H606   H     0.70136   0.93495   0.28600   0.00000  Uiso   1.00
H607   H     0.69974   0.84855   0.45744   0.00000  Uiso   1.00
H608   H     0.95018   0.90402   0.04911   0.00000  Uiso   1.00
H609   H     0.96693   0.84854   0.04256   0.00000  Uiso   1.00
H610   H     0.70060   0.72568   0.23022   0.00000  Uiso   1.00
H611   H     0.70145   0.73207   0.28678   0.00000  Uiso   1.00
H612   H     0.96603   0.94098   0.26987   0.00000  Uiso   1.00
H613   H     0.96522   0.93468   0.21329   0.00000  Uiso   1.00
H614   H     0.96617   0.72580   0.27046   0.00000  Uiso   1.00
N615   N     0.83333   0.95069   0.25000   0.00000  Uiso   1.00
N616   N     0.83333   0.71598   0.25000   0.00000  Uiso   1.00
N617   N     0.72339   0.86902   0.44637   0.00000  Uiso   1.00
N618   N     0.94327   0.86903   0.05361   0.00000  Uiso   1.00
N619   N     0.70915   0.74760   0.25682   0.00000  Uiso   1.00
N620   N     0.95751   0.91910   0.24322   0.00000  Uiso   1.00
N621   N     0.95759   0.74754   0.24373   0.00000  Uiso   1.00
N622   N     0.70908   0.91916   0.25617   0.00000  Uiso   1.00
O623   O     0.77321   0.87291   0.24999   0.00000  Uiso   1.00
O624   O     0.89345   0.79375   0.25001   0.00000  Uiso   1.00
O625   O     0.89345   0.87291   0.25000   0.00000  Uiso   1.00
O626   O     0.77321   0.79375   0.24999   0.00000  Uiso   1.00
O627   O     0.83332   0.87293   0.18513   0.00000  Uiso   1.00
O628   O     0.83334   0.79373   0.31487   0.00000  Uiso   1.00
O629   O     0.83334   0.87293   0.31487   0.00000  Uiso   1.00
O630   O     0.83332   0.79373   0.18513   0.00000  Uiso   1.00
Br631  Br    0.25326   0.16090   0.87827   0.00000  Uiso   1.00
Br632  Br    0.10662   0.27728   0.67675   0.00000  Uiso   1.00
Br633  Br    0.08008   0.16093   0.62173   0.00000  Uiso   1.00
Br634  Br    0.08130   0.15425   0.86842   0.00000  Uiso   1.00
Br635  Br    0.25204   0.15427   0.63159   0.00000  Uiso   1.00
Br636  Br    0.04961   0.22938   0.54408   0.00000  Uiso   1.00
Br637  Br    0.28371   0.22936   0.95590   0.00000  Uiso   1.00
Br638  Br    0.10641   0.05568   0.67708   0.00000  Uiso   1.00
Br639  Br    0.22681   0.27723   0.82316   0.00000  Uiso   1.00
Br640  Br    0.22683   0.05563   0.82300   0.00000  Uiso   1.00
C641   C     0.08747   0.16667   0.75078   0.00000  Uiso   1.00
C642   C     0.04277   0.16669   0.75159   0.00000  Uiso   1.00
C643   C     0.14199   0.02461   0.72018   0.00000  Uiso   1.00
C644   C     0.19133   0.30862   0.77986   0.00000  Uiso   1.00
C645   C     0.19133   0.02459   0.77982   0.00000  Uiso   1.00
C646   C     0.14202   0.30864   0.72013   0.00000  Uiso   1.00
C647   C     0.16638   0.16680   0.66449   0.00000  Uiso   1.00
C648   C     0.16695   0.16680   0.83551   0.00000  Uiso   1.00
C649   C     0.20402   0.17460   0.90854   0.00000  Uiso   1.00
C650   C     0.12931   0.17461   0.59146   0.00000  Uiso   1.00
C651   C     0.16701   0.16832   0.88408   0.00000  Uiso   1.00
C652   C     0.24586   0.16667   0.74921   0.00000  Uiso   1.00
C653   C     0.16632   0.16834   0.61592   0.00000  Uiso   1.00
C654   C     0.12977   0.17060   0.90456   0.00000  Uiso   1.00
C655   C     0.20357   0.17061   0.59544   0.00000  Uiso   1.00
C656   C     0.12924   0.18011   0.95088   0.00000  Uiso   1.00
C657   C     0.20409   0.18012   0.54912   0.00000  Uiso   1.00
C658   C     0.16666   0.18204   0.97640   0.00000  Uiso   1.00
C659   C     0.16668   0.18205   0.52360   0.00000  Uiso   1.00
C660   C     0.20401   0.18357   0.95494   0.00000  Uiso   1.00
C661   C     0.12932   0.18358   0.54506   0.00000  Uiso   1.00
C662   C     0.09316   0.19113   0.97228   0.00000  Uiso   1.00
C663   C     0.09381   0.19549   0.51910   0.00000  Uiso   1.00
C664   C     0.24017   0.19113   0.52772   0.00000  Uiso   1.00
C665   C     0.23952   0.19548   0.98089   0.00000  Uiso   1.00
C666   C     0.02126   0.12428   0.75174   0.00000  Uiso   1.00
C667   C     0.31207   0.20908   0.74826   0.00000  Uiso   1.00
C668   C     0.31211   0.12427   0.74852   0.00000  Uiso   1.00
C669   C     0.02123   0.20909   0.75146   0.00000  Uiso   1.00
C670   C     0.29057   0.16667   0.74840   0.00000  Uiso   1.00
Cu671  Cu    0.16667   0.21355   0.75000   0.00000  Uiso   1.00
Cu672  Cu    0.16667   0.11978   0.75000   0.00000  Uiso   1.00
H673   H     0.04980   0.23735   0.95087   0.00000  Uiso   1.00
H674   H     0.29863   0.06516   0.71386   0.00000  Uiso   1.00
H675   H     0.03385   0.27416   0.72938   0.00000  Uiso   1.00
H676   H     0.03469   0.26829   0.78600   0.00000  Uiso   1.00
H677   H     0.03307   0.18188   0.95744   0.00000  Uiso   1.00
H678   H     0.28351   0.23735   0.54911   0.00000  Uiso   1.00
H679   H     0.30026   0.18188   0.54256   0.00000  Uiso   1.00
H680   H     0.03393   0.05901   0.73022   0.00000  Uiso   1.00
H681   H     0.03478   0.06541   0.78678   0.00000  Uiso   1.00
H682   H     0.29937   0.27431   0.76987   0.00000  Uiso   1.00
H683   H     0.29855   0.26801   0.71329   0.00000  Uiso   1.00
H684   H     0.29951   0.05913   0.77046   0.00000  Uiso   1.00
N685   N     0.16667   0.28402   0.75000   0.00000  Uiso   1.00
N686   N     0.16667   0.04931   0.75000   0.00000  Uiso   1.00
N687   N     0.05672   0.20236   0.94637   0.00000  Uiso   1.00
N688   N     0.27661   0.20236   0.55361   0.00000  Uiso   1.00
N689   N     0.04248   0.08093   0.75682   0.00000  Uiso   1.00
N690   N     0.29084   0.25243   0.74322   0.00000  Uiso   1.00
N691   N     0.29093   0.08088   0.74373   0.00000  Uiso   1.00
N692   N     0.04241   0.25249   0.75617   0.00000  Uiso   1.00
O693   O     0.10655   0.20625   0.74999   0.00000  Uiso   1.00
O694   O     0.22679   0.12709   0.75001   0.00000  Uiso   1.00
O695   O     0.22679   0.20625   0.75000   0.00000  Uiso   1.00
O696   O     0.10655   0.12709   0.74999   0.00000  Uiso   1.00
O697   O     0.16666   0.20627   0.68513   0.00000  Uiso   1.00
O698   O     0.16668   0.12707   0.81487   0.00000  Uiso   1.00
O699   O     0.16668   0.20627   0.81487   0.00000  Uiso   1.00
O700   O     0.16666   0.12707   0.68513   0.00000  Uiso   1.00
Br701  Br    0.58659   0.16090   0.87827   0.00000  Uiso   1.00
Br702  Br    0.43995   0.27728   0.67675   0.00000  Uiso   1.00
Br703  Br    0.41341   0.16093   0.62173   0.00000  Uiso   1.00
Br704  Br    0.41463   0.15425   0.86842   0.00000  Uiso   1.00
Br705  Br    0.58538   0.15427   0.63159   0.00000  Uiso   1.00
Br706  Br    0.38294   0.22938   0.54408   0.00000  Uiso   1.00
Br707  Br    0.61704   0.22936   0.95590   0.00000  Uiso   1.00
Br708  Br    0.43975   0.05568   0.67708   0.00000  Uiso   1.00
Br709  Br    0.56014   0.27723   0.82316   0.00000  Uiso   1.00
Br710  Br    0.56017   0.05563   0.82300   0.00000  Uiso   1.00
C711   C     0.42081   0.16667   0.75078   0.00000  Uiso   1.00
C712   C     0.37610   0.16669   0.75159   0.00000  Uiso   1.00
C713   C     0.47533   0.02461   0.72018   0.00000  Uiso   1.00
C714   C     0.52466   0.30862   0.77986   0.00000  Uiso   1.00
C715   C     0.52466   0.02459   0.77982   0.00000  Uiso   1.00
C716   C     0.47535   0.30864   0.72013   0.00000  Uiso   1.00
C717   C     0.49972   0.16680   0.66449   0.00000  Uiso   1.00
C718   C     0.50029   0.16680   0.83551   0.00000  Uiso   1.00
C719   C     0.53735   0.17460   0.90854   0.00000  Uiso   1.00
C720   C     0.46265   0.17461   0.59146   0.00000  Uiso   1.00
C721   C     0.50034   0.16832   0.88408   0.00000  Uiso   1.00
C722   C     0.57919   0.16667   0.74921   0.00000  Uiso   1.00
C723   C     0.49966   0.16834   0.61592   0.00000  Uiso   1.00
C724   C     0.46310   0.17060   0.90456   0.00000  Uiso   1.00
C725   C     0.53690   0.17061   0.59544   0.00000  Uiso   1.00
C726   C     0.46258   0.18011   0.95088   0.00000  Uiso   1.00
C727   C     0.53742   0.18012   0.54912   0.00000  Uiso   1.00
C728   C     0.49999   0.18204   0.97640   0.00000  Uiso   1.00
C729   C     0.50001   0.18205   0.52360   0.00000  Uiso   1.00
C730   C     0.53734   0.18357   0.95494   0.00000  Uiso   1.00
C731   C     0.46266   0.18358   0.54506   0.00000  Uiso   1.00
C732   C     0.42649   0.19113   0.97228   0.00000  Uiso   1.00
C733   C     0.42714   0.19549   0.51910   0.00000  Uiso   1.00
C734   C     0.57351   0.19113   0.52772   0.00000  Uiso   1.00
C735   C     0.57285   0.19548   0.98089   0.00000  Uiso   1.00
C736   C     0.35459   0.12428   0.75174   0.00000  Uiso   1.00
C737   C     0.64540   0.20908   0.74826   0.00000  Uiso   1.00
C738   C     0.64544   0.12427   0.74852   0.00000  Uiso   1.00
C739   C     0.35456   0.20909   0.75146   0.00000  Uiso   1.00
C740   C     0.62390   0.16667   0.74840   0.00000  Uiso   1.00
Cu741  Cu    0.50000   0.21355   0.75000   0.00000  Uiso   1.00
Cu742  Cu    0.50000   0.11978   0.75000   0.00000  Uiso   1.00
H743   H     0.38314   0.23735   0.95087   0.00000  Uiso   1.00
H744   H     0.63197   0.06516   0.71386   0.00000  Uiso   1.00
H745   H     0.36719   0.27416   0.72938   0.00000  Uiso   1.00
H746   H     0.36803   0.26829   0.78600   0.00000  Uiso   1.00
H747   H     0.36640   0.18188   0.95744   0.00000  Uiso   1.00
H748   H     0.61685   0.23735   0.54911   0.00000  Uiso   1.00
H749   H     0.63360   0.18188   0.54256   0.00000  Uiso   1.00
H750   H     0.36727   0.05901   0.73022   0.00000  Uiso   1.00
H751   H     0.36811   0.06541   0.78678   0.00000  Uiso   1.00
H752   H     0.63270   0.27431   0.76987   0.00000  Uiso   1.00
H753   H     0.63189   0.26801   0.71329   0.00000  Uiso   1.00
H754   H     0.63284   0.05913   0.77046   0.00000  Uiso   1.00
N755   N     0.50000   0.28402   0.75000   0.00000  Uiso   1.00
N756   N     0.50000   0.04931   0.75000   0.00000  Uiso   1.00
N757   N     0.39005   0.20236   0.94637   0.00000  Uiso   1.00
N758   N     0.60994   0.20236   0.55361   0.00000  Uiso   1.00
N759   N     0.37581   0.08093   0.75682   0.00000  Uiso   1.00
N760   N     0.62418   0.25243   0.74322   0.00000  Uiso   1.00
N761   N     0.62426   0.08088   0.74373   0.00000  Uiso   1.00
N762   N     0.37575   0.25249   0.75617   0.00000  Uiso   1.00
O763   O     0.43988   0.20625   0.74999   0.00000  Uiso   1.00
O764   O     0.56012   0.12709   0.75001   0.00000  Uiso   1.00
O765   O     0.56012   0.20625   0.75000   0.00000  Uiso   1.00
O766   O     0.43988   0.12709   0.74999   0.00000  Uiso   1.00
O767   O     0.49999   0.20627   0.68513   0.00000  Uiso   1.00
O768   O     0.50001   0.12707   0.81487   0.00000  Uiso   1.00
O769   O     0.50001   0.20627   0.81487   0.00000  Uiso   1.00
O770   O     0.49999   0.12707   0.68513   0.00000  Uiso   1.00
Br771  Br    0.91993   0.16090   0.87827   0.00000  Uiso   1.00
Br772  Br    0.77328   0.27728   0.67675   0.00000  Uiso   1.00
Br773  Br    0.74674   0.16093   0.62173   0.00000  Uiso   1.00
Br774  Br    0.74796   0.15425   0.86842   0.00000  Uiso   1.00
Br775  Br    0.91871   0.15427   0.63159   0.00000  Uiso   1.00
Br776  Br    0.71627   0.22938   0.54408   0.00000  Uiso   1.00
Br777  Br    0.95038   0.22936   0.95590   0.00000  Uiso   1.00
Br778  Br    0.77308   0.05568   0.67708   0.00000  Uiso   1.00
Br779  Br    0.89347   0.27723   0.82316   0.00000  Uiso   1.00
Br780  Br    0.89350   0.05563   0.82300   0.00000  Uiso   1.00
C781   C     0.75414   0.16667   0.75078   0.00000  Uiso   1.00
C782   C     0.70943   0.16669   0.75159   0.00000  Uiso   1.00
C783   C     0.80866   0.02461   0.72018   0.00000  Uiso   1.00
C784   C     0.85799   0.30862   0.77986   0.00000  Uiso   1.00
C785   C     0.85800   0.02459   0.77982   0.00000  Uiso   1.00
C786   C     0.80868   0.30864   0.72013   0.00000  Uiso   1.00
C787   C     0.83305   0.16680   0.66449   0.00000  Uiso   1.00
C788   C     0.83362   0.16680   0.83551   0.00000  Uiso   1.00
C789   C     0.87069   0.17460   0.90854   0.00000  Uiso   1.00
C790   C     0.79598   0.17461   0.59146   0.00000  Uiso   1.00
C791   C     0.83368   0.16832   0.88408   0.00000  Uiso   1.00
C792   C     0.91253   0.16667   0.74921   0.00000  Uiso   1.00
C793   C     0.83299   0.16834   0.61592   0.00000  Uiso   1.00
C794   C     0.79643   0.17060   0.90456   0.00000  Uiso   1.00
C795   C     0.87024   0.17061   0.59544   0.00000  Uiso   1.00
C796   C     0.79591   0.18011   0.95088   0.00000  Uiso   1.00
C797   C     0.87076   0.18012   0.54912   0.00000  Uiso   1.00
C798   C     0.83332   0.18204   0.97640   0.00000  Uiso   1.00
C799   C     0.83334   0.18205   0.52360   0.00000  Uiso   1.00
C800   C     0.87067   0.18357   0.95494   0.00000  Uiso   1.00
C801   C     0.79599   0.18358   0.54506   0.00000  Uiso   1.00
C802   C     0.75982   0.19113   0.97228   0.00000  Uiso   1.00
C803   C     0.76047   0.19549   0.51910   0.00000  Uiso   1.00
C804   C     0.90684   0.19113   0.52772   0.00000  Uiso   1.00
C805   C     0.90619   0.19548   0.98089   0.00000  Uiso   1.00
C806   C     0.68793   0.12428   0.75174   0.00000  Uiso   1.00
C807   C     0.97874   0.20908   0.74826   0.00000  Uiso   1.00
C808   C     0.97877   0.12427   0.74852   0.00000  Uiso   1.00
C809   C     0.68789   0.20909   0.75146   0.00000  Uiso   1.00
C810   C     0.95723   0.16667   0.74840   0.00000  Uiso   1.00
Cu811  Cu    0.83333   0.21355   0.75000   0.00000  Uiso   1.00
Cu812  Cu    0.83333   0.11978   0.75000   0.00000  Uiso   1.00
H813   H     0.71647   0.23735   0.95087   0.00000  Uiso   1.00
H814   H     0.96530   0.06516   0.71386   0.00000  Uiso   1.00
H815   H     0.70052   0.27416   0.72938   0.00000  Uiso   1.00
H816   H     0.70136   0.26829   0.78600   0.00000  Uiso   1.00
H817   H     0.69974   0.18188   0.95744   0.00000  Uiso   1.00
H818   H     0.95018   0.23735   0.54911   0.00000  Uiso   1.00
H819   H     0.96693   0.18188   0.54256   0.00000  Uiso   1.00
H820   H     0.70060   0.05901   0.73022   0.00000  Uiso   1.00
H821   H     0.70145   0.06541   0.78678   0.00000  Uiso   1.00
H822   H     0.96603   0.27431   0.76987   0.00000  Uiso   1.00
H823   H     0.96522   0.26801   0.71329   0.00000  Uiso   1.00
H824   H     0.96617   0.05913   0.77046   0.00000  Uiso   1.00
N825   N     0.83333   0.28402   0.75000   0.00000  Uiso   1.00
N826   N     0.83333   0.04931   0.75000   0.00000  Uiso   1.00
N827   N     0.72339   0.20236   0.94637   0.00000  Uiso   1.00
N828   N     0.94327   0.20236   0.55361   0.00000  Uiso   1.00
N829   N     0.70915   0.08093   0.75682   0.00000  Uiso   1.00
N830   N     0.95751   0.25243   0.74322   0.00000  Uiso   1.00
N831   N     0.95759   0.08088   0.74373   0.00000  Uiso   1.00
N832   N     0.70908   0.25249   0.75617   0.00000  Uiso   1.00
O833   O     0.77321   0.20625   0.74999   0.00000  Uiso   1.00
O834   O     0.89345   0.12709   0.75001   0.00000  Uiso   1.00
O835   O     0.89345   0.20625   0.75000   0.00000  Uiso   1.00
O836   O     0.77321   0.12709   0.74999   0.00000  Uiso   1.00
O837   O     0.83332   0.20627   0.68513   0.00000  Uiso   1.00
O838   O     0.83334   0.12707   0.81487   0.00000  Uiso   1.00
O839   O     0.83334   0.20627   0.81487   0.00000  Uiso   1.00
O840   O     0.83332   0.12707   0.68513   0.00000  Uiso   1.00
Br841  Br    0.25326   0.49423   0.87827   0.00000  Uiso   1.00
Br842  Br    0.10662   0.61061   0.67675   0.00000  Uiso   1.00
Br843  Br    0.08008   0.49426   0.62173   0.00000  Uiso   1.00
Br844  Br    0.08130   0.48758   0.86842   0.00000  Uiso   1.00
Br845  Br    0.25204   0.48760   0.63159   0.00000  Uiso   1.00
Br846  Br    0.04961   0.56272   0.54408   0.00000  Uiso   1.00
Br847  Br    0.28371   0.56270   0.95590   0.00000  Uiso   1.00
Br848  Br    0.10641   0.38901   0.67708   0.00000  Uiso   1.00
Br849  Br    0.22681   0.61056   0.82316   0.00000  Uiso   1.00
Br850  Br    0.22683   0.38896   0.82300   0.00000  Uiso   1.00
C851   C     0.08747   0.50001   0.75078   0.00000  Uiso   1.00
C852   C     0.04277   0.50002   0.75159   0.00000  Uiso   1.00
C853   C     0.14199   0.35794   0.72018   0.00000  Uiso   1.00
C854   C     0.19133   0.64195   0.77986   0.00000  Uiso   1.00
C855   C     0.19133   0.35792   0.77982   0.00000  Uiso   1.00
C856   C     0.14202   0.64197   0.72013   0.00000  Uiso   1.00
C857   C     0.16638   0.50014   0.66449   0.00000  Uiso   1.00
C858   C     0.16695   0.50013   0.83551   0.00000  Uiso   1.00
C859   C     0.20402   0.50793   0.90854   0.00000  Uiso   1.00
C860   C     0.12931   0.50795   0.59146   0.00000  Uiso   1.00
C861   C     0.16701   0.50166   0.88408   0.00000  Uiso   1.00
C862   C     0.24586   0.50000   0.74921   0.00000  Uiso   1.00
C863   C     0.16632   0.50167   0.61592   0.00000  Uiso   1.00
C864   C     0.12977   0.50394   0.90456   0.00000  Uiso   1.00
C865   C     0.20357   0.50395   0.59544   0.00000  Uiso   1.00
C866   C     0.12924   0.51345   0.95088   0.00000  Uiso   1.00
C867   C     0.20409   0.51345   0.54912   0.00000  Uiso   1.00
C868   C     0.16666   0.51538   0.97640   0.00000  Uiso   1.00
C869   C     0.16668   0.51538   0.52360   0.00000  Uiso   1.00
C870   C     0.20401   0.51690   0.95494   0.00000  Uiso   1.00
C871   C     0.12932   0.51691   0.54506   0.00000  Uiso   1.00
C872   C     0.09316   0.52446   0.97228   0.00000  Uiso   1.00
C873   C     0.09381   0.52882   0.51910   0.00000  Uiso   1.00
C874   C     0.24017   0.52446   0.52772   0.00000  Uiso   1.00
C875   C     0.23952   0.52881   0.98089   0.00000  Uiso   1.00
C876   C     0.02126   0.45762   0.75174   0.00000  Uiso   1.00
C877   C     0.31207   0.54241   0.74826   0.00000  Uiso   1.00
C878   C     0.31211   0.45760   0.74852   0.00000  Uiso   1.00
C879   C     0.02123   0.54243   0.75146   0.00000  Uiso   1.00
C880   C     0.29057   0.50000   0.74840   0.00000  Uiso   1.00
Cu881  Cu    0.16667   0.54689   0.75000   0.00000  Uiso   1.00
Cu882  Cu    0.16667   0.45311   0.75000   0.00000  Uiso   1.00
H883   H     0.04980   0.57068   0.95087   0.00000  Uiso   1.00
H884   H     0.29863   0.39849   0.71386   0.00000  Uiso   1.00
H885   H     0.03385   0.60750   0.72938   0.00000  Uiso   1.00
H886   H     0.03469   0.60162   0.78600   0.00000  Uiso   1.00
H887   H     0.03307   0.51521   0.95744   0.00000  Uiso   1.00
H888   H     0.28351   0.57068   0.54911   0.00000  Uiso   1.00
H889   H     0.30026   0.51521   0.54256   0.00000  Uiso   1.00
H890   H     0.03393   0.39234   0.73022   0.00000  Uiso   1.00
H891   H     0.03478   0.39874   0.78678   0.00000  Uiso   1.00
H892   H     0.29937   0.60765   0.76987   0.00000  Uiso   1.00
H893   H     0.29855   0.60134   0.71329   0.00000  Uiso   1.00
H894   H     0.29951   0.39247   0.77046   0.00000  Uiso   1.00
N895   N     0.16667   0.61736   0.75000   0.00000  Uiso   1.00
N896   N     0.16667   0.38264   0.75000   0.00000  Uiso   1.00
N897   N     0.05672   0.53569   0.94637   0.00000  Uiso   1.00
N898   N     0.27661   0.53569   0.55361   0.00000  Uiso   1.00
N899   N     0.04248   0.41426   0.75682   0.00000  Uiso   1.00
N900   N     0.29084   0.58577   0.74322   0.00000  Uiso   1.00
N901   N     0.29093   0.41421   0.74373   0.00000  Uiso   1.00
N902   N     0.04241   0.58582   0.75617   0.00000  Uiso   1.00
O903   O     0.10655   0.53958   0.74999   0.00000  Uiso   1.00
O904   O     0.22679   0.46042   0.75001   0.00000  Uiso   1.00
O905   O     0.22679   0.53958   0.75000   0.00000  Uiso   1.00
O906   O     0.10655   0.46042   0.74999   0.00000  Uiso   1.00
O907   O     0.16666   0.53960   0.68513   0.00000  Uiso   1.00
O908   O     0.16668   0.46040   0.81487   0.00000  Uiso   1.00
O909   O     0.16668   0.53960   0.81487   0.00000  Uiso   1.00
O910   O     0.16666   0.46040   0.68513   0.00000  Uiso   1.00
Br911  Br    0.58659   0.49423   0.87827   0.00000  Uiso   1.00
Br912  Br    0.43995   0.61061   0.67675   0.00000  Uiso   1.00
Br913  Br    0.41341   0.49426   0.62173   0.00000  Uiso   1.00
Br914  Br    0.41463   0.48758   0.86842   0.00000  Uiso   1.00
Br915  Br    0.58538   0.48760   0.63159   0.00000  Uiso   1.00
Br916  Br    0.38294   0.56272   0.54408   0.00000  Uiso   1.00
Br917  Br    0.61704   0.56270   0.95590   0.00000  Uiso   1.00
Br918  Br    0.43975   0.38901   0.67708   0.00000  Uiso   1.00
Br919  Br    0.56014   0.61056   0.82316   0.00000  Uiso   1.00
Br920  Br    0.56017   0.38896   0.82300   0.00000  Uiso   1.00
C921   C     0.42081   0.50001   0.75078   0.00000  Uiso   1.00
C922   C     0.37610   0.50002   0.75159   0.00000  Uiso   1.00
C923   C     0.47533   0.35794   0.72018   0.00000  Uiso   1.00
C924   C     0.52466   0.64195   0.77986   0.00000  Uiso   1.00
C925   C     0.52466   0.35792   0.77982   0.00000  Uiso   1.00
C926   C     0.47535   0.64197   0.72013   0.00000  Uiso   1.00
C927   C     0.49972   0.50014   0.66449   0.00000  Uiso   1.00
C928   C     0.50029   0.50013   0.83551   0.00000  Uiso   1.00
C929   C     0.53735   0.50793   0.90854   0.00000  Uiso   1.00
C930   C     0.46265   0.50795   0.59146   0.00000  Uiso   1.00
C931   C     0.50034   0.50166   0.88408   0.00000  Uiso   1.00
C932   C     0.57919   0.50000   0.74921   0.00000  Uiso   1.00
C933   C     0.49966   0.50167   0.61592   0.00000  Uiso   1.00
C934   C     0.46310   0.50394   0.90456   0.00000  Uiso   1.00
C935   C     0.53690   0.50395   0.59544   0.00000  Uiso   1.00
C936   C     0.46258   0.51345   0.95088   0.00000  Uiso   1.00
C937   C     0.53742   0.51345   0.54912   0.00000  Uiso   1.00
C938   C     0.49999   0.51538   0.97640   0.00000  Uiso   1.00
C939   C     0.50001   0.51538   0.52360   0.00000  Uiso   1.00
C940   C     0.53734   0.51690   0.95494   0.00000  Uiso   1.00
C941   C     0.46266   0.51691   0.54506   0.00000  Uiso   1.00
C942   C     0.42649   0.52446   0.97228   0.00000  Uiso   1.00
C943   C     0.42714   0.52882   0.51910   0.00000  Uiso   1.00
C944   C     0.57351   0.52446   0.52772   0.00000  Uiso   1.00
C945   C     0.57285   0.52881   0.98089   0.00000  Uiso   1.00
C946   C     0.35459   0.45762   0.75174   0.00000  Uiso   1.00
C947   C     0.64540   0.54241   0.74826   0.00000  Uiso   1.00
C948   C     0.64544   0.45760   0.74852   0.00000  Uiso   1.00
C949   C     0.35456   0.54243   0.75146   0.00000  Uiso   1.00
C950   C     0.62390   0.50000   0.74840   0.00000  Uiso   1.00
Cu951  Cu    0.50000   0.54689   0.75000   0.00000  Uiso   1.00
Cu952  Cu    0.50000   0.45311   0.75000   0.00000  Uiso   1.00
H953   H     0.38314   0.57068   0.95087   0.00000  Uiso   1.00
H954   H     0.63197   0.39849   0.71386   0.00000  Uiso   1.00
H955   H     0.36719   0.60750   0.72938   0.00000  Uiso   1.00
H956   H     0.36803   0.60162   0.78600   0.00000  Uiso   1.00
H957   H     0.36640   0.51521   0.95744   0.00000  Uiso   1.00
H958   H     0.61685   0.57068   0.54911   0.00000  Uiso   1.00
H959   H     0.63360   0.51521   0.54256   0.00000  Uiso   1.00
H960   H     0.36727   0.39234   0.73022   0.00000  Uiso   1.00
H961   H     0.36811   0.39874   0.78678   0.00000  Uiso   1.00
H962   H     0.63270   0.60765   0.76987   0.00000  Uiso   1.00
H963   H     0.63189   0.60134   0.71329   0.00000  Uiso   1.00
H964   H     0.63284   0.39247   0.77046   0.00000  Uiso   1.00
N965   N     0.50000   0.61736   0.75000   0.00000  Uiso   1.00
N966   N     0.50000   0.38264   0.75000   0.00000  Uiso   1.00
N967   N     0.39005   0.53569   0.94637   0.00000  Uiso   1.00
N968   N     0.60994   0.53569   0.55361   0.00000  Uiso   1.00
N969   N     0.37581   0.41426   0.75682   0.00000  Uiso   1.00
N970   N     0.62418   0.58577   0.74322   0.00000  Uiso   1.00
N971   N     0.62426   0.41421   0.74373   0.00000  Uiso   1.00
N972   N     0.37575   0.58582   0.75617   0.00000  Uiso   1.00
O973   O     0.43988   0.53958   0.74999   0.00000  Uiso   1.00
O974   O     0.56012   0.46042   0.75001   0.00000  Uiso   1.00
O975   O     0.56012   0.53958   0.75000   0.00000  Uiso   1.00
O976   O     0.43988   0.46042   0.74999   0.00000  Uiso   1.00
O977   O     0.49999   0.53960   0.68513   0.00000  Uiso   1.00
O978   O     0.50001   0.46040   0.81487   0.00000  Uiso   1.00
O979   O     0.50001   0.53960   0.81487   0.00000  Uiso   1.00
O980   O     0.49999   0.46040   0.68513   0.00000  Uiso   1.00
Br981  Br    0.91993   0.49423   0.87827   0.00000  Uiso   1.00
Br982  Br    0.77328   0.61061   0.67675   0.00000  Uiso   1.00
Br983  Br    0.74674   0.49426   0.62173   0.00000  Uiso   1.00
Br984  Br    0.74796   0.48758   0.86842   0.00000  Uiso   1.00
Br985  Br    0.91871   0.48760   0.63159   0.00000  Uiso   1.00
Br986  Br    0.71627   0.56272   0.54408   0.00000  Uiso   1.00
Br987  Br    0.95038   0.56270   0.95590   0.00000  Uiso   1.00
Br988  Br    0.77308   0.38901   0.67708   0.00000  Uiso   1.00
Br989  Br    0.89347   0.61056   0.82316   0.00000  Uiso   1.00
Br990  Br    0.89350   0.38896   0.82300   0.00000  Uiso   1.00
C991   C     0.75414   0.50001   0.75078   0.00000  Uiso   1.00
C992   C     0.70943   0.50002   0.75159   0.00000  Uiso   1.00
C993   C     0.80866   0.35794   0.72018   0.00000  Uiso   1.00
C994   C     0.85799   0.64195   0.77986   0.00000  Uiso   1.00
C995   C     0.85800   0.35792   0.77982   0.00000  Uiso   1.00
C996   C     0.80868   0.64197   0.72013   0.00000  Uiso   1.00
C997   C     0.83305   0.50014   0.66449   0.00000  Uiso   1.00
C998   C     0.83362   0.50013   0.83551   0.00000  Uiso   1.00
C999   C     0.87069   0.50793   0.90854   0.00000  Uiso   1.00
C1000  C     0.79598   0.50795   0.59146   0.00000  Uiso   1.00
C1001  C     0.83368   0.50166   0.88408   0.00000  Uiso   1.00
C1002  C     0.91253   0.50000   0.74921   0.00000  Uiso   1.00
C1003  C     0.83299   0.50167   0.61592   0.00000  Uiso   1.00
C1004  C     0.79643   0.50394   0.90456   0.00000  Uiso   1.00
C1005  C     0.87024   0.50395   0.59544   0.00000  Uiso   1.00
C1006  C     0.79591   0.51345   0.95088   0.00000  Uiso   1.00
C1007  C     0.87076   0.51345   0.54912   0.00000  Uiso   1.00
C1008  C     0.83332   0.51538   0.97640   0.00000  Uiso   1.00
C1009  C     0.83334   0.51538   0.52360   0.00000  Uiso   1.00
C1010  C     0.87067   0.51690   0.95494   0.00000  Uiso   1.00
C1011  C     0.79599   0.51691   0.54506   0.00000  Uiso   1.00
C1012  C     0.75982   0.52446   0.97228   0.00000  Uiso   1.00
C1013  C     0.76047   0.52882   0.51910   0.00000  Uiso   1.00
C1014  C     0.90684   0.52446   0.52772   0.00000  Uiso   1.00
C1015  C     0.90619   0.52881   0.98089   0.00000  Uiso   1.00
C1016  C     0.68793   0.45762   0.75174   0.00000  Uiso   1.00
C1017  C     0.97874   0.54241   0.74826   0.00000  Uiso   1.00
C1018  C     0.97877   0.45760   0.74852   0.00000  Uiso   1.00
C1019  C     0.68789   0.54243   0.75146   0.00000  Uiso   1.00
C1020  C     0.95723   0.50000   0.74840   0.00000  Uiso   1.00
Cu1021 Cu    0.83333   0.54689   0.75000   0.00000  Uiso   1.00
Cu1022 Cu    0.83333   0.45311   0.75000   0.00000  Uiso   1.00
H1023  H     0.71647   0.57068   0.95087   0.00000  Uiso   1.00
H1024  H     0.96530   0.39849   0.71386   0.00000  Uiso   1.00
H1025  H     0.70052   0.60750   0.72938   0.00000  Uiso   1.00
H1026  H     0.70136   0.60162   0.78600   0.00000  Uiso   1.00
H1027  H     0.69974   0.51521   0.95744   0.00000  Uiso   1.00
H1028  H     0.95018   0.57068   0.54911   0.00000  Uiso   1.00
H1029  H     0.96693   0.51521   0.54256   0.00000  Uiso   1.00
H1030  H     0.70060   0.39234   0.73022   0.00000  Uiso   1.00
H1031  H     0.70145   0.39874   0.78678   0.00000  Uiso   1.00
H1032  H     0.96603   0.60765   0.76987   0.00000  Uiso   1.00
H1033  H     0.96522   0.60134   0.71329   0.00000  Uiso   1.00
H1034  H     0.96617   0.39247   0.77046   0.00000  Uiso   1.00
N1035  N     0.83333   0.61736   0.75000   0.00000  Uiso   1.00
N1036  N     0.83333   0.38264   0.75000   0.00000  Uiso   1.00
N1037  N     0.72339   0.53569   0.94637   0.00000  Uiso   1.00
N1038  N     0.94327   0.53569   0.55361   0.00000  Uiso   1.00
N1039  N     0.70915   0.41426   0.75682   0.00000  Uiso   1.00
N1040  N     0.95751   0.58577   0.74322   0.00000  Uiso   1.00
N1041  N     0.95759   0.41421   0.74373   0.00000  Uiso   1.00
N1042  N     0.70908   0.58582   0.75617   0.00000  Uiso   1.00
O1043  O     0.77321   0.53958   0.74999   0.00000  Uiso   1.00
O1044  O     0.89345   0.46042   0.75001   0.00000  Uiso   1.00
O1045  O     0.89345   0.53958   0.75000   0.00000  Uiso   1.00
O1046  O     0.77321   0.46042   0.74999   0.00000  Uiso   1.00
O1047  O     0.83332   0.53960   0.68513   0.00000  Uiso   1.00
O1048  O     0.83334   0.46040   0.81487   0.00000  Uiso   1.00
O1049  O     0.83334   0.53960   0.81487   0.00000  Uiso   1.00
O1050  O     0.83332   0.46040   0.68513   0.00000  Uiso   1.00
Br1051 Br    0.25326   0.82756   0.87827   0.00000  Uiso   1.00
Br1052 Br    0.10662   0.94395   0.67675   0.00000  Uiso   1.00
Br1053 Br    0.08008   0.82759   0.62173   0.00000  Uiso   1.00
Br1054 Br    0.08130   0.82092   0.86842   0.00000  Uiso   1.00
Br1055 Br    0.25204   0.82093   0.63159   0.00000  Uiso   1.00
Br1056 Br    0.04961   0.89605   0.54408   0.00000  Uiso   1.00
Br1057 Br    0.28371   0.89603   0.95590   0.00000  Uiso   1.00
Br1058 Br    0.10641   0.72235   0.67708   0.00000  Uiso   1.00
Br1059 Br    0.22681   0.94390   0.82316   0.00000  Uiso   1.00
Br1060 Br    0.22683   0.72230   0.82300   0.00000  Uiso   1.00
C1061  C     0.08747   0.83334   0.75078   0.00000  Uiso   1.00
C1062  C     0.04277   0.83336   0.75159   0.00000  Uiso   1.00
C1063  C     0.14199   0.69127   0.72018   0.00000  Uiso   1.00
C1064  C     0.19133   0.97529   0.77986   0.00000  Uiso   1.00
C1065  C     0.19133   0.69126   0.77982   0.00000  Uiso   1.00
C1066  C     0.14202   0.97531   0.72013   0.00000  Uiso   1.00
C1067  C     0.16638   0.83347   0.66449   0.00000  Uiso   1.00
C1068  C     0.16695   0.83346   0.83551   0.00000  Uiso   1.00
C1069  C     0.20402   0.84127   0.90854   0.00000  Uiso   1.00
C1070  C     0.12931   0.84128   0.59146   0.00000  Uiso   1.00
C1071  C     0.16701   0.83499   0.88408   0.00000  Uiso   1.00
C1072  C     0.24586   0.83333   0.74921   0.00000  Uiso   1.00
C1073  C     0.16632   0.83500   0.61592   0.00000  Uiso   1.00
C1074  C     0.12977   0.83727   0.90456   0.00000  Uiso   1.00
C1075  C     0.20357   0.83728   0.59544   0.00000  Uiso   1.00
C1076  C     0.12924   0.84678   0.95088   0.00000  Uiso   1.00
C1077  C     0.20409   0.84678   0.54912   0.00000  Uiso   1.00
C1078  C     0.16666   0.84871   0.97640   0.00000  Uiso   1.00
C1079  C     0.16668   0.84871   0.52360   0.00000  Uiso   1.00
C1080  C     0.20401   0.85023   0.95494   0.00000  Uiso   1.00
C1081  C     0.12932   0.85024   0.54506   0.00000  Uiso   1.00
C1082  C     0.09316   0.85780   0.97228   0.00000  Uiso   1.00
C1083  C     0.09381   0.86215   0.51910   0.00000  Uiso   1.00
C1084  C     0.24017   0.85780   0.52772   0.00000  Uiso   1.00
C1085  C     0.23952   0.86214   0.98089   0.00000  Uiso   1.00
C1086  C     0.02126   0.79095   0.75174   0.00000  Uiso   1.00
C1087  C     0.31207   0.87574   0.74826   0.00000  Uiso   1.00
C1088  C     0.31211   0.79094   0.74852   0.00000  Uiso   1.00
C1089  C     0.02123   0.87576   0.75146   0.00000  Uiso   1.00
C1090  C     0.29057   0.83334   0.74840   0.00000  Uiso   1.00
Cu1091 Cu    0.16667   0.88022   0.75000   0.00000  Uiso   1.00
Cu1092 Cu    0.16667   0.78645   0.75000   0.00000  Uiso   1.00
H1093  H     0.04980   0.90402   0.95087   0.00000  Uiso   1.00
H1094  H     0.29863   0.73183   0.71386   0.00000  Uiso   1.00
H1095  H     0.03385   0.94083   0.72938   0.00000  Uiso   1.00
H1096  H     0.03469   0.93495   0.78600   0.00000  Uiso   1.00
H1097  H     0.03307   0.84855   0.95744   0.00000  Uiso   1.00
H1098  H     0.28351   0.90402   0.54911   0.00000  Uiso   1.00
H1099  H     0.30026   0.84854   0.54256   0.00000  Uiso   1.00
H1100  H     0.03393   0.72568   0.73022   0.00000  Uiso   1.00
H1101  H     0.03478   0.73207   0.78678   0.00000  Uiso   1.00
H1102  H     0.29937   0.94098   0.76987   0.00000  Uiso   1.00
H1103  H     0.29855   0.93468   0.71329   0.00000  Uiso   1.00
H1104  H     0.29951   0.72580   0.77046   0.00000  Uiso   1.00
N1105  N     0.16667   0.95069   0.75000   0.00000  Uiso   1.00
N1106  N     0.16667   0.71598   0.75000   0.00000  Uiso   1.00
N1107  N     0.05672   0.86902   0.94637   0.00000  Uiso   1.00
N1108  N     0.27661   0.86903   0.55361   0.00000  Uiso   1.00
N1109  N     0.04248   0.74760   0.75682   0.00000  Uiso   1.00
N1110  N     0.29084   0.91910   0.74322   0.00000  Uiso   1.00
N1111  N     0.29093   0.74754   0.74373   0.00000  Uiso   1.00
N1112  N     0.04241   0.91916   0.75617   0.00000  Uiso   1.00
O1113  O     0.10655   0.87291   0.74999   0.00000  Uiso   1.00
O1114  O     0.22679   0.79375   0.75001   0.00000  Uiso   1.00
O1115  O     0.22679   0.87291   0.75000   0.00000  Uiso   1.00
O1116  O     0.10655   0.79375   0.74999   0.00000  Uiso   1.00
O1117  O     0.16666   0.87293   0.68513   0.00000  Uiso   1.00
O1118  O     0.16668   0.79373   0.81487   0.00000  Uiso   1.00
O1119  O     0.16668   0.87293   0.81487   0.00000  Uiso   1.00
O1120  O     0.16666   0.79373   0.68513   0.00000  Uiso   1.00
Br1121 Br    0.58659   0.82756   0.87827   0.00000  Uiso   1.00
Br1122 Br    0.43995   0.94395   0.67675   0.00000  Uiso   1.00
Br1123 Br    0.41341   0.82759   0.62173   0.00000  Uiso   1.00
Br1124 Br    0.41463   0.82092   0.86842   0.00000  Uiso   1.00
Br1125 Br    0.58538   0.82093   0.63159   0.00000  Uiso   1.00
Br1126 Br    0.38294   0.89605   0.54408   0.00000  Uiso   1.00
Br1127 Br    0.61704   0.89603   0.95590   0.00000  Uiso   1.00
Br1128 Br    0.43975   0.72235   0.67708   0.00000  Uiso   1.00
Br1129 Br    0.56014   0.94390   0.82316   0.00000  Uiso   1.00
Br1130 Br    0.56017   0.72230   0.82300   0.00000  Uiso   1.00
C1131  C     0.42081   0.83334   0.75078   0.00000  Uiso   1.00
C1132  C     0.37610   0.83336   0.75159   0.00000  Uiso   1.00
C1133  C     0.47533   0.69127   0.72018   0.00000  Uiso   1.00
C1134  C     0.52466   0.97529   0.77986   0.00000  Uiso   1.00
C1135  C     0.52466   0.69126   0.77982   0.00000  Uiso   1.00
C1136  C     0.47535   0.97531   0.72013   0.00000  Uiso   1.00
C1137  C     0.49972   0.83347   0.66449   0.00000  Uiso   1.00
C1138  C     0.50029   0.83346   0.83551   0.00000  Uiso   1.00
C1139  C     0.53735   0.84127   0.90854   0.00000  Uiso   1.00
C1140  C     0.46265   0.84128   0.59146   0.00000  Uiso   1.00
C1141  C     0.50034   0.83499   0.88408   0.00000  Uiso   1.00
C1142  C     0.57919   0.83333   0.74921   0.00000  Uiso   1.00
C1143  C     0.49966   0.83500   0.61592   0.00000  Uiso   1.00
C1144  C     0.46310   0.83727   0.90456   0.00000  Uiso   1.00
C1145  C     0.53690   0.83728   0.59544   0.00000  Uiso   1.00
C1146  C     0.46258   0.84678   0.95088   0.00000  Uiso   1.00
C1147  C     0.53742   0.84678   0.54912   0.00000  Uiso   1.00
C1148  C     0.49999   0.84871   0.97640   0.00000  Uiso   1.00
C1149  C     0.50001   0.84871   0.52360   0.00000  Uiso   1.00
C1150  C     0.53734   0.85023   0.95494   0.00000  Uiso   1.00
C1151  C     0.46266   0.85024   0.54506   0.00000  Uiso   1.00
C1152  C     0.42649   0.85780   0.97228   0.00000  Uiso   1.00
C1153  C     0.42714   0.86215   0.51910   0.00000  Uiso   1.00
C1154  C     0.57351   0.85780   0.52772   0.00000  Uiso   1.00
C1155  C     0.57285   0.86214   0.98089   0.00000  Uiso   1.00
C1156  C     0.35459   0.79095   0.75174   0.00000  Uiso   1.00
C1157  C     0.64540   0.87574   0.74826   0.00000  Uiso   1.00
C1158  C     0.64544   0.79094   0.74852   0.00000  Uiso   1.00
C1159  C     0.35456   0.87576   0.75146   0.00000  Uiso   1.00
C1160  C     0.62390   0.83334   0.74840   0.00000  Uiso   1.00
Cu1161 Cu    0.50000   0.88022   0.75000   0.00000  Uiso   1.00
Cu1162 Cu    0.50000   0.78645   0.75000   0.00000  Uiso   1.00
H1163  H     0.38314   0.90402   0.95087   0.00000  Uiso   1.00
H1164  H     0.63197   0.73183   0.71386   0.00000  Uiso   1.00
H1165  H     0.36719   0.94083   0.72938   0.00000  Uiso   1.00
H1166  H     0.36803   0.93495   0.78600   0.00000  Uiso   1.00
H1167  H     0.36640   0.84855   0.95744   0.00000  Uiso   1.00
H1168  H     0.61685   0.90402   0.54911   0.00000  Uiso   1.00
H1169  H     0.63360   0.84854   0.54256   0.00000  Uiso   1.00
H1170  H     0.36727   0.72568   0.73022   0.00000  Uiso   1.00
H1171  H     0.36811   0.73207   0.78678   0.00000  Uiso   1.00
H1172  H     0.63270   0.94098   0.76987   0.00000  Uiso   1.00
H1173  H     0.63189   0.93468   0.71329   0.00000  Uiso   1.00
H1174  H     0.63284   0.72580   0.77046   0.00000  Uiso   1.00
N1175  N     0.50000   0.95069   0.75000   0.00000  Uiso   1.00
N1176  N     0.50000   0.71598   0.75000   0.00000  Uiso   1.00
N1177  N     0.39005   0.86902   0.94637   0.00000  Uiso   1.00
N1178  N     0.60994   0.86903   0.55361   0.00000  Uiso   1.00
N1179  N     0.37581   0.74760   0.75682   0.00000  Uiso   1.00
N1180  N     0.62418   0.91910   0.74322   0.00000  Uiso   1.00
N1181  N     0.62426   0.74754   0.74373   0.00000  Uiso   1.00
N1182  N     0.37575   0.91916   0.75617   0.00000  Uiso   1.00
O1183  O     0.43988   0.87291   0.74999   0.00000  Uiso   1.00
O1184  O     0.56012   0.79375   0.75001   0.00000  Uiso   1.00
O1185  O     0.56012   0.87291   0.75000   0.00000  Uiso   1.00
O1186  O     0.43988   0.79375   0.74999   0.00000  Uiso   1.00
O1187  O     0.49999   0.87293   0.68513   0.00000  Uiso   1.00
O1188  O     0.50001   0.79373   0.81487   0.00000  Uiso   1.00
O1189  O     0.50001   0.87293   0.81487   0.00000  Uiso   1.00
O1190  O     0.49999   0.79373   0.68513   0.00000  Uiso   1.00
Br1191 Br    0.91993   0.82756   0.87827   0.00000  Uiso   1.00
Br1192 Br    0.77328   0.94395   0.67675   0.00000  Uiso   1.00
Br1193 Br    0.74674   0.82759   0.62173   0.00000  Uiso   1.00
Br1194 Br    0.74796   0.82092   0.86842   0.00000  Uiso   1.00
Br1195 Br    0.91871   0.82093   0.63159   0.00000  Uiso   1.00
Br1196 Br    0.71627   0.89605   0.54408   0.00000  Uiso   1.00
Br1197 Br    0.95038   0.89603   0.95590   0.00000  Uiso   1.00
Br1198 Br    0.77308   0.72235   0.67708   0.00000  Uiso   1.00
Br1199 Br    0.89347   0.94390   0.82316   0.00000  Uiso   1.00
Br1200 Br    0.89350   0.72230   0.82300   0.00000  Uiso   1.00
C1201  C     0.75414   0.83334   0.75078   0.00000  Uiso   1.00
C1202  C     0.70943   0.83336   0.75159   0.00000  Uiso   1.00
C1203  C     0.80866   0.69127   0.72018   0.00000  Uiso   1.00
C1204  C     0.85799   0.97529   0.77986   0.00000  Uiso   1.00
C1205  C     0.85800   0.69126   0.77982   0.00000  Uiso   1.00
C1206  C     0.80868   0.97531   0.72013   0.00000  Uiso   1.00
C1207  C     0.83305   0.83347   0.66449   0.00000  Uiso   1.00
C1208  C     0.83362   0.83346   0.83551   0.00000  Uiso   1.00
C1209  C     0.87069   0.84127   0.90854   0.00000  Uiso   1.00
C1210  C     0.79598   0.84128   0.59146   0.00000  Uiso   1.00
C1211  C     0.83368   0.83499   0.88408   0.00000  Uiso   1.00
C1212  C     0.91253   0.83333   0.74921   0.00000  Uiso   1.00
C1213  C     0.83299   0.83500   0.61592   0.00000  Uiso   1.00
C1214  C     0.79643   0.83727   0.90456   0.00000  Uiso   1.00
C1215  C     0.87024   0.83728   0.59544   0.00000  Uiso   1.00
C1216  C     0.79591   0.84678   0.95088   0.00000  Uiso   1.00
C1217  C     0.87076   0.84678   0.54912   0.00000  Uiso   1.00
C1218  C     0.83332   0.84871   0.97640   0.00000  Uiso   1.00
C1219  C     0.83334   0.84871   0.52360   0.00000  Uiso   1.00
C1220  C     0.87067   0.85023   0.95494   0.00000  Uiso   1.00
C1221  C     0.79599   0.85024   0.54506   0.00000  Uiso   1.00
C1222  C     0.75982   0.85780   0.97228   0.00000  Uiso   1.00
C1223  C     0.76047   0.86215   0.51910   0.00000  Uiso   1.00
C1224  C     0.90684   0.85780   0.52772   0.00000  Uiso   1.00
C1225  C     0.90619   0.86214   0.98089   0.00000  Uiso   1.00
C1226  C     0.68793   0.79095   0.75174   0.00000  Uiso   1.00
C1227  C     0.97874   0.87574   0.74826   0.00000  Uiso   1.00
C1228  C     0.97877   0.79094   0.74852   0.00000  Uiso   1.00
C1229  C     0.68789   0.87576   0.75146   0.00000  Uiso   1.00
C1230  C     0.95723   0.83334   0.74840   0.00000  Uiso   1.00
Cu1231 Cu    0.83333   0.88022   0.75000   0.00000  Uiso   1.00
Cu1232 Cu    0.83333   0.78645   0.75000   0.00000  Uiso   1.00
H1233  H     0.71647   0.90402   0.95087   0.00000  Uiso   1.00
H1234  H     0.96530   0.73183   0.71386   0.00000  Uiso   1.00
H1235  H     0.70052   0.94083   0.72938   0.00000  Uiso   1.00
H1236  H     0.70136   0.93495   0.78600   0.00000  Uiso   1.00
H1237  H     0.69974   0.84855   0.95744   0.00000  Uiso   1.00
H1238  H     0.95018   0.90402   0.54911   0.00000  Uiso   1.00
H1239  H     0.96693   0.84854   0.54256   0.00000  Uiso   1.00
H1240  H     0.70060   0.72568   0.73022   0.00000  Uiso   1.00
H1241  H     0.70145   0.73207   0.78678   0.00000  Uiso   1.00
H1242  H     0.96603   0.94098   0.76987   0.00000  Uiso   1.00
H1243  H     0.96522   0.93468   0.71329   0.00000  Uiso   1.00
H1244  H     0.96617   0.72580   0.77046   0.00000  Uiso   1.00
N1245  N     0.83333   0.95069   0.75000   0.00000  Uiso   1.00
N1246  N     0.83333   0.71598   0.75000   0.00000  Uiso   1.00
N1247  N     0.72339   0.86902   0.94637   0.00000  Uiso   1.00
N1248  N     0.94327   0.86903   0.55361   0.00000  Uiso   1.00
N1249  N     0.70915   0.74760   0.75682   0.00000  Uiso   1.00
N1250  N     0.95751   0.91910   0.74322   0.00000  Uiso   1.00
N1251  N     0.95759   0.74754   0.74373   0.00000  Uiso   1.00
N1252  N     0.70908   0.91916   0.75617   0.00000  Uiso   1.00
O1253  O     0.77321   0.87291   0.74999   0.00000  Uiso   1.00
O1254  O     0.89345   0.79375   0.75001   0.00000  Uiso   1.00
O1255  O     0.89345   0.87291   0.75000   0.00000  Uiso   1.00
O1256  O     0.77321   0.79375   0.74999   0.00000  Uiso   1.00
O1257  O     0.83332   0.87293   0.68513   0.00000  Uiso   1.00
O1258  O     0.83334   0.79373   0.81487   0.00000  Uiso   1.00
O1259  O     0.83334   0.87293   0.81487   0.00000  Uiso   1.00
O1260  O     0.83332   0.79373   0.68513   0.00000  Uiso   1.00
loop_
_geom_bond_atom_site_label_1
_geom_bond_atom_site_label_2
_geom_bond_distance
_geom_bond_site_symmetry_2
_ccdc_geom_bond_type
Br1    C19     1.940   .     S
Br2    C16     1.927   .     S
Br3    C20     1.940   .     S
Br4    C24     1.942   .     S
Br5    C25     1.942   .     S
Br6    C33     1.936   .     S
Br7    C35     1.936   .     S
Br8    C13     1.921   .     S
Br9    C14     1.927   .     S
Br10   C15     1.921   .     S
C11    O66     1.304   .     A
C11    C12     1.475   .     S
C11    O63     1.304   .     A
C12    C39     1.414   .     A
C12    C36     1.414   .     A
C13    N56     1.376   .     A
C13    C436    1.422   1_545 S
C14    N55     1.375   .     A
C14    C225    1.422   .     S
C15    N56     1.376   .     A
C15    C434    1.422   1_545 S
C16    N55     1.375   .     A
C16    C223    1.422   .     S
C17    C23     1.454   .     S
C17    O70     1.302   .     A
C17    O67     1.295   .     A
C18    C21     1.454   .     S
C18    O68     1.302   .     A
C18    O69     1.295   .     A
C19    C21     1.403   .     A
C19    C30     1.413   .     A
C20    C23     1.403   .     A
C20    C31     1.413   .     A
C21    C24     1.402   .     A
C22    O65     1.304   .     A
C22    C40     1.475   .     S
C22    O64     1.304   .     A
C23    C25     1.402   .     A
C24    C26     1.414   .     A
C25    C27     1.414   .     A
C26    C28     1.419   .     A
C26    C32     1.416   .     A
C27    C34     1.416   .     A
C27    C29     1.419   .     A
C28    C30     1.418   .     A
C28    C659    1.413   .     S
C29    C31     1.418   .     A
C29    C658    1.413   1_554 S
C30    C35     1.414   .     A
C31    C33     1.414   .     A
C32    N57     1.433   .     S
C32    C663    1.406   .     S
C33    C662    1.406   1_554 S
C34    N58     1.433   .     S
C34    C665    1.406   1_554 S
C35    C664    1.406   .     S
C36    N59     1.437   .     S
C36    C178    1.399   1_455 S
C37    C40     1.414   .     A
C37    N60     1.437   .     S
C37    C109    1.399   .     S
C38    C40     1.414   .     A
C38    N61     1.437   .     S
C38    C106    1.399   .     S
C39    N62     1.437   .     S
C39    C177    1.399   1_455 S
Cu41   Cu42    2.705   .     S
Cu41   O69     1.953   .     S
Cu41   O63     1.993   .     S
Cu41   O67     1.953   .     S
Cu41   N55     2.033   .     S
Cu41   O65     1.993   .     S
Cu42   O68     1.953   .     S
Cu42   O64     1.993   .     S
Cu42   O70     1.953   .     S
Cu42   N56     2.033   .     S
Cu42   O66     1.993   .     S
H43    N57     1.045   .     S
H44    N61     1.045   .     S
H45    N62     1.044   .     S
H46    N62     1.045   .     S
H47    N57     1.046   .     S
H48    N58     1.045   .     S
H49    N58     1.046   .     S
H50    N59     1.044   .     S
H51    N59     1.045   .     S
H52    N60     1.044   .     S
H53    N60     1.045   .     S
H54    N61     1.044   .     S
Br71   C89     1.940   .     S
Br72   C86     1.927   .     S
Br73   C90     1.940   .     S
Br74   C94     1.942   .     S
Br75   C95     1.942   .     S
Br76   C103    1.936   .     S
Br77   C105    1.936   .     S
Br78   C83     1.921   .     S
Br79   C84     1.927   .     S
Br80   C85     1.921   .     S
C81    O136    1.304   .     A
C81    C82     1.475   .     S
C81    O133    1.304   .     A
C82    C109    1.414   .     A
C82    C106    1.414   .     A
C83    N126    1.376   .     A
C83    C506    1.422   1_545 S
C84    N125    1.375   .     A
C84    C295    1.422   .     S
C85    N126    1.376   .     A
C85    C504    1.422   1_545 S
C86    N125    1.375   .     A
C86    C293    1.422   .     S
C87    C93     1.454   .     S
C87    O140    1.302   .     A
C87    O137    1.295   .     A
C88    C91     1.454   .     S
C88    O138    1.302   .     A
C88    O139    1.295   .     A
C89    C91     1.403   .     A
C89    C100    1.413   .     A
C90    C93     1.403   .     A
C90    C101    1.413   .     A
C91    C94     1.402   .     A
C92    O135    1.304   .     A
C92    C110    1.475   .     S
C92    O134    1.304   .     A
C93    C95     1.402   .     A
C94    C96     1.414   .     A
C95    C97     1.414   .     A
C96    C98     1.419   .     A
C96    C102    1.416   .     A
C97    C104    1.416   .     A
C97    C99     1.419   .     A
C98    C100    1.418   .     A
C98    C729    1.413   .     S
C99    C101    1.418   .     A
C99    C728    1.413   1_554 S
C100   C105    1.414   .     A
C101   C103    1.414   .     A
C102   N127    1.433   .     S
C102   C733    1.406   .     S
C103   C732    1.406   1_554 S
C104   N128    1.433   .     S
C104   C735    1.406   1_554 S
C105   C734    1.406   .     S
C106   N129    1.437   .     S
C107   C110    1.414   .     A
C107   N130    1.437   .     S
C107   C179    1.399   .     S
C108   C110    1.414   .     A
C108   N131    1.437   .     S
C108   C176    1.399   .     S
C109   N132    1.437   .     S
Cu111  Cu112   2.705   .     S
Cu111  O139    1.953   .     S
Cu111  O133    1.993   .     S
Cu111  O137    1.953   .     S
Cu111  N125    2.033   .     S
Cu111  O135    1.993   .     S
Cu112  O138    1.953   .     S
Cu112  O134    1.993   .     S
Cu112  O140    1.953   .     S
Cu112  N126    2.033   .     S
Cu112  O136    1.993   .     S
H113   N127    1.045   .     S
H114   N131    1.045   .     S
H115   N132    1.044   .     S
H116   N132    1.045   .     S
H117   N127    1.046   .     S
H118   N128    1.045   .     S
H119   N128    1.046   .     S
H120   N129    1.044   .     S
H121   N129    1.045   .     S
H122   N130    1.044   .     S
H123   N130    1.045   .     S
H124   N131    1.044   .     S
Br141  C159    1.940   .     S
Br142  C156    1.927   .     S
Br143  C160    1.940   .     S
Br144  C164    1.942   .     S
Br145  C165    1.942   .     S
Br146  C173    1.936   .     S
Br147  C175    1.936   .     S
Br148  C153    1.921   .     S
Br149  C154    1.927   .     S
Br150  C155    1.921   .     S
C151   O206    1.304   .     A
C151   C152    1.475   .     S
C151   O203    1.304   .     A
C152   C179    1.414   .     A
C152   C176    1.414   .     A
C153   N196    1.376   .     A
C153   C576    1.422   1_545 S
C154   N195    1.375   .     A
C154   C365    1.422   .     S
C155   N196    1.376   .     A
C155   C574    1.422   1_545 S
C156   N195    1.375   .     A
C156   C363    1.422   .     S
C157   C163    1.454   .     S
C157   O210    1.302   .     A
C157   O207    1.295   .     A
C158   C161    1.454   .     S
C158   O208    1.302   .     A
C158   O209    1.295   .     A
C159   C161    1.403   .     A
C159   C170    1.413   .     A
C160   C163    1.403   .     A
C160   C171    1.413   .     A
C161   C164    1.402   .     A
C162   O205    1.304   .     A
C162   C180    1.475   .     S
C162   O204    1.304   .     A
C163   C165    1.402   .     A
C164   C166    1.414   .     A
C165   C167    1.414   .     A
C166   C168    1.419   .     A
C166   C172    1.416   .     A
C167   C174    1.416   .     A
C167   C169    1.419   .     A
C168   C170    1.418   .     A
C168   C799    1.413   .     S
C169   C171    1.418   .     A
C169   C798    1.413   1_554 S
C170   C175    1.414   .     A
C171   C173    1.414   .     A
C172   N197    1.433   .     S
C172   C803    1.406   .     S
C173   C802    1.406   1_554 S
C174   N198    1.433   .     S
C174   C805    1.406   1_554 S
C175   C804    1.406   .     S
C176   N199    1.437   .     S
C177   C180    1.414   .     A
C177   N200    1.437   .     S
C177   C39     1.399   1_655 S
C178   C180    1.414   .     A
C178   N201    1.437   .     S
C178   C36     1.399   1_655 S
C179   N202    1.437   .     S
Cu181  Cu182   2.705   .     S
Cu181  O209    1.953   .     S
Cu181  O203    1.993   .     S
Cu181  O207    1.953   .     S
Cu181  N195    2.033   .     S
Cu181  O205    1.993   .     S
Cu182  O208    1.953   .     S
Cu182  O204    1.993   .     S
Cu182  O210    1.953   .     S
Cu182  N196    2.033   .     S
Cu182  O206    1.993   .     S
H183   N197    1.045   .     S
H184   N201    1.045   .     S
H185   N202    1.044   .     S
H186   N202    1.045   .     S
H187   N197    1.046   .     S
H188   N198    1.045   .     S
H189   N198    1.046   .     S
H190   N199    1.044   .     S
H191   N199    1.045   .     S
H192   N200    1.044   .     S
H193   N200    1.045   .     S
H194   N201    1.044   .     S
Br211  C229    1.940   .     S
Br212  C226    1.927   .     S
Br213  C230    1.940   .     S
Br214  C234    1.942   .     S
Br215  C235    1.942   .     S
Br216  C243    1.936   .     S
Br217  C245    1.936   .     S
Br218  C223    1.921   .     S
Br219  C224    1.927   .     S
Br220  C225    1.921   .     S
C221   O276    1.304   .     A
C221   C222    1.475   .     S
C221   O273    1.304   .     A
C222   C249    1.414   .     A
C222   C246    1.414   .     A
C223   N266    1.376   .     A
C224   N265    1.375   .     A
C224   C435    1.422   .     S
C225   N266    1.376   .     A
C226   N265    1.375   .     A
C226   C433    1.422   .     S
C227   C233    1.454   .     S
C227   O280    1.302   .     A
C227   O277    1.295   .     A
C228   C231    1.454   .     S
C228   O278    1.302   .     A
C228   O279    1.295   .     A
C229   C231    1.403   .     A
C229   C240    1.413   .     A
C230   C233    1.403   .     A
C230   C241    1.413   .     A
C231   C234    1.402   .     A
C232   O275    1.304   .     A
C232   C250    1.475   .     S
C232   O274    1.304   .     A
C233   C235    1.402   .     A
C234   C236    1.414   .     A
C235   C237    1.414   .     A
C236   C238    1.419   .     A
C236   C242    1.416   .     A
C237   C244    1.416   .     A
C237   C239    1.419   .     A
C238   C240    1.418   .     A
C238   C869    1.413   .     S
C239   C241    1.418   .     A
C239   C868    1.413   1_554 S
C240   C245    1.414   .     A
C241   C243    1.414   .     A
C242   N267    1.433   .     S
C242   C873    1.406   .     S
C243   C872    1.406   1_554 S
C244   N268    1.433   .     S
C244   C875    1.406   1_554 S
C245   C874    1.406   .     S
C246   N269    1.437   .     S
C246   C388    1.399   1_455 S
C247   C250    1.414   .     A
C247   N270    1.437   .     S
C247   C319    1.399   .     S
C248   C250    1.414   .     A
C248   N271    1.437   .     S
C248   C316    1.399   .     S
C249   N272    1.437   .     S
C249   C387    1.399   1_455 S
Cu251  Cu252   2.705   .     S
Cu251  O279    1.953   .     S
Cu251  O273    1.993   .     S
Cu251  O277    1.953   .     S
Cu251  N265    2.033   .     S
Cu251  O275    1.993   .     S
Cu252  O278    1.953   .     S
Cu252  O274    1.993   .     S
Cu252  O280    1.953   .     S
Cu252  N266    2.033   .     S
Cu252  O276    1.993   .     S
H253   N267    1.045   .     S
H254   N271    1.045   .     S
H255   N272    1.044   .     S
H256   N272    1.045   .     S
H257   N267    1.046   .     S
H258   N268    1.045   .     S
H259   N268    1.046   .     S
H260   N269    1.044   .     S
H261   N269    1.045   .     S
H262   N270    1.044   .     S
H263   N270    1.045   .     S
H264   N271    1.044   .     S
Br281  C299    1.940   .     S
Br282  C296    1.927   .     S
Br283  C300    1.940   .     S
Br284  C304    1.942   .     S
Br285  C305    1.942   .     S
Br286  C313    1.936   .     S
Br287  C315    1.936   .     S
Br288  C293    1.921   .     S
Br289  C294    1.927   .     S
Br290  C295    1.921   .     S
C291   O346    1.304   .     A
C291   C292    1.475   .     S
C291   O343    1.304   .     A
C292   C319    1.414   .     A
C292   C316    1.414   .     A
C293   N336    1.376   .     A
C294   N335    1.375   .     A
C294   C505    1.422   .     S
C295   N336    1.376   .     A
C296   N335    1.375   .     A
C296   C503    1.422   .     S
C297   C303    1.454   .     S
C297   O350    1.302   .     A
C297   O347    1.295   .     A
C298   C301    1.454   .     S
C298   O348    1.302   .     A
C298   O349    1.295   .     A
C299   C301    1.403   .     A
C299   C310    1.413   .     A
C300   C303    1.403   .     A
C300   C311    1.413   .     A
C301   C304    1.402   .     A
C302   O345    1.304   .     A
C302   C320    1.475   .     S
C302   O344    1.304   .     A
C303   C305    1.402   .     A
C304   C306    1.414   .     A
C305   C307    1.414   .     A
C306   C308    1.419   .     A
C306   C312    1.416   .     A
C307   C314    1.416   .     A
C307   C309    1.419   .     A
C308   C310    1.418   .     A
C308   C939    1.413   .     S
C309   C311    1.418   .     A
C309   C938    1.413   1_554 S
C310   C315    1.414   .     A
C311   C313    1.414   .     A
C312   N337    1.433   .     S
C312   C943    1.406   .     S
C313   C942    1.406   1_554 S
C314   N338    1.433   .     S
C314   C945    1.406   1_554 S
C315   C944    1.406   .     S
C316   N339    1.437   .     S
C317   C320    1.414   .     A
C317   N340    1.437   .     S
C317   C389    1.399   .     S
C318   C320    1.414   .     A
C318   N341    1.437   .     S
C318   C386    1.399   .     S
C319   N342    1.437   .     S
Cu321  Cu322   2.705   .     S
Cu321  O349    1.953   .     S
Cu321  O343    1.993   .     S
Cu321  O347    1.953   .     S
Cu321  N335    2.033   .     S
Cu321  O345    1.993   .     S
Cu322  O348    1.953   .     S
Cu322  O344    1.993   .     S
Cu322  O350    1.953   .     S
Cu322  N336    2.033   .     S
Cu322  O346    1.993   .     S
H323   N337    1.045   .     S
H324   N341    1.045   .     S
H325   N342    1.044   .     S
H326   N342    1.045   .     S
H327   N337    1.046   .     S
H328   N338    1.045   .     S
H329   N338    1.046   .     S
H330   N339    1.044   .     S
H331   N339    1.045   .     S
H332   N340    1.044   .     S
H333   N340    1.045   .     S
H334   N341    1.044   .     S
Br351  C369    1.940   .     S
Br352  C366    1.927   .     S
Br353  C370    1.940   .     S
Br354  C374    1.942   .     S
Br355  C375    1.942   .     S
Br356  C383    1.936   .     S
Br357  C385    1.936   .     S
Br358  C363    1.921   .     S
Br359  C364    1.927   .     S
Br360  C365    1.921   .     S
C361   O416    1.304   .     A
C361   C362    1.475   .     S
C361   O413    1.304   .     A
C362   C389    1.414   .     A
C362   C386    1.414   .     A
C363   N406    1.376   .     A
C364   N405    1.375   .     A
C364   C575    1.422   .     S
C365   N406    1.376   .     A
C366   N405    1.375   .     A
C366   C573    1.422   .     S
C367   C373    1.454   .     S
C367   O420    1.302   .     A
C367   O417    1.295   .     A
C368   C371    1.454   .     S
C368   O418    1.302   .     A
C368   O419    1.295   .     A
C369   C371    1.403   .     A
C369   C380    1.413   .     A
C370   C373    1.403   .     A
C370   C381    1.413   .     A
C371   C374    1.402   .     A
C372   O415    1.304   .     A
C372   C390    1.475   .     S
C372   O414    1.304   .     A
C373   C375    1.402   .     A
C374   C376    1.414   .     A
C375   C377    1.414   .     A
C376   C378    1.419   .     A
C376   C382    1.416   .     A
C377   C384    1.416   .     A
C377   C379    1.419   .     A
C378   C380    1.418   .     A
C378   C1009   1.413   .     S
C379   C381    1.418   .     A
C379   C1008   1.413   1_554 S
C380   C385    1.414   .     A
C381   C383    1.414   .     A
C382   N407    1.433   .     S
C382   C1013   1.406   .     S
C383   C1012   1.406   1_554 S
C384   N408    1.433   .     S
C384   C1015   1.406   1_554 S
C385   C1014   1.406   .     S
C386   N409    1.437   .     S
C387   C390    1.414   .     A
C387   N410    1.437   .     S
C387   C249    1.399   1_655 S
C388   C390    1.414   .     A
C388   N411    1.437   .     S
C388   C246    1.399   1_655 S
C389   N412    1.437   .     S
Cu391  Cu392   2.705   .     S
Cu391  O419    1.953   .     S
Cu391  O413    1.993   .     S
Cu391  O417    1.953   .     S
Cu391  N405    2.033   .     S
Cu391  O415    1.993   .     S
Cu392  O418    1.953   .     S
Cu392  O414    1.993   .     S
Cu392  O420    1.953   .     S
Cu392  N406    2.033   .     S
Cu392  O416    1.993   .     S
H393   N407    1.045   .     S
H394   N411    1.045   .     S
H395   N412    1.044   .     S
H396   N412    1.045   .     S
H397   N407    1.046   .     S
H398   N408    1.045   .     S
H399   N408    1.046   .     S
H400   N409    1.044   .     S
H401   N409    1.045   .     S
H402   N410    1.044   .     S
H403   N410    1.045   .     S
H404   N411    1.044   .     S
Br421  C439    1.940   .     S
Br422  C436    1.927   .     S
Br423  C440    1.940   .     S
Br424  C444    1.942   .     S
Br425  C445    1.942   .     S
Br426  C453    1.936   .     S
Br427  C455    1.936   .     S
Br428  C433    1.921   .     S
Br429  C434    1.927   .     S
Br430  C435    1.921   .     S
C431   O486    1.304   .     A
C431   C432    1.475   .     S
C431   O483    1.304   .     A
C432   C459    1.414   .     A
C432   C456    1.414   .     A
C433   N476    1.376   .     A
C434   N475    1.375   .     A
C434   C15     1.422   1_565 S
C435   N476    1.376   .     A
C436   N475    1.375   .     A
C436   C13     1.422   1_565 S
C437   C443    1.454   .     S
C437   O490    1.302   .     A
C437   O487    1.295   .     A
C438   C441    1.454   .     S
C438   O488    1.302   .     A
C438   O489    1.295   .     A
C439   C441    1.403   .     A
C439   C450    1.413   .     A
C440   C443    1.403   .     A
C440   C451    1.413   .     A
C441   C444    1.402   .     A
C442   O485    1.304   .     A
C442   C460    1.475   .     S
C442   O484    1.304   .     A
C443   C445    1.402   .     A
C444   C446    1.414   .     A
C445   C447    1.414   .     A
C446   C448    1.419   .     A
C446   C452    1.416   .     A
C447   C454    1.416   .     A
C447   C449    1.419   .     A
C448   C450    1.418   .     A
C448   C1079   1.413   .     S
C449   C451    1.418   .     A
C449   C1078   1.413   1_554 S
C450   C455    1.414   .     A
C451   C453    1.414   .     A
C452   N477    1.433   .     S
C452   C1083   1.406   .     S
C453   C1082   1.406   1_554 S
C454   N478    1.433   .     S
C454   C1085   1.406   1_554 S
C455   C1084   1.406   .     S
C456   N479    1.437   .     S
C456   C598    1.399   1_455 S
C457   C460    1.414   .     A
C457   N480    1.437   .     S
C457   C529    1.399   .     S
C458   C460    1.414   .     A
C458   N481    1.437   .     S
C458   C526    1.399   .     S
C459   N482    1.437   .     S
C459   C597    1.399   1_455 S
Cu461  Cu462   2.705   .     S
Cu461  O489    1.953   .     S
Cu461  O483    1.993   .     S
Cu461  O487    1.953   .     S
Cu461  N475    2.033   .     S
Cu461  O485    1.993   .     S
Cu462  O488    1.953   .     S
Cu462  O484    1.993   .     S
Cu462  O490    1.953   .     S
Cu462  N476    2.033   .     S
Cu462  O486    1.993   .     S
H463   N477    1.045   .     S
H464   N481    1.045   .     S
H465   N482    1.044   .     S
H466   N482    1.045   .     S
H467   N477    1.046   .     S
H468   N478    1.045   .     S
H469   N478    1.046   .     S
H470   N479    1.044   .     S
H471   N479    1.045   .     S
H472   N480    1.044   .     S
H473   N480    1.045   .     S
H474   N481    1.044   .     S
Br491  C509    1.940   .     S
Br492  C506    1.927   .     S
Br493  C510    1.940   .     S
Br494  C514    1.942   .     S
Br495  C515    1.942   .     S
Br496  C523    1.936   .     S
Br497  C525    1.936   .     S
Br498  C503    1.921   .     S
Br499  C504    1.927   .     S
Br500  C505    1.921   .     S
C501   O556    1.304   .     A
C501   C502    1.475   .     S
C501   O553    1.304   .     A
C502   C529    1.414   .     A
C502   C526    1.414   .     A
C503   N546    1.376   .     A
C504   N545    1.375   .     A
C504   C85     1.422   1_565 S
C505   N546    1.376   .     A
C506   N545    1.375   .     A
C506   C83     1.422   1_565 S
C507   C513    1.454   .     S
C507   O560    1.302   .     A
C507   O557    1.295   .     A
C508   C511    1.454   .     S
C508   O558    1.302   .     A
C508   O559    1.295   .     A
C509   C511    1.403   .     A
C509   C520    1.413   .     A
C510   C513    1.403   .     A
C510   C521    1.413   .     A
C511   C514    1.402   .     A
C512   O555    1.304   .     A
C512   C530    1.475   .     S
C512   O554    1.304   .     A
C513   C515    1.402   .     A
C514   C516    1.414   .     A
C515   C517    1.414   .     A
C516   C518    1.419   .     A
C516   C522    1.416   .     A
C517   C524    1.416   .     A
C517   C519    1.419   .     A
C518   C520    1.418   .     A
C518   C1149   1.413   .     S
C519   C521    1.418   .     A
C519   C1148   1.413   1_554 S
C520   C525    1.414   .     A
C521   C523    1.414   .     A
C522   N547    1.433   .     S
C522   C1153   1.406   .     S
C523   C1152   1.406   1_554 S
C524   N548    1.433   .     S
C524   C1155   1.406   1_554 S
C525   C1154   1.406   .     S
C526   N549    1.437   .     S
C527   C530    1.414   .     A
C527   N550    1.437   .     S
C527   C599    1.399   .     S
C528   C530    1.414   .     A
C528   N551    1.437   .     S
C528   C596    1.399   .     S
C529   N552    1.437   .     S
Cu531  Cu532   2.705   .     S
Cu531  O559    1.953   .     S
Cu531  O553    1.993   .     S
Cu531  O557    1.953   .     S
Cu531  N545    2.033   .     S
Cu531  O555    1.993   .     S
Cu532  O558    1.953   .     S
Cu532  O554    1.993   .     S
Cu532  O560    1.953   .     S
Cu532  N546    2.033   .     S
Cu532  O556    1.993   .     S
H533   N547    1.045   .     S
H534   N551    1.045   .     S
H535   N552    1.044   .     S
H536   N552    1.045   .     S
H537   N547    1.046   .     S
H538   N548    1.045   .     S
H539   N548    1.046   .     S
H540   N549    1.044   .     S
H541   N549    1.045   .     S
H542   N550    1.044   .     S
H543   N550    1.045   .     S
H544   N551    1.044   .     S
Br561  C579    1.940   .     S
Br562  C576    1.927   .     S
Br563  C580    1.940   .     S
Br564  C584    1.942   .     S
Br565  C585    1.942   .     S
Br566  C593    1.936   .     S
Br567  C595    1.936   .     S
Br568  C573    1.921   .     S
Br569  C574    1.927   .     S
Br570  C575    1.921   .     S
C571   O626    1.304   .     A
C571   C572    1.475   .     S
C571   O623    1.304   .     A
C572   C599    1.414   .     A
C572   C596    1.414   .     A
C573   N616    1.376   .     A
C574   N615    1.375   .     A
C574   C155    1.422   1_565 S
C575   N616    1.376   .     A
C576   N615    1.375   .     A
C576   C153    1.422   1_565 S
C577   C583    1.454   .     S
C577   O630    1.302   .     A
C577   O627    1.295   .     A
C578   C581    1.454   .     S
C578   O628    1.302   .     A
C578   O629    1.295   .     A
C579   C581    1.403   .     A
C579   C590    1.413   .     A
C580   C583    1.403   .     A
C580   C591    1.413   .     A
C581   C584    1.402   .     A
C582   O625    1.304   .     A
C582   C600    1.475   .     S
C582   O624    1.304   .     A
C583   C585    1.402   .     A
C584   C586    1.414   .     A
C585   C587    1.414   .     A
C586   C588    1.419   .     A
C586   C592    1.416   .     A
C587   C594    1.416   .     A
C587   C589    1.419   .     A
C588   C590    1.418   .     A
C588   C1219   1.413   .     S
C589   C591    1.418   .     A
C589   C1218   1.413   1_554 S
C590   C595    1.414   .     A
C591   C593    1.414   .     A
C592   N617    1.433   .     S
C592   C1223   1.406   .     S
C593   C1222   1.406   1_554 S
C594   N618    1.433   .     S
C594   C1225   1.406   1_554 S
C595   C1224   1.406   .     S
C596   N619    1.437   .     S
C597   C600    1.414   .     A
C597   N620    1.437   .     S
C597   C459    1.399   1_655 S
C598   C600    1.414   .     A
C598   N621    1.437   .     S
C598   C456    1.399   1_655 S
C599   N622    1.437   .     S
Cu601  Cu602   2.705   .     S
Cu601  O629    1.953   .     S
Cu601  O623    1.993   .     S
Cu601  O627    1.953   .     S
Cu601  N615    2.033   .     S
Cu601  O625    1.993   .     S
Cu602  O628    1.953   .     S
Cu602  O624    1.993   .     S
Cu602  O630    1.953   .     S
Cu602  N616    2.033   .     S
Cu602  O626    1.993   .     S
H603   N617    1.045   .     S
H604   N621    1.045   .     S
H605   N622    1.044   .     S
H606   N622    1.045   .     S
H607   N617    1.046   .     S
H608   N618    1.045   .     S
H609   N618    1.046   .     S
H610   N619    1.044   .     S
H611   N619    1.045   .     S
H612   N620    1.044   .     S
H613   N620    1.045   .     S
H614   N621    1.044   .     S
Br631  C649    1.940   .     S
Br632  C646    1.927   .     S
Br633  C650    1.940   .     S
Br634  C654    1.942   .     S
Br635  C655    1.942   .     S
Br636  C663    1.936   .     S
Br637  C665    1.936   .     S
Br638  C643    1.921   .     S
Br639  C644    1.927   .     S
Br640  C645    1.921   .     S
C641   O696    1.304   .     A
C641   C642    1.475   .     S
C641   O693    1.304   .     A
C642   C669    1.414   .     A
C642   C666    1.414   .     A
C643   N686    1.376   .     A
C643   C1066   1.422   1_545 S
C644   N685    1.375   .     A
C644   C855    1.422   .     S
C645   N686    1.376   .     A
C645   C1064   1.422   1_545 S
C646   N685    1.375   .     A
C646   C853    1.422   .     S
C647   C653    1.454   .     S
C647   O700    1.302   .     A
C647   O697    1.295   .     A
C648   C651    1.454   .     S
C648   O698    1.302   .     A
C648   O699    1.295   .     A
C649   C651    1.403   .     A
C649   C660    1.413   .     A
C650   C653    1.403   .     A
C650   C661    1.413   .     A
C651   C654    1.402   .     A
C652   O695    1.304   .     A
C652   C670    1.475   .     S
C652   O694    1.304   .     A
C653   C655    1.402   .     A
C654   C656    1.414   .     A
C655   C657    1.414   .     A
C656   C658    1.419   .     A
C656   C662    1.416   .     A
C657   C664    1.416   .     A
C657   C659    1.419   .     A
C658   C660    1.418   .     A
C658   C29     1.413   1_556 S
C659   C661    1.418   .     A
C660   C665    1.414   .     A
C661   C663    1.414   .     A
C662   N687    1.433   .     S
C662   C33     1.406   1_556 S
C664   N688    1.433   .     S
C665   C34     1.406   1_556 S
C666   N689    1.437   .     S
C666   C808    1.399   1_455 S
C667   C670    1.414   .     A
C667   N690    1.437   .     S
C667   C739    1.399   .     S
C668   C670    1.414   .     A
C668   N691    1.437   .     S
C668   C736    1.399   .     S
C669   N692    1.437   .     S
C669   C807    1.399   1_455 S
Cu671  Cu672   2.705   .     S
Cu671  O699    1.953   .     S
Cu671  O693    1.993   .     S
Cu671  O697    1.953   .     S
Cu671  N685    2.033   .     S
Cu671  O695    1.993   .     S
Cu672  O698    1.953   .     S
Cu672  O694    1.993   .     S
Cu672  O700    1.953   .     S
Cu672  N686    2.033   .     S
Cu672  O696    1.993   .     S
H673   N687    1.045   .     S
H674   N691    1.045   .     S
H675   N692    1.044   .     S
H676   N692    1.045   .     S
H677   N687    1.046   .     S
H678   N688    1.045   .     S
H679   N688    1.046   .     S
H680   N689    1.044   .     S
H681   N689    1.045   .     S
H682   N690    1.044   .     S
H683   N690    1.045   .     S
H684   N691    1.044   .     S
Br701  C719    1.940   .     S
Br702  C716    1.927   .     S
Br703  C720    1.940   .     S
Br704  C724    1.942   .     S
Br705  C725    1.942   .     S
Br706  C733    1.936   .     S
Br707  C735    1.936   .     S
Br708  C713    1.921   .     S
Br709  C714    1.927   .     S
Br710  C715    1.921   .     S
C711   O766    1.304   .     A
C711   C712    1.475   .     S
C711   O763    1.304   .     A
C712   C739    1.414   .     A
C712   C736    1.414   .     A
C713   N756    1.376   .     A
C713   C1136   1.422   1_545 S
C714   N755    1.375   .     A
C714   C925    1.422   .     S
C715   N756    1.376   .     A
C715   C1134   1.422   1_545 S
C716   N755    1.375   .     A
C716   C923    1.422   .     S
C717   C723    1.454   .     S
C717   O770    1.302   .     A
C717   O767    1.295   .     A
C718   C721    1.454   .     S
C718   O768    1.302   .     A
C718   O769    1.295   .     A
C719   C721    1.403   .     A
C719   C730    1.413   .     A
C720   C723    1.403   .     A
C720   C731    1.413   .     A
C721   C724    1.402   .     A
C722   O765    1.304   .     A
C722   C740    1.475   .     S
C722   O764    1.304   .     A
C723   C725    1.402   .     A
C724   C726    1.414   .     A
C725   C727    1.414   .     A
C726   C728    1.419   .     A
C726   C732    1.416   .     A
C727   C734    1.416   .     A
C727   C729    1.419   .     A
C728   C730    1.418   .     A
C728   C99     1.413   1_556 S
C729   C731    1.418   .     A
C730   C735    1.414   .     A
C731   C733    1.414   .     A
C732   N757    1.433   .     S
C732   C103    1.406   1_556 S
C734   N758    1.433   .     S
C735   C104    1.406   1_556 S
C736   N759    1.437   .     S
C737   C740    1.414   .     A
C737   N760    1.437   .     S
C737   C809    1.399   .     S
C738   C740    1.414   .     A
C738   N761    1.437   .     S
C738   C806    1.399   .     S
C739   N762    1.437   .     S
Cu741  Cu742   2.705   .     S
Cu741  O769    1.953   .     S
Cu741  O763    1.993   .     S
Cu741  O767    1.953   .     S
Cu741  N755    2.033   .     S
Cu741  O765    1.993   .     S
Cu742  O768    1.953   .     S
Cu742  O764    1.993   .     S
Cu742  O770    1.953   .     S
Cu742  N756    2.033   .     S
Cu742  O766    1.993   .     S
H743   N757    1.045   .     S
H744   N761    1.045   .     S
H745   N762    1.044   .     S
H746   N762    1.045   .     S
H747   N757    1.046   .     S
H748   N758    1.045   .     S
H749   N758    1.046   .     S
H750   N759    1.044   .     S
H751   N759    1.045   .     S
H752   N760    1.044   .     S
H753   N760    1.045   .     S
H754   N761    1.044   .     S
Br771  C789    1.940   .     S
Br772  C786    1.927   .     S
Br773  C790    1.940   .     S
Br774  C794    1.942   .     S
Br775  C795    1.942   .     S
Br776  C803    1.936   .     S
Br777  C805    1.936   .     S
Br778  C783    1.921   .     S
Br779  C784    1.927   .     S
Br780  C785    1.921   .     S
C781   O836    1.304   .     A
C781   C782    1.475   .     S
C781   O833    1.304   .     A
C782   C809    1.414   .     A
C782   C806    1.414   .     A
C783   N826    1.376   .     A
C783   C1206   1.422   1_545 S
C784   N825    1.375   .     A
C784   C995    1.422   .     S
C785   N826    1.376   .     A
C785   C1204   1.422   1_545 S
C786   N825    1.375   .     A
C786   C993    1.422   .     S
C787   C793    1.454   .     S
C787   O840    1.302   .     A
C787   O837    1.295   .     A
C788   C791    1.454   .     S
C788   O838    1.302   .     A
C788   O839    1.295   .     A
C789   C791    1.403   .     A
C789   C800    1.413   .     A
C790   C793    1.403   .     A
C790   C801    1.413   .     A
C791   C794    1.402   .     A
C792   O835    1.304   .     A
C792   C810    1.475   .     S
C792   O834    1.304   .     A
C793   C795    1.402   .     A
C794   C796    1.414   .     A
C795   C797    1.414   .     A
C796   C798    1.419   .     A
C796   C802    1.416   .     A
C797   C804    1.416   .     A
C797   C799    1.419   .     A
C798   C800    1.418   .     A
C798   C169    1.413   1_556 S
C799   C801    1.418   .     A
C800   C805    1.414   .     A
C801   C803    1.414   .     A
C802   N827    1.433   .     S
C802   C173    1.406   1_556 S
C804   N828    1.433   .     S
C805   C174    1.406   1_556 S
C806   N829    1.437   .     S
C807   C810    1.414   .     A
C807   N830    1.437   .     S
C807   C669    1.399   1_655 S
C808   C810    1.414   .     A
C808   N831    1.437   .     S
C808   C666    1.399   1_655 S
C809   N832    1.437   .     S
Cu811  Cu812   2.705   .     S
Cu811  O839    1.953   .     S
Cu811  O833    1.993   .     S
Cu811  O837    1.953   .     S
Cu811  N825    2.033   .     S
Cu811  O835    1.993   .     S
Cu812  O838    1.953   .     S
Cu812  O834    1.993   .     S
Cu812  O840    1.953   .     S
Cu812  N826    2.033   .     S
Cu812  O836    1.993   .     S
H813   N827    1.045   .     S
H814   N831    1.045   .     S
H815   N832    1.044   .     S
H816   N832    1.045   .     S
H817   N827    1.046   .     S
H818   N828    1.045   .     S
H819   N828    1.046   .     S
H820   N829    1.044   .     S
H821   N829    1.045   .     S
H822   N830    1.044   .     S
H823   N830    1.045   .     S
H824   N831    1.044   .     S
Br841  C859    1.940   .     S
Br842  C856    1.927   .     S
Br843  C860    1.940   .     S
Br844  C864    1.942   .     S
Br845  C865    1.942   .     S
Br846  C873    1.936   .     S
Br847  C875    1.936   .     S
Br848  C853    1.921   .     S
Br849  C854    1.927   .     S
Br850  C855    1.921   .     S
C851   O906    1.304   .     A
C851   C852    1.475   .     S
C851   O903    1.304   .     A
C852   C879    1.414   .     A
C852   C876    1.414   .     A
C853   N896    1.376   .     A
C854   N895    1.375   .     A
C854   C1065   1.422   .     S
C855   N896    1.376   .     A
C856   N895    1.375   .     A
C856   C1063   1.422   .     S
C857   C863    1.454   .     S
C857   O910    1.302   .     A
C857   O907    1.295   .     A
C858   C861    1.454   .     S
C858   O908    1.302   .     A
C858   O909    1.295   .     A
C859   C861    1.403   .     A
C859   C870    1.413   .     A
C860   C863    1.403   .     A
C860   C871    1.413   .     A
C861   C864    1.402   .     A
C862   O905    1.304   .     A
C862   C880    1.475   .     S
C862   O904    1.304   .     A
C863   C865    1.402   .     A
C864   C866    1.414   .     A
C865   C867    1.414   .     A
C866   C868    1.419   .     A
C866   C872    1.416   .     A
C867   C874    1.416   .     A
C867   C869    1.419   .     A
C868   C870    1.418   .     A
C868   C239    1.413   1_556 S
C869   C871    1.418   .     A
C870   C875    1.414   .     A
C871   C873    1.414   .     A
C872   N897    1.433   .     S
C872   C243    1.406   1_556 S
C874   N898    1.433   .     S
C875   C244    1.406   1_556 S
C876   N899    1.437   .     S
C876   C1018   1.399   1_455 S
C877   C880    1.414   .     A
C877   N900    1.437   .     S
C877   C949    1.399   .     S
C878   C880    1.414   .     A
C878   N901    1.437   .     S
C878   C946    1.399   .     S
C879   N902    1.437   .     S
C879   C1017   1.399   1_455 S
Cu881  Cu882   2.705   .     S
Cu881  O909    1.953   .     S
Cu881  O903    1.993   .     S
Cu881  O907    1.953   .     S
Cu881  N895    2.033   .     S
Cu881  O905    1.993   .     S
Cu882  O908    1.953   .     S
Cu882  O904    1.993   .     S
Cu882  O910    1.953   .     S
Cu882  N896    2.033   .     S
Cu882  O906    1.993   .     S
H883   N897    1.045   .     S
H884   N901    1.045   .     S
H885   N902    1.044   .     S
H886   N902    1.045   .     S
H887   N897    1.046   .     S
H888   N898    1.045   .     S
H889   N898    1.046   .     S
H890   N899    1.044   .     S
H891   N899    1.045   .     S
H892   N900    1.044   .     S
H893   N900    1.045   .     S
H894   N901    1.044   .     S
Br911  C929    1.940   .     S
Br912  C926    1.927   .     S
Br913  C930    1.940   .     S
Br914  C934    1.942   .     S
Br915  C935    1.942   .     S
Br916  C943    1.936   .     S
Br917  C945    1.936   .     S
Br918  C923    1.921   .     S
Br919  C924    1.927   .     S
Br920  C925    1.921   .     S
C921   O976    1.304   .     A
C921   C922    1.475   .     S
C921   O973    1.304   .     A
C922   C949    1.414   .     A
C922   C946    1.414   .     A
C923   N966    1.376   .     A
C924   N965    1.375   .     A
C924   C1135   1.422   .     S
C925   N966    1.376   .     A
C926   N965    1.375   .     A
C926   C1133   1.422   .     S
C927   C933    1.454   .     S
C927   O980    1.302   .     A
C927   O977    1.295   .     A
C928   C931    1.454   .     S
C928   O978    1.302   .     A
C928   O979    1.295   .     A
C929   C931    1.403   .     A
C929   C940    1.413   .     A
C930   C933    1.403   .     A
C930   C941    1.413   .     A
C931   C934    1.402   .     A
C932   O975    1.304   .     A
C932   C950    1.475   .     S
C932   O974    1.304   .     A
C933   C935    1.402   .     A
C934   C936    1.414   .     A
C935   C937    1.414   .     A
C936   C938    1.419   .     A
C936   C942    1.416   .     A
C937   C944    1.416   .     A
C937   C939    1.419   .     A
C938   C940    1.418   .     A
C938   C309    1.413   1_556 S
C939   C941    1.418   .     A
C940   C945    1.414   .     A
C941   C943    1.414   .     A
C942   N967    1.433   .     S
C942   C313    1.406   1_556 S
C944   N968    1.433   .     S
C945   C314    1.406   1_556 S
C946   N969    1.437   .     S
C947   C950    1.414   .     A
C947   N970    1.437   .     S
C947   C1019   1.399   .     S
C948   C950    1.414   .     A
C948   N971    1.437   .     S
C948   C1016   1.399   .     S
C949   N972    1.437   .     S
Cu951  Cu952   2.705   .     S
Cu951  O979    1.953   .     S
Cu951  O973    1.993   .     S
Cu951  O977    1.953   .     S
Cu951  N965    2.033   .     S
Cu951  O975    1.993   .     S
Cu952  O978    1.953   .     S
Cu952  O974    1.993   .     S
Cu952  O980    1.953   .     S
Cu952  N966    2.033   .     S
Cu952  O976    1.993   .     S
H953   N967    1.045   .     S
H954   N971    1.045   .     S
H955   N972    1.044   .     S
H956   N972    1.045   .     S
H957   N967    1.046   .     S
H958   N968    1.045   .     S
H959   N968    1.046   .     S
H960   N969    1.044   .     S
H961   N969    1.045   .     S
H962   N970    1.044   .     S
H963   N970    1.045   .     S
H964   N971    1.044   .     S
Br981  C999    1.940   .     S
Br982  C996    1.927   .     S
Br983  C1000   1.940   .     S
Br984  C1004   1.942   .     S
Br985  C1005   1.942   .     S
Br986  C1013   1.936   .     S
Br987  C1015   1.936   .     S
Br988  C993    1.921   .     S
Br989  C994    1.927   .     S
Br990  C995    1.921   .     S
C991   O1046   1.304   .     A
C991   C992    1.475   .     S
C991   O1043   1.304   .     A
C992   C1019   1.414   .     A
C992   C1016   1.414   .     A
C993   N1036   1.376   .     A
C994   N1035   1.375   .     A
C994   C1205   1.422   .     S
C995   N1036   1.376   .     A
C996   N1035   1.375   .     A
C996   C1203   1.422   .     S
C997   C1003   1.454   .     S
C997   O1050   1.302   .     A
C997   O1047   1.295   .     A
C998   C1001   1.454   .     S
C998   O1048   1.302   .     A
C998   O1049   1.295   .     A
C999   C1001   1.403   .     A
C999   C1010   1.413   .     A
C1000  C1003   1.403   .     A
C1000  C1011   1.413   .     A
C1001  C1004   1.402   .     A
C1002  O1045   1.304   .     A
C1002  C1020   1.475   .     S
C1002  O1044   1.304   .     A
C1003  C1005   1.402   .     A
C1004  C1006   1.414   .     A
C1005  C1007   1.414   .     A
C1006  C1008   1.419   .     A
C1006  C1012   1.416   .     A
C1007  C1014   1.416   .     A
C1007  C1009   1.419   .     A
C1008  C1010   1.418   .     A
C1008  C379    1.413   1_556 S
C1009  C1011   1.418   .     A
C1010  C1015   1.414   .     A
C1011  C1013   1.414   .     A
C1012  N1037   1.433   .     S
C1012  C383    1.406   1_556 S
C1014  N1038   1.433   .     S
C1015  C384    1.406   1_556 S
C1016  N1039   1.437   .     S
C1017  C1020   1.414   .     A
C1017  N1040   1.437   .     S
C1017  C879    1.399   1_655 S
C1018  C1020   1.414   .     A
C1018  N1041   1.437   .     S
C1018  C876    1.399   1_655 S
C1019  N1042   1.437   .     S
Cu1021 Cu1022  2.705   .     S
Cu1021 O1049   1.953   .     S
Cu1021 O1043   1.993   .     S
Cu1021 O1047   1.953   .     S
Cu1021 N1035   2.033   .     S
Cu1021 O1045   1.993   .     S
Cu1022 O1048   1.953   .     S
Cu1022 O1044   1.993   .     S
Cu1022 O1050   1.953   .     S
Cu1022 N1036   2.033   .     S
Cu1022 O1046   1.993   .     S
H1023  N1037   1.045   .     S
H1024  N1041   1.045   .     S
H1025  N1042   1.044   .     S
H1026  N1042   1.045   .     S
H1027  N1037   1.046   .     S
H1028  N1038   1.045   .     S
H1029  N1038   1.046   .     S
H1030  N1039   1.044   .     S
H1031  N1039   1.045   .     S
H1032  N1040   1.044   .     S
H1033  N1040   1.045   .     S
H1034  N1041   1.044   .     S
Br1051 C1069   1.940   .     S
Br1052 C1066   1.927   .     S
Br1053 C1070   1.940   .     S
Br1054 C1074   1.942   .     S
Br1055 C1075   1.942   .     S
Br1056 C1083   1.936   .     S
Br1057 C1085   1.936   .     S
Br1058 C1063   1.921   .     S
Br1059 C1064   1.927   .     S
Br1060 C1065   1.921   .     S
C1061  O1116   1.304   .     A
C1061  C1062   1.475   .     S
C1061  O1113   1.304   .     A
C1062  C1089   1.414   .     A
C1062  C1086   1.414   .     A
C1063  N1106   1.376   .     A
C1064  N1105   1.375   .     A
C1064  C645    1.422   1_565 S
C1065  N1106   1.376   .     A
C1066  N1105   1.375   .     A
C1066  C643    1.422   1_565 S
C1067  C1073   1.454   .     S
C1067  O1120   1.302   .     A
C1067  O1117   1.295   .     A
C1068  C1071   1.454   .     S
C1068  O1118   1.302   .     A
C1068  O1119   1.295   .     A
C1069  C1071   1.403   .     A
C1069  C1080   1.413   .     A
C1070  C1073   1.403   .     A
C1070  C1081   1.413   .     A
C1071  C1074   1.402   .     A
C1072  O1115   1.304   .     A
C1072  C1090   1.475   .     S
C1072  O1114   1.304   .     A
C1073  C1075   1.402   .     A
C1074  C1076   1.414   .     A
C1075  C1077   1.414   .     A
C1076  C1078   1.419   .     A
C1076  C1082   1.416   .     A
C1077  C1084   1.416   .     A
C1077  C1079   1.419   .     A
C1078  C1080   1.418   .     A
C1078  C449    1.413   1_556 S
C1079  C1081   1.418   .     A
C1080  C1085   1.414   .     A
C1081  C1083   1.414   .     A
C1082  N1107   1.433   .     S
C1082  C453    1.406   1_556 S
C1084  N1108   1.433   .     S
C1085  C454    1.406   1_556 S
C1086  N1109   1.437   .     S
C1086  C1228   1.399   1_455 S
C1087  C1090   1.414   .     A
C1087  N1110   1.437   .     S
C1087  C1159   1.399   .     S
C1088  C1090   1.414   .     A
C1088  N1111   1.437   .     S
C1088  C1156   1.399   .     S
C1089  N1112   1.437   .     S
C1089  C1227   1.399   1_455 S
Cu1091 Cu1092  2.705   .     S
Cu1091 O1119   1.953   .     S
Cu1091 O1113   1.993   .     S
Cu1091 O1117   1.953   .     S
Cu1091 N1105   2.033   .     S
Cu1091 O1115   1.993   .     S
Cu1092 O1118   1.953   .     S
Cu1092 O1114   1.993   .     S
Cu1092 O1120   1.953   .     S
Cu1092 N1106   2.033   .     S
Cu1092 O1116   1.993   .     S
H1093  N1107   1.045   .     S
H1094  N1111   1.045   .     S
H1095  N1112   1.044   .     S
H1096  N1112   1.045   .     S
H1097  N1107   1.046   .     S
H1098  N1108   1.045   .     S
H1099  N1108   1.046   .     S
H1100  N1109   1.044   .     S
H1101  N1109   1.045   .     S
H1102  N1110   1.044   .     S
H1103  N1110   1.045   .     S
H1104  N1111   1.044   .     S
Br1121 C1139   1.940   .     S
Br1122 C1136   1.927   .     S
Br1123 C1140   1.940   .     S
Br1124 C1144   1.942   .     S
Br1125 C1145   1.942   .     S
Br1126 C1153   1.936   .     S
Br1127 C1155   1.936   .     S
Br1128 C1133   1.921   .     S
Br1129 C1134   1.927   .     S
Br1130 C1135   1.921   .     S
C1131  O1186   1.304   .     A
C1131  C1132   1.475   .     S
C1131  O1183   1.304   .     A
C1132  C1159   1.414   .     A
C1132  C1156   1.414   .     A
C1133  N1176   1.376   .     A
C1134  N1175   1.375   .     A
C1134  C715    1.422   1_565 S
C1135  N1176   1.376   .     A
C1136  N1175   1.375   .     A
C1136  C713    1.422   1_565 S
C1137  C1143   1.454   .     S
C1137  O1190   1.302   .     A
C1137  O1187   1.295   .     A
C1138  C1141   1.454   .     S
C1138  O1188   1.302   .     A
C1138  O1189   1.295   .     A
C1139  C1141   1.403   .     A
C1139  C1150   1.413   .     A
C1140  C1143   1.403   .     A
C1140  C1151   1.413   .     A
C1141  C1144   1.402   .     A
C1142  O1185   1.304   .     A
C1142  C1160   1.475   .     S
C1142  O1184   1.304   .     A
C1143  C1145   1.402   .     A
C1144  C1146   1.414   .     A
C1145  C1147   1.414   .     A
C1146  C1148   1.419   .     A
C1146  C1152   1.416   .     A
C1147  C1154   1.416   .     A
C1147  C1149   1.419   .     A
C1148  C1150   1.418   .     A
C1148  C519    1.413   1_556 S
C1149  C1151   1.418   .     A
C1150  C1155   1.414   .     A
C1151  C1153   1.414   .     A
C1152  N1177   1.433   .     S
C1152  C523    1.406   1_556 S
C1154  N1178   1.433   .     S
C1155  C524    1.406   1_556 S
C1156  N1179   1.437   .     S
C1157  C1160   1.414   .     A
C1157  N1180   1.437   .     S
C1157  C1229   1.399   .     S
C1158  C1160   1.414   .     A
C1158  N1181   1.437   .     S
C1158  C1226   1.399   .     S
C1159  N1182   1.437   .     S
Cu1161 Cu1162  2.705   .     S
Cu1161 O1189   1.953   .     S
Cu1161 O1183   1.993   .     S
Cu1161 O1187   1.953   .     S
Cu1161 N1175   2.033   .     S
Cu1161 O1185   1.993   .     S
Cu1162 O1188   1.953   .     S
Cu1162 O1184   1.993   .     S
Cu1162 O1190   1.953   .     S
Cu1162 N1176   2.033   .     S
Cu1162 O1186   1.993   .     S
H1163  N1177   1.045   .     S
H1164  N1181   1.045   .     S
H1165  N1182   1.044   .     S
H1166  N1182   1.045   .     S
H1167  N1177   1.046   .     S
H1168  N1178   1.045   .     S
H1169  N1178   1.046   .     S
H1170  N1179   1.044   .     S
H1171  N1179   1.045   .     S
H1172  N1180   1.044   .     S
H1173  N1180   1.045   .     S
H1174  N1181   1.044   .     S
Br1191 C1209   1.940   .     S
Br1192 C1206   1.927   .     S
Br1193 C1210   1.940   .     S
Br1194 C1214   1.942   .     S
Br1195 C1215   1.942   .     S
Br1196 C1223   1.936   .     S
Br1197 C1225   1.936   .     S
Br1198 C1203   1.921   .     S
Br1199 C1204   1.927   .     S
Br1200 C1205   1.921   .     S
C1201  O1256   1.304   .     A
C1201  C1202   1.475   .     S
C1201  O1253   1.304   .     A
C1202  C1229   1.414   .     A
C1202  C1226   1.414   .     A
C1203  N1246   1.376   .     A
C1204  N1245   1.375   .     A
C1204  C785    1.422   1_565 S
C1205  N1246   1.376   .     A
C1206  N1245   1.375   .     A
C1206  C783    1.422   1_565 S
C1207  C1213   1.454   .     S
C1207  O1260   1.302   .     A
C1207  O1257   1.295   .     A
C1208  C1211   1.454   .     S
C1208  O1258   1.302   .     A
C1208  O1259   1.295   .     A
C1209  C1211   1.403   .     A
C1209  C1220   1.413   .     A
C1210  C1213   1.403   .     A
C1210  C1221   1.413   .     A
C1211  C1214   1.402   .     A
C1212  O1255   1.304   .     A
C1212  C1230   1.475   .     S
C1212  O1254   1.304   .     A
C1213  C1215   1.402   .     A
C1214  C1216   1.414   .     A
C1215  C1217   1.414   .     A
C1216  C1218   1.419   .     A
C1216  C1222   1.416   .     A
C1217  C1224   1.416   .     A
C1217  C1219   1.419   .     A
C1218  C1220   1.418   .     A
C1218  C589    1.413   1_556 S
C1219  C1221   1.418   .     A
C1220  C1225   1.414   .     A
C1221  C1223   1.414   .     A
C1222  N1247   1.433   .     S
C1222  C593    1.406   1_556 S
C1224  N1248   1.433   .     S
C1225  C594    1.406   1_556 S
C1226  N1249   1.437   .     S
C1227  C1230   1.414   .     A
C1227  N1250   1.437   .     S
C1227  C1089   1.399   1_655 S
C1228  C1230   1.414   .     A
C1228  N1251   1.437   .     S
C1228  C1086   1.399   1_655 S
C1229  N1252   1.437   .     S
Cu1231 Cu1232  2.705   .     S
Cu1231 O1259   1.953   .     S
Cu1231 O1253   1.993   .     S
Cu1231 O1257   1.953   .     S
Cu1231 N1245   2.033   .     S
Cu1231 O1255   1.993   .     S
Cu1232 O1258   1.953   .     S
Cu1232 O1254   1.993   .     S
Cu1232 O1260   1.953   .     S
Cu1232 N1246   2.033   .     S
Cu1232 O1256   1.993   .     S
H1233  N1247   1.045   .     S
H1234  N1251   1.045   .     S
H1235  N1252   1.044   .     S
H1236  N1252   1.045   .     S
H1237  N1247   1.046   .     S
H1238  N1248   1.045   .     S
H1239  N1248   1.046   .     S
H1240  N1249   1.044   .     S
H1241  N1249   1.045   .     S
H1242  N1250   1.044   .     S
H1243  N1250   1.045   .     S
H1244  N1251   1.044   .     S
