data_str_m2_o10_o16_pcu_sym.20
_audit_creation_date              2020-01-03
_audit_creation_method            'Materials Studio'
_symmetry_space_group_name_H-M    'P1'
_symmetry_Int_Tables_number       1
_symmetry_cell_setting            triclinic
loop_
_symmetry_equiv_pos_as_xyz
  x,y,z
_cell_length_a                    22.3923
_cell_length_b                    26.1762
_cell_length_c                    26.7864
_cell_angle_alpha                 94.8676
_cell_angle_beta                  77.5366
_cell_angle_gamma                 103.3543
loop_
_atom_site_label
_atom_site_type_symbol
_atom_site_fract_x
_atom_site_fract_y
_atom_site_fract_z
_atom_site_U_iso_or_equiv
_atom_site_adp_type
_atom_site_occupancy
Br1    Br    0.32474   0.10587   0.18344   0.00000  Uiso   1.00
C2     C     0.18202   0.26664   0.25041   0.00000  Uiso   1.00
C3     C     0.11281   0.16544   0.40331   0.00000  Uiso   1.00
C4     C     0.18940   0.32253   0.25080   0.00000  Uiso   1.00
C5     C     0.13336   0.16609   0.34720   0.00000  Uiso   1.00
C6     C     0.14526   0.01092   0.23968   0.00000  Uiso   1.00
C7     C     0.15208   0.06673   0.24670   0.00000  Uiso   1.00
C8     C     0.20039   0.17046   0.15305   0.00000  Uiso   1.00
C9     C     0.29255   0.22617   0.02785   0.00000  Uiso   1.00
C10    C     0.22045   0.17932   0.09822   0.00000  Uiso   1.00
C11    C     0.05134   0.13941   0.42394   0.00000  Uiso   1.00
C12    C     0.03319   0.12979   0.47576   0.00000  Uiso   1.00
C13    C     0.13925   0.16996   0.48799   0.00000  Uiso   1.00
C14    C     0.07657   0.14381   0.00741   0.00000  Uiso   1.00
C15    C     0.10488   0.30600   0.16502   0.00000  Uiso   1.00
C16    C     0.15553   0.18504   0.43633   0.00000  Uiso   1.00
C17    C     0.18616   0.18218   0.01823   0.00000  Uiso   1.00
C18    C     0.24607   0.21357   0.49826   0.00000  Uiso   1.00
C19    C     0.25848   0.23309   0.44948   0.00000  Uiso   1.00
C20    C     0.21370   0.21971   0.41924   0.00000  Uiso   1.00
C21    C     0.17552   0.16389   0.06773   0.00000  Uiso   1.00
C22    C     0.27968   0.20937   0.07779   0.00000  Uiso   1.00
Cu23   Cu    0.10710   0.16105   0.24436   0.00000  Uiso   1.00
Cu24   Cu    0.22623   0.17228   0.25565   0.00000  Uiso   1.00
H25    H     0.31491   0.22169   0.10099   0.00000  Uiso   1.00
H26    H     0.23067   0.01302   0.26312   0.00000  Uiso   1.00
H27    H     0.05131   0.32641   0.23380   0.00000  Uiso   1.00
H28    H     0.06320   0.27974   0.15341   0.00000  Uiso   1.00
H29    H     0.14546   0.28702   0.15211   0.00000  Uiso   1.00
H30    H     0.11469   0.01077   0.14611   0.00000  Uiso   1.00
H31    H     0.00303   0.20524   0.29074   0.00000  Uiso   1.00
H32    H     0.30311   0.25885   0.43454   0.00000  Uiso   1.00
H33    H     0.00500   0.25012   0.01276   0.00000  Uiso   1.00
H34    H     0.13199   0.13810   0.08411   0.00000  Uiso   1.00
H35    H     0.01757   0.12507   0.39971   0.00000  Uiso   1.00
H36    H     0.05899   0.13479   0.04710   0.00000  Uiso   1.00
H37    H     0.31880   0.10999   0.49133   0.00000  Uiso   1.00
H38    H     0.22494   0.23811   0.38278   0.00000  Uiso   1.00
N39    N     0.31574   0.18074   0.26416   0.00000  Uiso   1.00
N40    N     0.01759   0.15259   0.23584   0.00000  Uiso   1.00
N41    N     0.09267   0.31424   0.22005   0.00000  Uiso   1.00
O42    O     0.12797   0.23807   0.24633   0.00000  Uiso   1.00
O43    O     0.22858   0.24755   0.25587   0.00000  Uiso   1.00
O44    O     0.09181   0.15960   0.31840   0.00000  Uiso   1.00
O45    O     0.19242   0.16908   0.32793   0.00000  Uiso   1.00
O46    O     0.10476   0.08578   0.24414   0.00000  Uiso   1.00
O47    O     0.20536   0.09526   0.25367   0.00000  Uiso   1.00
O48    O     0.14092   0.16425   0.17207   0.00000  Uiso   1.00
O49    O     0.24152   0.17373   0.18161   0.00000  Uiso   1.00
Br50   Br    0.65807   0.10587   0.18344   0.00000  Uiso   1.00
C51    C     0.51535   0.26664   0.25041   0.00000  Uiso   1.00
C52    C     0.44614   0.16544   0.40331   0.00000  Uiso   1.00
C53    C     0.52273   0.32253   0.25080   0.00000  Uiso   1.00
C54    C     0.46669   0.16609   0.34720   0.00000  Uiso   1.00
C55    C     0.47859   0.01092   0.23968   0.00000  Uiso   1.00
C56    C     0.48541   0.06673   0.24670   0.00000  Uiso   1.00
C57    C     0.53372   0.17046   0.15305   0.00000  Uiso   1.00
C58    C     0.62588   0.22617   0.02785   0.00000  Uiso   1.00
C59    C     0.55378   0.17932   0.09822   0.00000  Uiso   1.00
C60    C     0.38467   0.13941   0.42394   0.00000  Uiso   1.00
C61    C     0.36652   0.12979   0.47576   0.00000  Uiso   1.00
C62    C     0.47258   0.16996   0.48799   0.00000  Uiso   1.00
C63    C     0.40990   0.14381   0.00741   0.00000  Uiso   1.00
C64    C     0.43822   0.30600   0.16502   0.00000  Uiso   1.00
C65    C     0.48886   0.18504   0.43633   0.00000  Uiso   1.00
C66    C     0.51949   0.18218   0.01823   0.00000  Uiso   1.00
C67    C     0.57940   0.21357   0.49826   0.00000  Uiso   1.00
C68    C     0.59182   0.23309   0.44948   0.00000  Uiso   1.00
C69    C     0.54703   0.21971   0.41924   0.00000  Uiso   1.00
C70    C     0.50886   0.16389   0.06773   0.00000  Uiso   1.00
C71    C     0.61301   0.20937   0.07779   0.00000  Uiso   1.00
Cu72   Cu    0.44043   0.16105   0.24436   0.00000  Uiso   1.00
Cu73   Cu    0.55957   0.17228   0.25565   0.00000  Uiso   1.00
H74    H     0.64824   0.22169   0.10099   0.00000  Uiso   1.00
H75    H     0.56401   0.01302   0.26312   0.00000  Uiso   1.00
H76    H     0.38465   0.32641   0.23380   0.00000  Uiso   1.00
H77    H     0.39654   0.27974   0.15341   0.00000  Uiso   1.00
H78    H     0.47879   0.28702   0.15211   0.00000  Uiso   1.00
H79    H     0.44803   0.01077   0.14611   0.00000  Uiso   1.00
H80    H     0.33636   0.20524   0.29074   0.00000  Uiso   1.00
H81    H     0.63644   0.25885   0.43454   0.00000  Uiso   1.00
H82    H     0.33834   0.25012   0.01276   0.00000  Uiso   1.00
H83    H     0.46533   0.13810   0.08411   0.00000  Uiso   1.00
H84    H     0.35090   0.12507   0.39971   0.00000  Uiso   1.00
H85    H     0.39232   0.13479   0.04710   0.00000  Uiso   1.00
H86    H     0.65214   0.10999   0.49133   0.00000  Uiso   1.00
H87    H     0.55827   0.23811   0.38278   0.00000  Uiso   1.00
N88    N     0.64908   0.18074   0.26416   0.00000  Uiso   1.00
N89    N     0.35092   0.15259   0.23584   0.00000  Uiso   1.00
N90    N     0.42600   0.31424   0.22005   0.00000  Uiso   1.00
O91    O     0.46131   0.23807   0.24633   0.00000  Uiso   1.00
O92    O     0.56191   0.24755   0.25587   0.00000  Uiso   1.00
O93    O     0.42515   0.15960   0.31840   0.00000  Uiso   1.00
O94    O     0.52575   0.16908   0.32793   0.00000  Uiso   1.00
O95    O     0.43809   0.08578   0.24414   0.00000  Uiso   1.00
O96    O     0.53869   0.09526   0.25367   0.00000  Uiso   1.00
O97    O     0.47425   0.16425   0.17207   0.00000  Uiso   1.00
O98    O     0.57485   0.17373   0.18161   0.00000  Uiso   1.00
Br99   Br    0.99140   0.10587   0.18344   0.00000  Uiso   1.00
C100   C     0.84868   0.26664   0.25041   0.00000  Uiso   1.00
C101   C     0.77947   0.16544   0.40331   0.00000  Uiso   1.00
C102   C     0.85607   0.32253   0.25080   0.00000  Uiso   1.00
C103   C     0.80002   0.16609   0.34720   0.00000  Uiso   1.00
C104   C     0.81193   0.01092   0.23968   0.00000  Uiso   1.00
C105   C     0.81875   0.06673   0.24670   0.00000  Uiso   1.00
C106   C     0.86705   0.17046   0.15305   0.00000  Uiso   1.00
C107   C     0.95921   0.22617   0.02785   0.00000  Uiso   1.00
C108   C     0.88711   0.17932   0.09822   0.00000  Uiso   1.00
C109   C     0.71801   0.13941   0.42394   0.00000  Uiso   1.00
C110   C     0.69986   0.12979   0.47576   0.00000  Uiso   1.00
C111   C     0.80592   0.16996   0.48799   0.00000  Uiso   1.00
C112   C     0.74323   0.14381   0.00741   0.00000  Uiso   1.00
C113   C     0.77155   0.30600   0.16502   0.00000  Uiso   1.00
C114   C     0.82220   0.18504   0.43633   0.00000  Uiso   1.00
C115   C     0.85283   0.18218   0.01823   0.00000  Uiso   1.00
C116   C     0.91274   0.21357   0.49826   0.00000  Uiso   1.00
C117   C     0.92515   0.23309   0.44948   0.00000  Uiso   1.00
C118   C     0.88037   0.21971   0.41924   0.00000  Uiso   1.00
C119   C     0.84219   0.16389   0.06773   0.00000  Uiso   1.00
C120   C     0.94634   0.20937   0.07779   0.00000  Uiso   1.00
Cu121  Cu    0.77377   0.16105   0.24436   0.00000  Uiso   1.00
Cu122  Cu    0.89290   0.17228   0.25565   0.00000  Uiso   1.00
H123   H     0.98158   0.22169   0.10099   0.00000  Uiso   1.00
H124   H     0.89734   0.01302   0.26312   0.00000  Uiso   1.00
H125   H     0.71798   0.32641   0.23380   0.00000  Uiso   1.00
H126   H     0.72987   0.27974   0.15341   0.00000  Uiso   1.00
H127   H     0.81212   0.28702   0.15211   0.00000  Uiso   1.00
H128   H     0.78136   0.01077   0.14611   0.00000  Uiso   1.00
H129   H     0.66969   0.20524   0.29074   0.00000  Uiso   1.00
H130   H     0.96977   0.25885   0.43454   0.00000  Uiso   1.00
H131   H     0.67167   0.25012   0.01276   0.00000  Uiso   1.00
H132   H     0.79866   0.13810   0.08411   0.00000  Uiso   1.00
H133   H     0.68424   0.12507   0.39971   0.00000  Uiso   1.00
H134   H     0.72565   0.13479   0.04710   0.00000  Uiso   1.00
H135   H     0.98547   0.10999   0.49133   0.00000  Uiso   1.00
H136   H     0.89161   0.23811   0.38278   0.00000  Uiso   1.00
N137   N     0.98241   0.18074   0.26416   0.00000  Uiso   1.00
N138   N     0.68426   0.15259   0.23584   0.00000  Uiso   1.00
N139   N     0.75934   0.31424   0.22005   0.00000  Uiso   1.00
O140   O     0.79464   0.23807   0.24633   0.00000  Uiso   1.00
O141   O     0.89524   0.24755   0.25587   0.00000  Uiso   1.00
O142   O     0.75848   0.15960   0.31840   0.00000  Uiso   1.00
O143   O     0.85908   0.16908   0.32793   0.00000  Uiso   1.00
O144   O     0.77142   0.08578   0.24414   0.00000  Uiso   1.00
O145   O     0.87203   0.09526   0.25367   0.00000  Uiso   1.00
O146   O     0.80758   0.16425   0.17207   0.00000  Uiso   1.00
O147   O     0.90819   0.17373   0.18161   0.00000  Uiso   1.00
Br148  Br    0.32474   0.43920   0.18344   0.00000  Uiso   1.00
C149   C     0.18202   0.59998   0.25041   0.00000  Uiso   1.00
C150   C     0.11281   0.49877   0.40331   0.00000  Uiso   1.00
C151   C     0.18940   0.65587   0.25080   0.00000  Uiso   1.00
C152   C     0.13336   0.49943   0.34720   0.00000  Uiso   1.00
C153   C     0.14526   0.34426   0.23968   0.00000  Uiso   1.00
C154   C     0.15208   0.40007   0.24670   0.00000  Uiso   1.00
C155   C     0.20039   0.50379   0.15305   0.00000  Uiso   1.00
C156   C     0.29255   0.55950   0.02785   0.00000  Uiso   1.00
C157   C     0.22045   0.51266   0.09822   0.00000  Uiso   1.00
C158   C     0.05134   0.47275   0.42394   0.00000  Uiso   1.00
C159   C     0.03319   0.46312   0.47576   0.00000  Uiso   1.00
C160   C     0.13925   0.50330   0.48799   0.00000  Uiso   1.00
C161   C     0.07657   0.47714   0.00741   0.00000  Uiso   1.00
C162   C     0.10488   0.63934   0.16502   0.00000  Uiso   1.00
C163   C     0.15553   0.51838   0.43633   0.00000  Uiso   1.00
C164   C     0.18616   0.51551   0.01823   0.00000  Uiso   1.00
C165   C     0.24607   0.54690   0.49826   0.00000  Uiso   1.00
C166   C     0.25848   0.56642   0.44948   0.00000  Uiso   1.00
C167   C     0.21370   0.55304   0.41924   0.00000  Uiso   1.00
C168   C     0.17552   0.49722   0.06773   0.00000  Uiso   1.00
C169   C     0.27968   0.54270   0.07779   0.00000  Uiso   1.00
Cu170  Cu    0.10710   0.49439   0.24436   0.00000  Uiso   1.00
Cu171  Cu    0.22623   0.50561   0.25565   0.00000  Uiso   1.00
H172   H     0.31491   0.55502   0.10099   0.00000  Uiso   1.00
H173   H     0.23067   0.34635   0.26312   0.00000  Uiso   1.00
H174   H     0.05131   0.65975   0.23380   0.00000  Uiso   1.00
H175   H     0.06320   0.61308   0.15341   0.00000  Uiso   1.00
H176   H     0.14546   0.62036   0.15211   0.00000  Uiso   1.00
H177   H     0.11469   0.34410   0.14611   0.00000  Uiso   1.00
H178   H     0.00303   0.53857   0.29074   0.00000  Uiso   1.00
H179   H     0.30311   0.59219   0.43454   0.00000  Uiso   1.00
H180   H     0.00500   0.58345   0.01276   0.00000  Uiso   1.00
H181   H     0.13199   0.47144   0.08411   0.00000  Uiso   1.00
H182   H     0.01757   0.45840   0.39971   0.00000  Uiso   1.00
H183   H     0.05899   0.46812   0.04710   0.00000  Uiso   1.00
H184   H     0.31880   0.44332   0.49133   0.00000  Uiso   1.00
H185   H     0.22494   0.57144   0.38278   0.00000  Uiso   1.00
N186   N     0.31574   0.51407   0.26416   0.00000  Uiso   1.00
N187   N     0.01759   0.48593   0.23584   0.00000  Uiso   1.00
N188   N     0.09267   0.64757   0.22005   0.00000  Uiso   1.00
O189   O     0.12797   0.57141   0.24633   0.00000  Uiso   1.00
O190   O     0.22858   0.58089   0.25587   0.00000  Uiso   1.00
O191   O     0.09181   0.49293   0.31840   0.00000  Uiso   1.00
O192   O     0.19242   0.50241   0.32793   0.00000  Uiso   1.00
O193   O     0.10476   0.41911   0.24414   0.00000  Uiso   1.00
O194   O     0.20536   0.42859   0.25367   0.00000  Uiso   1.00
O195   O     0.14092   0.49759   0.17207   0.00000  Uiso   1.00
O196   O     0.24152   0.50707   0.18161   0.00000  Uiso   1.00
Br197  Br    0.65807   0.43920   0.18344   0.00000  Uiso   1.00
C198   C     0.51535   0.59998   0.25041   0.00000  Uiso   1.00
C199   C     0.44614   0.49877   0.40331   0.00000  Uiso   1.00
C200   C     0.52273   0.65587   0.25080   0.00000  Uiso   1.00
C201   C     0.46669   0.49943   0.34720   0.00000  Uiso   1.00
C202   C     0.47859   0.34426   0.23968   0.00000  Uiso   1.00
C203   C     0.48541   0.40007   0.24670   0.00000  Uiso   1.00
C204   C     0.53372   0.50379   0.15305   0.00000  Uiso   1.00
C205   C     0.62588   0.55950   0.02785   0.00000  Uiso   1.00
C206   C     0.55378   0.51266   0.09822   0.00000  Uiso   1.00
C207   C     0.38467   0.47275   0.42394   0.00000  Uiso   1.00
C208   C     0.36652   0.46312   0.47576   0.00000  Uiso   1.00
C209   C     0.47258   0.50330   0.48799   0.00000  Uiso   1.00
C210   C     0.40990   0.47714   0.00741   0.00000  Uiso   1.00
C211   C     0.43822   0.63934   0.16502   0.00000  Uiso   1.00
C212   C     0.48886   0.51838   0.43633   0.00000  Uiso   1.00
C213   C     0.51949   0.51551   0.01823   0.00000  Uiso   1.00
C214   C     0.57940   0.54690   0.49826   0.00000  Uiso   1.00
C215   C     0.59182   0.56642   0.44948   0.00000  Uiso   1.00
C216   C     0.54703   0.55304   0.41924   0.00000  Uiso   1.00
C217   C     0.50886   0.49722   0.06773   0.00000  Uiso   1.00
C218   C     0.61301   0.54270   0.07779   0.00000  Uiso   1.00
Cu219  Cu    0.44043   0.49439   0.24436   0.00000  Uiso   1.00
Cu220  Cu    0.55957   0.50561   0.25565   0.00000  Uiso   1.00
H221   H     0.64824   0.55502   0.10099   0.00000  Uiso   1.00
H222   H     0.56401   0.34635   0.26312   0.00000  Uiso   1.00
H223   H     0.38465   0.65975   0.23380   0.00000  Uiso   1.00
H224   H     0.39654   0.61308   0.15341   0.00000  Uiso   1.00
H225   H     0.47879   0.62036   0.15211   0.00000  Uiso   1.00
H226   H     0.44803   0.34410   0.14611   0.00000  Uiso   1.00
H227   H     0.33636   0.53857   0.29074   0.00000  Uiso   1.00
H228   H     0.63644   0.59219   0.43454   0.00000  Uiso   1.00
H229   H     0.33834   0.58345   0.01276   0.00000  Uiso   1.00
H230   H     0.46533   0.47144   0.08411   0.00000  Uiso   1.00
H231   H     0.35090   0.45840   0.39971   0.00000  Uiso   1.00
H232   H     0.39232   0.46812   0.04710   0.00000  Uiso   1.00
H233   H     0.65214   0.44332   0.49133   0.00000  Uiso   1.00
H234   H     0.55827   0.57144   0.38278   0.00000  Uiso   1.00
N235   N     0.64908   0.51407   0.26416   0.00000  Uiso   1.00
N236   N     0.35092   0.48593   0.23584   0.00000  Uiso   1.00
N237   N     0.42600   0.64757   0.22005   0.00000  Uiso   1.00
O238   O     0.46131   0.57141   0.24633   0.00000  Uiso   1.00
O239   O     0.56191   0.58089   0.25587   0.00000  Uiso   1.00
O240   O     0.42515   0.49293   0.31840   0.00000  Uiso   1.00
O241   O     0.52575   0.50241   0.32793   0.00000  Uiso   1.00
O242   O     0.43809   0.41911   0.24414   0.00000  Uiso   1.00
O243   O     0.53869   0.42859   0.25367   0.00000  Uiso   1.00
O244   O     0.47425   0.49759   0.17207   0.00000  Uiso   1.00
O245   O     0.57485   0.50707   0.18161   0.00000  Uiso   1.00
Br246  Br    0.99140   0.43920   0.18344   0.00000  Uiso   1.00
C247   C     0.84868   0.59998   0.25041   0.00000  Uiso   1.00
C248   C     0.77947   0.49877   0.40331   0.00000  Uiso   1.00
C249   C     0.85607   0.65587   0.25080   0.00000  Uiso   1.00
C250   C     0.80002   0.49943   0.34720   0.00000  Uiso   1.00
C251   C     0.81193   0.34426   0.23968   0.00000  Uiso   1.00
C252   C     0.81875   0.40007   0.24670   0.00000  Uiso   1.00
C253   C     0.86705   0.50379   0.15305   0.00000  Uiso   1.00
C254   C     0.95921   0.55950   0.02785   0.00000  Uiso   1.00
C255   C     0.88711   0.51266   0.09822   0.00000  Uiso   1.00
C256   C     0.71801   0.47275   0.42394   0.00000  Uiso   1.00
C257   C     0.69986   0.46312   0.47576   0.00000  Uiso   1.00
C258   C     0.80592   0.50330   0.48799   0.00000  Uiso   1.00
C259   C     0.74323   0.47714   0.00741   0.00000  Uiso   1.00
C260   C     0.77155   0.63934   0.16502   0.00000  Uiso   1.00
C261   C     0.82220   0.51838   0.43633   0.00000  Uiso   1.00
C262   C     0.85283   0.51551   0.01823   0.00000  Uiso   1.00
C263   C     0.91274   0.54690   0.49826   0.00000  Uiso   1.00
C264   C     0.92515   0.56642   0.44948   0.00000  Uiso   1.00
C265   C     0.88037   0.55304   0.41924   0.00000  Uiso   1.00
C266   C     0.84219   0.49722   0.06773   0.00000  Uiso   1.00
C267   C     0.94634   0.54270   0.07779   0.00000  Uiso   1.00
Cu268  Cu    0.77377   0.49439   0.24436   0.00000  Uiso   1.00
Cu269  Cu    0.89290   0.50561   0.25565   0.00000  Uiso   1.00
H270   H     0.98158   0.55502   0.10099   0.00000  Uiso   1.00
H271   H     0.89734   0.34635   0.26312   0.00000  Uiso   1.00
H272   H     0.71798   0.65975   0.23380   0.00000  Uiso   1.00
H273   H     0.72987   0.61308   0.15341   0.00000  Uiso   1.00
H274   H     0.81212   0.62036   0.15211   0.00000  Uiso   1.00
H275   H     0.78136   0.34410   0.14611   0.00000  Uiso   1.00
H276   H     0.66969   0.53857   0.29074   0.00000  Uiso   1.00
H277   H     0.96977   0.59219   0.43454   0.00000  Uiso   1.00
H278   H     0.67167   0.58345   0.01276   0.00000  Uiso   1.00
H279   H     0.79866   0.47144   0.08411   0.00000  Uiso   1.00
H280   H     0.68424   0.45840   0.39971   0.00000  Uiso   1.00
H281   H     0.72565   0.46812   0.04710   0.00000  Uiso   1.00
H282   H     0.98547   0.44332   0.49133   0.00000  Uiso   1.00
H283   H     0.89161   0.57144   0.38278   0.00000  Uiso   1.00
N284   N     0.98241   0.51407   0.26416   0.00000  Uiso   1.00
N285   N     0.68426   0.48593   0.23584   0.00000  Uiso   1.00
N286   N     0.75934   0.64757   0.22005   0.00000  Uiso   1.00
O287   O     0.79464   0.57141   0.24633   0.00000  Uiso   1.00
O288   O     0.89524   0.58089   0.25587   0.00000  Uiso   1.00
O289   O     0.75848   0.49293   0.31840   0.00000  Uiso   1.00
O290   O     0.85908   0.50241   0.32793   0.00000  Uiso   1.00
O291   O     0.77142   0.41911   0.24414   0.00000  Uiso   1.00
O292   O     0.87203   0.42859   0.25367   0.00000  Uiso   1.00
O293   O     0.80758   0.49759   0.17207   0.00000  Uiso   1.00
O294   O     0.90819   0.50707   0.18161   0.00000  Uiso   1.00
Br295  Br    0.32474   0.77254   0.18344   0.00000  Uiso   1.00
C296   C     0.18202   0.93331   0.25041   0.00000  Uiso   1.00
C297   C     0.11281   0.83211   0.40331   0.00000  Uiso   1.00
C298   C     0.18940   0.98920   0.25080   0.00000  Uiso   1.00
C299   C     0.13336   0.83276   0.34720   0.00000  Uiso   1.00
C300   C     0.14526   0.67759   0.23968   0.00000  Uiso   1.00
C301   C     0.15208   0.73340   0.24670   0.00000  Uiso   1.00
C302   C     0.20039   0.83713   0.15305   0.00000  Uiso   1.00
C303   C     0.29255   0.89284   0.02785   0.00000  Uiso   1.00
C304   C     0.22045   0.84599   0.09822   0.00000  Uiso   1.00
C305   C     0.05134   0.80608   0.42394   0.00000  Uiso   1.00
C306   C     0.03319   0.79646   0.47576   0.00000  Uiso   1.00
C307   C     0.13925   0.83663   0.48799   0.00000  Uiso   1.00
C308   C     0.07657   0.81048   0.00741   0.00000  Uiso   1.00
C309   C     0.10488   0.97267   0.16502   0.00000  Uiso   1.00
C310   C     0.15553   0.85171   0.43633   0.00000  Uiso   1.00
C311   C     0.18616   0.84885   0.01823   0.00000  Uiso   1.00
C312   C     0.24607   0.88023   0.49826   0.00000  Uiso   1.00
C313   C     0.25848   0.89975   0.44948   0.00000  Uiso   1.00
C314   C     0.21370   0.88638   0.41924   0.00000  Uiso   1.00
C315   C     0.17552   0.83055   0.06773   0.00000  Uiso   1.00
C316   C     0.27968   0.87603   0.07779   0.00000  Uiso   1.00
Cu317  Cu    0.10710   0.82772   0.24436   0.00000  Uiso   1.00
Cu318  Cu    0.22623   0.83895   0.25565   0.00000  Uiso   1.00
H319   H     0.31491   0.88836   0.10099   0.00000  Uiso   1.00
H320   H     0.23067   0.67969   0.26312   0.00000  Uiso   1.00
H321   H     0.05131   0.99308   0.23380   0.00000  Uiso   1.00
H322   H     0.06320   0.94641   0.15341   0.00000  Uiso   1.00
H323   H     0.14546   0.95369   0.15211   0.00000  Uiso   1.00
H324   H     0.11469   0.67744   0.14611   0.00000  Uiso   1.00
H325   H     0.00303   0.87191   0.29074   0.00000  Uiso   1.00
H326   H     0.30311   0.92552   0.43454   0.00000  Uiso   1.00
H327   H     0.00500   0.91678   0.01276   0.00000  Uiso   1.00
H328   H     0.13199   0.80477   0.08411   0.00000  Uiso   1.00
H329   H     0.01757   0.79174   0.39971   0.00000  Uiso   1.00
H330   H     0.05899   0.80145   0.04710   0.00000  Uiso   1.00
H331   H     0.31880   0.77666   0.49133   0.00000  Uiso   1.00
H332   H     0.22494   0.90478   0.38278   0.00000  Uiso   1.00
N333   N     0.31574   0.84741   0.26416   0.00000  Uiso   1.00
N334   N     0.01759   0.81926   0.23584   0.00000  Uiso   1.00
N335   N     0.09267   0.98090   0.22005   0.00000  Uiso   1.00
O336   O     0.12797   0.90474   0.24633   0.00000  Uiso   1.00
O337   O     0.22858   0.91422   0.25587   0.00000  Uiso   1.00
O338   O     0.09181   0.82627   0.31840   0.00000  Uiso   1.00
O339   O     0.19242   0.83575   0.32793   0.00000  Uiso   1.00
O340   O     0.10476   0.75245   0.24414   0.00000  Uiso   1.00
O341   O     0.20536   0.76193   0.25367   0.00000  Uiso   1.00
O342   O     0.14092   0.83092   0.17207   0.00000  Uiso   1.00
O343   O     0.24152   0.84040   0.18161   0.00000  Uiso   1.00
Br344  Br    0.65807   0.77254   0.18344   0.00000  Uiso   1.00
C345   C     0.51535   0.93331   0.25041   0.00000  Uiso   1.00
C346   C     0.44614   0.83211   0.40331   0.00000  Uiso   1.00
C347   C     0.52273   0.98920   0.25080   0.00000  Uiso   1.00
C348   C     0.46669   0.83276   0.34720   0.00000  Uiso   1.00
C349   C     0.47859   0.67759   0.23968   0.00000  Uiso   1.00
C350   C     0.48541   0.73340   0.24670   0.00000  Uiso   1.00
C351   C     0.53372   0.83713   0.15305   0.00000  Uiso   1.00
C352   C     0.62588   0.89284   0.02785   0.00000  Uiso   1.00
C353   C     0.55378   0.84599   0.09822   0.00000  Uiso   1.00
C354   C     0.38467   0.80608   0.42394   0.00000  Uiso   1.00
C355   C     0.36652   0.79646   0.47576   0.00000  Uiso   1.00
C356   C     0.47258   0.83663   0.48799   0.00000  Uiso   1.00
C357   C     0.40990   0.81048   0.00741   0.00000  Uiso   1.00
C358   C     0.43822   0.97267   0.16502   0.00000  Uiso   1.00
C359   C     0.48886   0.85171   0.43633   0.00000  Uiso   1.00
C360   C     0.51949   0.84885   0.01823   0.00000  Uiso   1.00
C361   C     0.57940   0.88023   0.49826   0.00000  Uiso   1.00
C362   C     0.59182   0.89975   0.44948   0.00000  Uiso   1.00
C363   C     0.54703   0.88638   0.41924   0.00000  Uiso   1.00
C364   C     0.50886   0.83055   0.06773   0.00000  Uiso   1.00
C365   C     0.61301   0.87603   0.07779   0.00000  Uiso   1.00
Cu366  Cu    0.44043   0.82772   0.24436   0.00000  Uiso   1.00
Cu367  Cu    0.55957   0.83895   0.25565   0.00000  Uiso   1.00
H368   H     0.64824   0.88836   0.10099   0.00000  Uiso   1.00
H369   H     0.56401   0.67969   0.26312   0.00000  Uiso   1.00
H370   H     0.38465   0.99308   0.23380   0.00000  Uiso   1.00
H371   H     0.39654   0.94641   0.15341   0.00000  Uiso   1.00
H372   H     0.47879   0.95369   0.15211   0.00000  Uiso   1.00
H373   H     0.44803   0.67744   0.14611   0.00000  Uiso   1.00
H374   H     0.33636   0.87191   0.29074   0.00000  Uiso   1.00
H375   H     0.63644   0.92552   0.43454   0.00000  Uiso   1.00
H376   H     0.33834   0.91678   0.01276   0.00000  Uiso   1.00
H377   H     0.46533   0.80477   0.08411   0.00000  Uiso   1.00
H378   H     0.35090   0.79174   0.39971   0.00000  Uiso   1.00
H379   H     0.39232   0.80145   0.04710   0.00000  Uiso   1.00
H380   H     0.65214   0.77666   0.49133   0.00000  Uiso   1.00
H381   H     0.55827   0.90478   0.38278   0.00000  Uiso   1.00
N382   N     0.64908   0.84741   0.26416   0.00000  Uiso   1.00
N383   N     0.35092   0.81926   0.23584   0.00000  Uiso   1.00
N384   N     0.42600   0.98090   0.22005   0.00000  Uiso   1.00
O385   O     0.46131   0.90474   0.24633   0.00000  Uiso   1.00
O386   O     0.56191   0.91422   0.25587   0.00000  Uiso   1.00
O387   O     0.42515   0.82627   0.31840   0.00000  Uiso   1.00
O388   O     0.52575   0.83575   0.32793   0.00000  Uiso   1.00
O389   O     0.43809   0.75245   0.24414   0.00000  Uiso   1.00
O390   O     0.53869   0.76193   0.25367   0.00000  Uiso   1.00
O391   O     0.47425   0.83092   0.17207   0.00000  Uiso   1.00
O392   O     0.57485   0.84040   0.18161   0.00000  Uiso   1.00
Br393  Br    0.99140   0.77254   0.18344   0.00000  Uiso   1.00
C394   C     0.84868   0.93331   0.25041   0.00000  Uiso   1.00
C395   C     0.77947   0.83211   0.40331   0.00000  Uiso   1.00
C396   C     0.85607   0.98920   0.25080   0.00000  Uiso   1.00
C397   C     0.80002   0.83276   0.34720   0.00000  Uiso   1.00
C398   C     0.81193   0.67759   0.23968   0.00000  Uiso   1.00
C399   C     0.81875   0.73340   0.24670   0.00000  Uiso   1.00
C400   C     0.86705   0.83713   0.15305   0.00000  Uiso   1.00
C401   C     0.95921   0.89284   0.02785   0.00000  Uiso   1.00
C402   C     0.88711   0.84599   0.09822   0.00000  Uiso   1.00
C403   C     0.71801   0.80608   0.42394   0.00000  Uiso   1.00
C404   C     0.69986   0.79646   0.47576   0.00000  Uiso   1.00
C405   C     0.80592   0.83663   0.48799   0.00000  Uiso   1.00
C406   C     0.74323   0.81048   0.00741   0.00000  Uiso   1.00
C407   C     0.77155   0.97267   0.16502   0.00000  Uiso   1.00
C408   C     0.82220   0.85171   0.43633   0.00000  Uiso   1.00
C409   C     0.85283   0.84885   0.01823   0.00000  Uiso   1.00
C410   C     0.91274   0.88023   0.49826   0.00000  Uiso   1.00
C411   C     0.92515   0.89975   0.44948   0.00000  Uiso   1.00
C412   C     0.88037   0.88638   0.41924   0.00000  Uiso   1.00
C413   C     0.84219   0.83055   0.06773   0.00000  Uiso   1.00
C414   C     0.94634   0.87603   0.07779   0.00000  Uiso   1.00
Cu415  Cu    0.77377   0.82772   0.24436   0.00000  Uiso   1.00
Cu416  Cu    0.89290   0.83895   0.25565   0.00000  Uiso   1.00
H417   H     0.98158   0.88836   0.10099   0.00000  Uiso   1.00
H418   H     0.89734   0.67969   0.26312   0.00000  Uiso   1.00
H419   H     0.71798   0.99308   0.23380   0.00000  Uiso   1.00
H420   H     0.72987   0.94641   0.15341   0.00000  Uiso   1.00
H421   H     0.81212   0.95369   0.15211   0.00000  Uiso   1.00
H422   H     0.78136   0.67744   0.14611   0.00000  Uiso   1.00
H423   H     0.66969   0.87191   0.29074   0.00000  Uiso   1.00
H424   H     0.96977   0.92552   0.43454   0.00000  Uiso   1.00
H425   H     0.67167   0.91678   0.01276   0.00000  Uiso   1.00
H426   H     0.79866   0.80477   0.08411   0.00000  Uiso   1.00
H427   H     0.68424   0.79174   0.39971   0.00000  Uiso   1.00
H428   H     0.72565   0.80145   0.04710   0.00000  Uiso   1.00
H429   H     0.98547   0.77666   0.49133   0.00000  Uiso   1.00
H430   H     0.89161   0.90478   0.38278   0.00000  Uiso   1.00
N431   N     0.98241   0.84741   0.26416   0.00000  Uiso   1.00
N432   N     0.68426   0.81926   0.23584   0.00000  Uiso   1.00
N433   N     0.75934   0.98090   0.22005   0.00000  Uiso   1.00
O434   O     0.79464   0.90474   0.24633   0.00000  Uiso   1.00
O435   O     0.89524   0.91422   0.25587   0.00000  Uiso   1.00
O436   O     0.75848   0.82627   0.31840   0.00000  Uiso   1.00
O437   O     0.85908   0.83575   0.32793   0.00000  Uiso   1.00
O438   O     0.77142   0.75245   0.24414   0.00000  Uiso   1.00
O439   O     0.87203   0.76193   0.25367   0.00000  Uiso   1.00
O440   O     0.80758   0.83092   0.17207   0.00000  Uiso   1.00
O441   O     0.90819   0.84040   0.18161   0.00000  Uiso   1.00
Br442  Br    0.32474   0.10587   0.68344   0.00000  Uiso   1.00
C443   C     0.18202   0.26664   0.75041   0.00000  Uiso   1.00
C444   C     0.11281   0.16544   0.90331   0.00000  Uiso   1.00
C445   C     0.18940   0.32253   0.75080   0.00000  Uiso   1.00
C446   C     0.13336   0.16609   0.84720   0.00000  Uiso   1.00
C447   C     0.14526   0.01092   0.73968   0.00000  Uiso   1.00
C448   C     0.15208   0.06673   0.74670   0.00000  Uiso   1.00
C449   C     0.20039   0.17046   0.65305   0.00000  Uiso   1.00
C450   C     0.29255   0.22617   0.52785   0.00000  Uiso   1.00
C451   C     0.22045   0.17932   0.59822   0.00000  Uiso   1.00
C452   C     0.05134   0.13941   0.92394   0.00000  Uiso   1.00
C453   C     0.03319   0.12979   0.97576   0.00000  Uiso   1.00
C454   C     0.13925   0.16996   0.98799   0.00000  Uiso   1.00
C455   C     0.07657   0.14381   0.50741   0.00000  Uiso   1.00
C456   C     0.10488   0.30600   0.66502   0.00000  Uiso   1.00
C457   C     0.15553   0.18504   0.93633   0.00000  Uiso   1.00
C458   C     0.18616   0.18218   0.51823   0.00000  Uiso   1.00
C459   C     0.24607   0.21357   0.99826   0.00000  Uiso   1.00
C460   C     0.25848   0.23309   0.94948   0.00000  Uiso   1.00
C461   C     0.21370   0.21971   0.91924   0.00000  Uiso   1.00
C462   C     0.17552   0.16389   0.56773   0.00000  Uiso   1.00
C463   C     0.27968   0.20937   0.57779   0.00000  Uiso   1.00
Cu464  Cu    0.10710   0.16105   0.74436   0.00000  Uiso   1.00
Cu465  Cu    0.22623   0.17228   0.75565   0.00000  Uiso   1.00
H466   H     0.31491   0.22169   0.60099   0.00000  Uiso   1.00
H467   H     0.23067   0.01302   0.76312   0.00000  Uiso   1.00
H468   H     0.05131   0.32641   0.73380   0.00000  Uiso   1.00
H469   H     0.06320   0.27974   0.65341   0.00000  Uiso   1.00
H470   H     0.14546   0.28702   0.65211   0.00000  Uiso   1.00
H471   H     0.11469   0.01077   0.64611   0.00000  Uiso   1.00
H472   H     0.00303   0.20524   0.79074   0.00000  Uiso   1.00
H473   H     0.30311   0.25885   0.93454   0.00000  Uiso   1.00
H474   H     0.00500   0.25012   0.51276   0.00000  Uiso   1.00
H475   H     0.13199   0.13810   0.58411   0.00000  Uiso   1.00
H476   H     0.01757   0.12507   0.89971   0.00000  Uiso   1.00
H477   H     0.05899   0.13479   0.54710   0.00000  Uiso   1.00
H478   H     0.31880   0.10999   0.99133   0.00000  Uiso   1.00
H479   H     0.22494   0.23811   0.88278   0.00000  Uiso   1.00
N480   N     0.31574   0.18074   0.76416   0.00000  Uiso   1.00
N481   N     0.01759   0.15259   0.73584   0.00000  Uiso   1.00
N482   N     0.09267   0.31424   0.72005   0.00000  Uiso   1.00
O483   O     0.12797   0.23807   0.74633   0.00000  Uiso   1.00
O484   O     0.22858   0.24755   0.75587   0.00000  Uiso   1.00
O485   O     0.09181   0.15960   0.81840   0.00000  Uiso   1.00
O486   O     0.19242   0.16908   0.82793   0.00000  Uiso   1.00
O487   O     0.10476   0.08578   0.74414   0.00000  Uiso   1.00
O488   O     0.20536   0.09526   0.75367   0.00000  Uiso   1.00
O489   O     0.14092   0.16425   0.67207   0.00000  Uiso   1.00
O490   O     0.24152   0.17373   0.68161   0.00000  Uiso   1.00
Br491  Br    0.65807   0.10587   0.68344   0.00000  Uiso   1.00
C492   C     0.51535   0.26664   0.75041   0.00000  Uiso   1.00
C493   C     0.44614   0.16544   0.90331   0.00000  Uiso   1.00
C494   C     0.52273   0.32253   0.75080   0.00000  Uiso   1.00
C495   C     0.46669   0.16609   0.84720   0.00000  Uiso   1.00
C496   C     0.47859   0.01092   0.73968   0.00000  Uiso   1.00
C497   C     0.48541   0.06673   0.74670   0.00000  Uiso   1.00
C498   C     0.53372   0.17046   0.65305   0.00000  Uiso   1.00
C499   C     0.62588   0.22617   0.52785   0.00000  Uiso   1.00
C500   C     0.55378   0.17932   0.59822   0.00000  Uiso   1.00
C501   C     0.38467   0.13941   0.92394   0.00000  Uiso   1.00
C502   C     0.36652   0.12979   0.97576   0.00000  Uiso   1.00
C503   C     0.47258   0.16996   0.98799   0.00000  Uiso   1.00
C504   C     0.40990   0.14381   0.50741   0.00000  Uiso   1.00
C505   C     0.43822   0.30600   0.66502   0.00000  Uiso   1.00
C506   C     0.48886   0.18504   0.93633   0.00000  Uiso   1.00
C507   C     0.51949   0.18218   0.51823   0.00000  Uiso   1.00
C508   C     0.57940   0.21357   0.99826   0.00000  Uiso   1.00
C509   C     0.59182   0.23309   0.94948   0.00000  Uiso   1.00
C510   C     0.54703   0.21971   0.91924   0.00000  Uiso   1.00
C511   C     0.50886   0.16389   0.56773   0.00000  Uiso   1.00
C512   C     0.61301   0.20937   0.57779   0.00000  Uiso   1.00
Cu513  Cu    0.44043   0.16105   0.74436   0.00000  Uiso   1.00
Cu514  Cu    0.55957   0.17228   0.75565   0.00000  Uiso   1.00
H515   H     0.64824   0.22169   0.60099   0.00000  Uiso   1.00
H516   H     0.56401   0.01302   0.76312   0.00000  Uiso   1.00
H517   H     0.38465   0.32641   0.73380   0.00000  Uiso   1.00
H518   H     0.39654   0.27974   0.65341   0.00000  Uiso   1.00
H519   H     0.47879   0.28702   0.65211   0.00000  Uiso   1.00
H520   H     0.44803   0.01077   0.64611   0.00000  Uiso   1.00
H521   H     0.33636   0.20524   0.79074   0.00000  Uiso   1.00
H522   H     0.63644   0.25885   0.93454   0.00000  Uiso   1.00
H523   H     0.33834   0.25012   0.51276   0.00000  Uiso   1.00
H524   H     0.46533   0.13810   0.58411   0.00000  Uiso   1.00
H525   H     0.35090   0.12507   0.89971   0.00000  Uiso   1.00
H526   H     0.39232   0.13479   0.54710   0.00000  Uiso   1.00
H527   H     0.65214   0.10999   0.99133   0.00000  Uiso   1.00
H528   H     0.55827   0.23811   0.88278   0.00000  Uiso   1.00
N529   N     0.64908   0.18074   0.76416   0.00000  Uiso   1.00
N530   N     0.35092   0.15259   0.73584   0.00000  Uiso   1.00
N531   N     0.42600   0.31424   0.72005   0.00000  Uiso   1.00
O532   O     0.46131   0.23807   0.74633   0.00000  Uiso   1.00
O533   O     0.56191   0.24755   0.75587   0.00000  Uiso   1.00
O534   O     0.42515   0.15960   0.81840   0.00000  Uiso   1.00
O535   O     0.52575   0.16908   0.82793   0.00000  Uiso   1.00
O536   O     0.43809   0.08578   0.74414   0.00000  Uiso   1.00
O537   O     0.53869   0.09526   0.75367   0.00000  Uiso   1.00
O538   O     0.47425   0.16425   0.67207   0.00000  Uiso   1.00
O539   O     0.57485   0.17373   0.68161   0.00000  Uiso   1.00
Br540  Br    0.99140   0.10587   0.68344   0.00000  Uiso   1.00
C541   C     0.84868   0.26664   0.75041   0.00000  Uiso   1.00
C542   C     0.77947   0.16544   0.90331   0.00000  Uiso   1.00
C543   C     0.85607   0.32253   0.75080   0.00000  Uiso   1.00
C544   C     0.80002   0.16609   0.84720   0.00000  Uiso   1.00
C545   C     0.81193   0.01092   0.73968   0.00000  Uiso   1.00
C546   C     0.81875   0.06673   0.74670   0.00000  Uiso   1.00
C547   C     0.86705   0.17046   0.65305   0.00000  Uiso   1.00
C548   C     0.95921   0.22617   0.52785   0.00000  Uiso   1.00
C549   C     0.88711   0.17932   0.59822   0.00000  Uiso   1.00
C550   C     0.71801   0.13941   0.92394   0.00000  Uiso   1.00
C551   C     0.69986   0.12979   0.97576   0.00000  Uiso   1.00
C552   C     0.80592   0.16996   0.98799   0.00000  Uiso   1.00
C553   C     0.74323   0.14381   0.50741   0.00000  Uiso   1.00
C554   C     0.77155   0.30600   0.66502   0.00000  Uiso   1.00
C555   C     0.82220   0.18504   0.93633   0.00000  Uiso   1.00
C556   C     0.85283   0.18218   0.51823   0.00000  Uiso   1.00
C557   C     0.91274   0.21357   0.99826   0.00000  Uiso   1.00
C558   C     0.92515   0.23309   0.94948   0.00000  Uiso   1.00
C559   C     0.88037   0.21971   0.91924   0.00000  Uiso   1.00
C560   C     0.84219   0.16389   0.56773   0.00000  Uiso   1.00
C561   C     0.94634   0.20937   0.57779   0.00000  Uiso   1.00
Cu562  Cu    0.77377   0.16105   0.74436   0.00000  Uiso   1.00
Cu563  Cu    0.89290   0.17228   0.75565   0.00000  Uiso   1.00
H564   H     0.98158   0.22169   0.60099   0.00000  Uiso   1.00
H565   H     0.89734   0.01302   0.76312   0.00000  Uiso   1.00
H566   H     0.71798   0.32641   0.73380   0.00000  Uiso   1.00
H567   H     0.72987   0.27974   0.65341   0.00000  Uiso   1.00
H568   H     0.81212   0.28702   0.65211   0.00000  Uiso   1.00
H569   H     0.78136   0.01077   0.64611   0.00000  Uiso   1.00
H570   H     0.66969   0.20524   0.79074   0.00000  Uiso   1.00
H571   H     0.96977   0.25885   0.93454   0.00000  Uiso   1.00
H572   H     0.67167   0.25012   0.51276   0.00000  Uiso   1.00
H573   H     0.79866   0.13810   0.58411   0.00000  Uiso   1.00
H574   H     0.68424   0.12507   0.89971   0.00000  Uiso   1.00
H575   H     0.72565   0.13479   0.54710   0.00000  Uiso   1.00
H576   H     0.98547   0.10999   0.99133   0.00000  Uiso   1.00
H577   H     0.89161   0.23811   0.88278   0.00000  Uiso   1.00
N578   N     0.98241   0.18074   0.76416   0.00000  Uiso   1.00
N579   N     0.68426   0.15259   0.73584   0.00000  Uiso   1.00
N580   N     0.75934   0.31424   0.72005   0.00000  Uiso   1.00
O581   O     0.79464   0.23807   0.74633   0.00000  Uiso   1.00
O582   O     0.89524   0.24755   0.75587   0.00000  Uiso   1.00
O583   O     0.75848   0.15960   0.81840   0.00000  Uiso   1.00
O584   O     0.85908   0.16908   0.82793   0.00000  Uiso   1.00
O585   O     0.77142   0.08578   0.74414   0.00000  Uiso   1.00
O586   O     0.87203   0.09526   0.75367   0.00000  Uiso   1.00
O587   O     0.80758   0.16425   0.67207   0.00000  Uiso   1.00
O588   O     0.90819   0.17373   0.68161   0.00000  Uiso   1.00
Br589  Br    0.32474   0.43920   0.68344   0.00000  Uiso   1.00
C590   C     0.18202   0.59998   0.75041   0.00000  Uiso   1.00
C591   C     0.11281   0.49877   0.90331   0.00000  Uiso   1.00
C592   C     0.18940   0.65587   0.75080   0.00000  Uiso   1.00
C593   C     0.13336   0.49943   0.84720   0.00000  Uiso   1.00
C594   C     0.14526   0.34426   0.73968   0.00000  Uiso   1.00
C595   C     0.15208   0.40007   0.74670   0.00000  Uiso   1.00
C596   C     0.20039   0.50379   0.65305   0.00000  Uiso   1.00
C597   C     0.29255   0.55950   0.52785   0.00000  Uiso   1.00
C598   C     0.22045   0.51266   0.59822   0.00000  Uiso   1.00
C599   C     0.05134   0.47275   0.92394   0.00000  Uiso   1.00
C600   C     0.03319   0.46312   0.97576   0.00000  Uiso   1.00
C601   C     0.13925   0.50330   0.98799   0.00000  Uiso   1.00
C602   C     0.07657   0.47714   0.50741   0.00000  Uiso   1.00
C603   C     0.10488   0.63934   0.66502   0.00000  Uiso   1.00
C604   C     0.15553   0.51838   0.93633   0.00000  Uiso   1.00
C605   C     0.18616   0.51551   0.51823   0.00000  Uiso   1.00
C606   C     0.24607   0.54690   0.99826   0.00000  Uiso   1.00
C607   C     0.25848   0.56642   0.94948   0.00000  Uiso   1.00
C608   C     0.21370   0.55304   0.91924   0.00000  Uiso   1.00
C609   C     0.17552   0.49722   0.56773   0.00000  Uiso   1.00
C610   C     0.27968   0.54270   0.57779   0.00000  Uiso   1.00
Cu611  Cu    0.10710   0.49439   0.74436   0.00000  Uiso   1.00
Cu612  Cu    0.22623   0.50561   0.75565   0.00000  Uiso   1.00
H613   H     0.31491   0.55502   0.60099   0.00000  Uiso   1.00
H614   H     0.23067   0.34635   0.76312   0.00000  Uiso   1.00
H615   H     0.05131   0.65975   0.73380   0.00000  Uiso   1.00
H616   H     0.06320   0.61308   0.65341   0.00000  Uiso   1.00
H617   H     0.14546   0.62036   0.65211   0.00000  Uiso   1.00
H618   H     0.11469   0.34410   0.64611   0.00000  Uiso   1.00
H619   H     0.00303   0.53857   0.79074   0.00000  Uiso   1.00
H620   H     0.30311   0.59219   0.93454   0.00000  Uiso   1.00
H621   H     0.00500   0.58345   0.51276   0.00000  Uiso   1.00
H622   H     0.13199   0.47144   0.58411   0.00000  Uiso   1.00
H623   H     0.01757   0.45840   0.89971   0.00000  Uiso   1.00
H624   H     0.05899   0.46812   0.54710   0.00000  Uiso   1.00
H625   H     0.31880   0.44332   0.99133   0.00000  Uiso   1.00
H626   H     0.22494   0.57144   0.88278   0.00000  Uiso   1.00
N627   N     0.31574   0.51407   0.76416   0.00000  Uiso   1.00
N628   N     0.01759   0.48593   0.73584   0.00000  Uiso   1.00
N629   N     0.09267   0.64757   0.72005   0.00000  Uiso   1.00
O630   O     0.12797   0.57141   0.74633   0.00000  Uiso   1.00
O631   O     0.22858   0.58089   0.75587   0.00000  Uiso   1.00
O632   O     0.09181   0.49293   0.81840   0.00000  Uiso   1.00
O633   O     0.19242   0.50241   0.82793   0.00000  Uiso   1.00
O634   O     0.10476   0.41911   0.74414   0.00000  Uiso   1.00
O635   O     0.20536   0.42859   0.75367   0.00000  Uiso   1.00
O636   O     0.14092   0.49759   0.67207   0.00000  Uiso   1.00
O637   O     0.24152   0.50707   0.68161   0.00000  Uiso   1.00
Br638  Br    0.65807   0.43920   0.68344   0.00000  Uiso   1.00
C639   C     0.51535   0.59998   0.75041   0.00000  Uiso   1.00
C640   C     0.44614   0.49877   0.90331   0.00000  Uiso   1.00
C641   C     0.52273   0.65587   0.75080   0.00000  Uiso   1.00
C642   C     0.46669   0.49943   0.84720   0.00000  Uiso   1.00
C643   C     0.47859   0.34426   0.73968   0.00000  Uiso   1.00
C644   C     0.48541   0.40007   0.74670   0.00000  Uiso   1.00
C645   C     0.53372   0.50379   0.65305   0.00000  Uiso   1.00
C646   C     0.62588   0.55950   0.52785   0.00000  Uiso   1.00
C647   C     0.55378   0.51266   0.59822   0.00000  Uiso   1.00
C648   C     0.38467   0.47275   0.92394   0.00000  Uiso   1.00
C649   C     0.36652   0.46312   0.97576   0.00000  Uiso   1.00
C650   C     0.47258   0.50330   0.98799   0.00000  Uiso   1.00
C651   C     0.40990   0.47714   0.50741   0.00000  Uiso   1.00
C652   C     0.43822   0.63934   0.66502   0.00000  Uiso   1.00
C653   C     0.48886   0.51838   0.93633   0.00000  Uiso   1.00
C654   C     0.51949   0.51551   0.51823   0.00000  Uiso   1.00
C655   C     0.57940   0.54690   0.99826   0.00000  Uiso   1.00
C656   C     0.59182   0.56642   0.94948   0.00000  Uiso   1.00
C657   C     0.54703   0.55304   0.91924   0.00000  Uiso   1.00
C658   C     0.50886   0.49722   0.56773   0.00000  Uiso   1.00
C659   C     0.61301   0.54270   0.57779   0.00000  Uiso   1.00
Cu660  Cu    0.44043   0.49439   0.74436   0.00000  Uiso   1.00
Cu661  Cu    0.55957   0.50561   0.75565   0.00000  Uiso   1.00
H662   H     0.64824   0.55502   0.60099   0.00000  Uiso   1.00
H663   H     0.56401   0.34635   0.76312   0.00000  Uiso   1.00
H664   H     0.38465   0.65975   0.73380   0.00000  Uiso   1.00
H665   H     0.39654   0.61308   0.65341   0.00000  Uiso   1.00
H666   H     0.47879   0.62036   0.65211   0.00000  Uiso   1.00
H667   H     0.44803   0.34410   0.64611   0.00000  Uiso   1.00
H668   H     0.33636   0.53857   0.79074   0.00000  Uiso   1.00
H669   H     0.63644   0.59219   0.93454   0.00000  Uiso   1.00
H670   H     0.33834   0.58345   0.51276   0.00000  Uiso   1.00
H671   H     0.46533   0.47144   0.58411   0.00000  Uiso   1.00
H672   H     0.35090   0.45840   0.89971   0.00000  Uiso   1.00
H673   H     0.39232   0.46812   0.54710   0.00000  Uiso   1.00
H674   H     0.65214   0.44332   0.99133   0.00000  Uiso   1.00
H675   H     0.55827   0.57144   0.88278   0.00000  Uiso   1.00
N676   N     0.64908   0.51407   0.76416   0.00000  Uiso   1.00
N677   N     0.35092   0.48593   0.73584   0.00000  Uiso   1.00
N678   N     0.42600   0.64757   0.72005   0.00000  Uiso   1.00
O679   O     0.46131   0.57141   0.74633   0.00000  Uiso   1.00
O680   O     0.56191   0.58089   0.75587   0.00000  Uiso   1.00
O681   O     0.42515   0.49293   0.81840   0.00000  Uiso   1.00
O682   O     0.52575   0.50241   0.82793   0.00000  Uiso   1.00
O683   O     0.43809   0.41911   0.74414   0.00000  Uiso   1.00
O684   O     0.53869   0.42859   0.75367   0.00000  Uiso   1.00
O685   O     0.47425   0.49759   0.67207   0.00000  Uiso   1.00
O686   O     0.57485   0.50707   0.68161   0.00000  Uiso   1.00
Br687  Br    0.99140   0.43920   0.68344   0.00000  Uiso   1.00
C688   C     0.84868   0.59998   0.75041   0.00000  Uiso   1.00
C689   C     0.77947   0.49877   0.90331   0.00000  Uiso   1.00
C690   C     0.85607   0.65587   0.75080   0.00000  Uiso   1.00
C691   C     0.80002   0.49943   0.84720   0.00000  Uiso   1.00
C692   C     0.81193   0.34426   0.73968   0.00000  Uiso   1.00
C693   C     0.81875   0.40007   0.74670   0.00000  Uiso   1.00
C694   C     0.86705   0.50379   0.65305   0.00000  Uiso   1.00
C695   C     0.95921   0.55950   0.52785   0.00000  Uiso   1.00
C696   C     0.88711   0.51266   0.59822   0.00000  Uiso   1.00
C697   C     0.71801   0.47275   0.92394   0.00000  Uiso   1.00
C698   C     0.69986   0.46312   0.97576   0.00000  Uiso   1.00
C699   C     0.80592   0.50330   0.98799   0.00000  Uiso   1.00
C700   C     0.74323   0.47714   0.50741   0.00000  Uiso   1.00
C701   C     0.77155   0.63934   0.66502   0.00000  Uiso   1.00
C702   C     0.82220   0.51838   0.93633   0.00000  Uiso   1.00
C703   C     0.85283   0.51551   0.51823   0.00000  Uiso   1.00
C704   C     0.91274   0.54690   0.99826   0.00000  Uiso   1.00
C705   C     0.92515   0.56642   0.94948   0.00000  Uiso   1.00
C706   C     0.88037   0.55304   0.91924   0.00000  Uiso   1.00
C707   C     0.84219   0.49722   0.56773   0.00000  Uiso   1.00
C708   C     0.94634   0.54270   0.57779   0.00000  Uiso   1.00
Cu709  Cu    0.77377   0.49439   0.74436   0.00000  Uiso   1.00
Cu710  Cu    0.89290   0.50561   0.75565   0.00000  Uiso   1.00
H711   H     0.98158   0.55502   0.60099   0.00000  Uiso   1.00
H712   H     0.89734   0.34635   0.76312   0.00000  Uiso   1.00
H713   H     0.71798   0.65975   0.73380   0.00000  Uiso   1.00
H714   H     0.72987   0.61308   0.65341   0.00000  Uiso   1.00
H715   H     0.81212   0.62036   0.65211   0.00000  Uiso   1.00
H716   H     0.78136   0.34410   0.64611   0.00000  Uiso   1.00
H717   H     0.66969   0.53857   0.79074   0.00000  Uiso   1.00
H718   H     0.96977   0.59219   0.93454   0.00000  Uiso   1.00
H719   H     0.67167   0.58345   0.51276   0.00000  Uiso   1.00
H720   H     0.79866   0.47144   0.58411   0.00000  Uiso   1.00
H721   H     0.68424   0.45840   0.89971   0.00000  Uiso   1.00
H722   H     0.72565   0.46812   0.54710   0.00000  Uiso   1.00
H723   H     0.98547   0.44332   0.99133   0.00000  Uiso   1.00
H724   H     0.89161   0.57144   0.88278   0.00000  Uiso   1.00
N725   N     0.98241   0.51407   0.76416   0.00000  Uiso   1.00
N726   N     0.68426   0.48593   0.73584   0.00000  Uiso   1.00
N727   N     0.75934   0.64757   0.72005   0.00000  Uiso   1.00
O728   O     0.79464   0.57141   0.74633   0.00000  Uiso   1.00
O729   O     0.89524   0.58089   0.75587   0.00000  Uiso   1.00
O730   O     0.75848   0.49293   0.81840   0.00000  Uiso   1.00
O731   O     0.85908   0.50241   0.82793   0.00000  Uiso   1.00
O732   O     0.77142   0.41911   0.74414   0.00000  Uiso   1.00
O733   O     0.87203   0.42859   0.75367   0.00000  Uiso   1.00
O734   O     0.80758   0.49759   0.67207   0.00000  Uiso   1.00
O735   O     0.90819   0.50707   0.68161   0.00000  Uiso   1.00
Br736  Br    0.32474   0.77254   0.68344   0.00000  Uiso   1.00
C737   C     0.18202   0.93331   0.75041   0.00000  Uiso   1.00
C738   C     0.11281   0.83211   0.90331   0.00000  Uiso   1.00
C739   C     0.18940   0.98920   0.75080   0.00000  Uiso   1.00
C740   C     0.13336   0.83276   0.84720   0.00000  Uiso   1.00
C741   C     0.14526   0.67759   0.73968   0.00000  Uiso   1.00
C742   C     0.15208   0.73340   0.74670   0.00000  Uiso   1.00
C743   C     0.20039   0.83713   0.65305   0.00000  Uiso   1.00
C744   C     0.29255   0.89284   0.52785   0.00000  Uiso   1.00
C745   C     0.22045   0.84599   0.59822   0.00000  Uiso   1.00
C746   C     0.05134   0.80608   0.92394   0.00000  Uiso   1.00
C747   C     0.03319   0.79646   0.97576   0.00000  Uiso   1.00
C748   C     0.13925   0.83663   0.98799   0.00000  Uiso   1.00
C749   C     0.07657   0.81048   0.50741   0.00000  Uiso   1.00
C750   C     0.10488   0.97267   0.66502   0.00000  Uiso   1.00
C751   C     0.15553   0.85171   0.93633   0.00000  Uiso   1.00
C752   C     0.18616   0.84885   0.51823   0.00000  Uiso   1.00
C753   C     0.24607   0.88023   0.99826   0.00000  Uiso   1.00
C754   C     0.25848   0.89975   0.94948   0.00000  Uiso   1.00
C755   C     0.21370   0.88638   0.91924   0.00000  Uiso   1.00
C756   C     0.17552   0.83055   0.56773   0.00000  Uiso   1.00
C757   C     0.27968   0.87603   0.57779   0.00000  Uiso   1.00
Cu758  Cu    0.10710   0.82772   0.74436   0.00000  Uiso   1.00
Cu759  Cu    0.22623   0.83895   0.75565   0.00000  Uiso   1.00
H760   H     0.31491   0.88836   0.60099   0.00000  Uiso   1.00
H761   H     0.23067   0.67969   0.76312   0.00000  Uiso   1.00
H762   H     0.05131   0.99308   0.73380   0.00000  Uiso   1.00
H763   H     0.06320   0.94641   0.65341   0.00000  Uiso   1.00
H764   H     0.14546   0.95369   0.65211   0.00000  Uiso   1.00
H765   H     0.11469   0.67744   0.64611   0.00000  Uiso   1.00
H766   H     0.00303   0.87191   0.79074   0.00000  Uiso   1.00
H767   H     0.30311   0.92552   0.93454   0.00000  Uiso   1.00
H768   H     0.00500   0.91678   0.51276   0.00000  Uiso   1.00
H769   H     0.13199   0.80477   0.58411   0.00000  Uiso   1.00
H770   H     0.01757   0.79174   0.89971   0.00000  Uiso   1.00
H771   H     0.05899   0.80145   0.54710   0.00000  Uiso   1.00
H772   H     0.31880   0.77666   0.99133   0.00000  Uiso   1.00
H773   H     0.22494   0.90478   0.88278   0.00000  Uiso   1.00
N774   N     0.31574   0.84741   0.76416   0.00000  Uiso   1.00
N775   N     0.01759   0.81926   0.73584   0.00000  Uiso   1.00
N776   N     0.09267   0.98090   0.72005   0.00000  Uiso   1.00
O777   O     0.12797   0.90474   0.74633   0.00000  Uiso   1.00
O778   O     0.22858   0.91422   0.75587   0.00000  Uiso   1.00
O779   O     0.09181   0.82627   0.81840   0.00000  Uiso   1.00
O780   O     0.19242   0.83575   0.82793   0.00000  Uiso   1.00
O781   O     0.10476   0.75245   0.74414   0.00000  Uiso   1.00
O782   O     0.20536   0.76193   0.75367   0.00000  Uiso   1.00
O783   O     0.14092   0.83092   0.67207   0.00000  Uiso   1.00
O784   O     0.24152   0.84040   0.68161   0.00000  Uiso   1.00
Br785  Br    0.65807   0.77254   0.68344   0.00000  Uiso   1.00
C786   C     0.51535   0.93331   0.75041   0.00000  Uiso   1.00
C787   C     0.44614   0.83211   0.90331   0.00000  Uiso   1.00
C788   C     0.52273   0.98920   0.75080   0.00000  Uiso   1.00
C789   C     0.46669   0.83276   0.84720   0.00000  Uiso   1.00
C790   C     0.47859   0.67759   0.73968   0.00000  Uiso   1.00
C791   C     0.48541   0.73340   0.74670   0.00000  Uiso   1.00
C792   C     0.53372   0.83713   0.65305   0.00000  Uiso   1.00
C793   C     0.62588   0.89284   0.52785   0.00000  Uiso   1.00
C794   C     0.55378   0.84599   0.59822   0.00000  Uiso   1.00
C795   C     0.38467   0.80608   0.92394   0.00000  Uiso   1.00
C796   C     0.36652   0.79646   0.97576   0.00000  Uiso   1.00
C797   C     0.47258   0.83663   0.98799   0.00000  Uiso   1.00
C798   C     0.40990   0.81048   0.50741   0.00000  Uiso   1.00
C799   C     0.43822   0.97267   0.66502   0.00000  Uiso   1.00
C800   C     0.48886   0.85171   0.93633   0.00000  Uiso   1.00
C801   C     0.51949   0.84885   0.51823   0.00000  Uiso   1.00
C802   C     0.57940   0.88023   0.99826   0.00000  Uiso   1.00
C803   C     0.59182   0.89975   0.94948   0.00000  Uiso   1.00
C804   C     0.54703   0.88638   0.91924   0.00000  Uiso   1.00
C805   C     0.50886   0.83055   0.56773   0.00000  Uiso   1.00
C806   C     0.61301   0.87603   0.57779   0.00000  Uiso   1.00
Cu807  Cu    0.44043   0.82772   0.74436   0.00000  Uiso   1.00
Cu808  Cu    0.55957   0.83895   0.75565   0.00000  Uiso   1.00
H809   H     0.64824   0.88836   0.60099   0.00000  Uiso   1.00
H810   H     0.56401   0.67969   0.76312   0.00000  Uiso   1.00
H811   H     0.38465   0.99308   0.73380   0.00000  Uiso   1.00
H812   H     0.39654   0.94641   0.65341   0.00000  Uiso   1.00
H813   H     0.47879   0.95369   0.65211   0.00000  Uiso   1.00
H814   H     0.44803   0.67744   0.64611   0.00000  Uiso   1.00
H815   H     0.33636   0.87191   0.79074   0.00000  Uiso   1.00
H816   H     0.63644   0.92552   0.93454   0.00000  Uiso   1.00
H817   H     0.33834   0.91678   0.51276   0.00000  Uiso   1.00
H818   H     0.46533   0.80477   0.58411   0.00000  Uiso   1.00
H819   H     0.35090   0.79174   0.89971   0.00000  Uiso   1.00
H820   H     0.39232   0.80145   0.54710   0.00000  Uiso   1.00
H821   H     0.65214   0.77666   0.99133   0.00000  Uiso   1.00
H822   H     0.55827   0.90478   0.88278   0.00000  Uiso   1.00
N823   N     0.64908   0.84741   0.76416   0.00000  Uiso   1.00
N824   N     0.35092   0.81926   0.73584   0.00000  Uiso   1.00
N825   N     0.42600   0.98090   0.72005   0.00000  Uiso   1.00
O826   O     0.46131   0.90474   0.74633   0.00000  Uiso   1.00
O827   O     0.56191   0.91422   0.75587   0.00000  Uiso   1.00
O828   O     0.42515   0.82627   0.81840   0.00000  Uiso   1.00
O829   O     0.52575   0.83575   0.82793   0.00000  Uiso   1.00
O830   O     0.43809   0.75245   0.74414   0.00000  Uiso   1.00
O831   O     0.53869   0.76193   0.75367   0.00000  Uiso   1.00
O832   O     0.47425   0.83092   0.67207   0.00000  Uiso   1.00
O833   O     0.57485   0.84040   0.68161   0.00000  Uiso   1.00
Br834  Br    0.99140   0.77254   0.68344   0.00000  Uiso   1.00
C835   C     0.84868   0.93331   0.75041   0.00000  Uiso   1.00
C836   C     0.77947   0.83211   0.90331   0.00000  Uiso   1.00
C837   C     0.85607   0.98920   0.75080   0.00000  Uiso   1.00
C838   C     0.80002   0.83276   0.84720   0.00000  Uiso   1.00
C839   C     0.81193   0.67759   0.73968   0.00000  Uiso   1.00
C840   C     0.81875   0.73340   0.74670   0.00000  Uiso   1.00
C841   C     0.86705   0.83713   0.65305   0.00000  Uiso   1.00
C842   C     0.95921   0.89284   0.52785   0.00000  Uiso   1.00
C843   C     0.88711   0.84599   0.59822   0.00000  Uiso   1.00
C844   C     0.71801   0.80608   0.92394   0.00000  Uiso   1.00
C845   C     0.69986   0.79646   0.97576   0.00000  Uiso   1.00
C846   C     0.80592   0.83663   0.98799   0.00000  Uiso   1.00
C847   C     0.74323   0.81048   0.50741   0.00000  Uiso   1.00
C848   C     0.77155   0.97267   0.66502   0.00000  Uiso   1.00
C849   C     0.82220   0.85171   0.93633   0.00000  Uiso   1.00
C850   C     0.85283   0.84885   0.51823   0.00000  Uiso   1.00
C851   C     0.91274   0.88023   0.99826   0.00000  Uiso   1.00
C852   C     0.92515   0.89975   0.94948   0.00000  Uiso   1.00
C853   C     0.88037   0.88638   0.91924   0.00000  Uiso   1.00
C854   C     0.84219   0.83055   0.56773   0.00000  Uiso   1.00
C855   C     0.94634   0.87603   0.57779   0.00000  Uiso   1.00
Cu856  Cu    0.77377   0.82772   0.74436   0.00000  Uiso   1.00
Cu857  Cu    0.89290   0.83895   0.75565   0.00000  Uiso   1.00
H858   H     0.98158   0.88836   0.60099   0.00000  Uiso   1.00
H859   H     0.89734   0.67969   0.76312   0.00000  Uiso   1.00
H860   H     0.71798   0.99308   0.73380   0.00000  Uiso   1.00
H861   H     0.72987   0.94641   0.65341   0.00000  Uiso   1.00
H862   H     0.81212   0.95369   0.65211   0.00000  Uiso   1.00
H863   H     0.78136   0.67744   0.64611   0.00000  Uiso   1.00
H864   H     0.66969   0.87191   0.79074   0.00000  Uiso   1.00
H865   H     0.96977   0.92552   0.93454   0.00000  Uiso   1.00
H866   H     0.67167   0.91678   0.51276   0.00000  Uiso   1.00
H867   H     0.79866   0.80477   0.58411   0.00000  Uiso   1.00
H868   H     0.68424   0.79174   0.89971   0.00000  Uiso   1.00
H869   H     0.72565   0.80145   0.54710   0.00000  Uiso   1.00
H870   H     0.98547   0.77666   0.99133   0.00000  Uiso   1.00
H871   H     0.89161   0.90478   0.88278   0.00000  Uiso   1.00
N872   N     0.98241   0.84741   0.76416   0.00000  Uiso   1.00
N873   N     0.68426   0.81926   0.73584   0.00000  Uiso   1.00
N874   N     0.75934   0.98090   0.72005   0.00000  Uiso   1.00
O875   O     0.79464   0.90474   0.74633   0.00000  Uiso   1.00
O876   O     0.89524   0.91422   0.75587   0.00000  Uiso   1.00
O877   O     0.75848   0.82627   0.81840   0.00000  Uiso   1.00
O878   O     0.85908   0.83575   0.82793   0.00000  Uiso   1.00
O879   O     0.77142   0.75245   0.74414   0.00000  Uiso   1.00
O880   O     0.87203   0.76193   0.75367   0.00000  Uiso   1.00
O881   O     0.80758   0.83092   0.67207   0.00000  Uiso   1.00
O882   O     0.90819   0.84040   0.68161   0.00000  Uiso   1.00
loop_
_geom_bond_atom_site_label_1
_geom_bond_atom_site_label_2
_geom_bond_distance
_geom_bond_site_symmetry_2
_ccdc_geom_bond_type
Br1    N89     1.882   .     S
C2     C4      1.433   .     S
C2     O43     1.295   .     A
C2     O42     1.289   .     A
C3     C11     1.402   .     A
C3     C16     1.422   .     A
C3     C5      1.474   .     S
C4     C153    1.343   .     S
C4     H173    1.087   .     S
C5     O44     1.305   .     A
C5     O45     1.298   .     A
C6     C7      1.434   .     S
C6     C298    1.343   1_545 S
C6     N335    1.432   1_545 S
C7     O46     1.287   .     A
C7     O47     1.295   .     A
C8     O48     1.296   .     A
C8     C10     1.462   .     S
C8     O49     1.303   .     A
C9     C22     1.393   .     A
C9     C459    1.405   1_554 S
C9     H82     1.084   .     S
C10    C22     1.398   .     A
C10    C21     1.398   .     A
C11    C12     1.387   .     A
C11    H35     1.083   .     S
C12    C455    1.391   .     S
C12    H135    1.083   1_455 S
C13    C16     1.419   .     A
C13    C455    1.418   .     S
C13    C458    1.425   .     S
C14    H36     1.077   .     S
C14    C453    1.391   1_554 S
C14    C454    1.418   1_554 S
C15    H28     1.110   .     S
C15    H29     1.112   .     S
C15    N41     1.447   .     S
C15    H177    1.112   .     S
C16    C20     1.413   .     A
C17    C21     1.401   .     A
C17    C454    1.425   1_554 S
C17    C459    1.420   1_554 S
C18    C19     1.392   .     A
C18    C458    1.420   .     S
C18    C450    1.405   .     S
C19    C20     1.387   .     A
C19    H32     1.084   .     S
C20    H38     1.080   .     S
C21    H34     1.077   .     S
C22    H25     1.083   .     S
Cu23   Cu24    2.695   .     S
Cu23   O46     1.958   .     S
Cu23   O42     1.960   .     S
Cu23   N40     2.025   .     S
Cu23   O48     1.922   .     S
Cu23   O44     1.941   .     S
Cu24   O45     1.922   .     S
Cu24   N39     2.025   .     S
Cu24   O49     1.941   .     S
Cu24   O43     1.958   .     S
Cu24   O47     1.960   .     S
H26    C298    1.087   1_545 S
H27    N41     1.031   .     S
H30    C309    1.112   1_545 S
H31    N137    1.029   1_455 S
H33    C107    1.084   1_455 S
H37    C61     1.083   .     S
N39    H80     1.029   .     S
N39    N89     1.286   .     S
N40    N137    1.286   1_455 S
N40    Br99    1.882   1_455 S
N41    C153    1.432   .     S
Br50   N138    1.882   .     S
C51    C53     1.433   .     S
C51    O92     1.295   .     A
C51    O91     1.289   .     A
C52    C60     1.402   .     A
C52    C65     1.422   .     A
C52    C54     1.474   .     S
C53    C202    1.343   .     S
C53    H222    1.087   .     S
C54    O93     1.305   .     A
C54    O94     1.298   .     A
C55    C56     1.434   .     S
C55    C347    1.343   1_545 S
C55    N384    1.432   1_545 S
C56    O95     1.287   .     A
C56    O96     1.295   .     A
C57    O97     1.296   .     A
C57    C59     1.462   .     S
C57    O98     1.303   .     A
C58    C71     1.393   .     A
C58    C508    1.405   1_554 S
C58    H131    1.084   .     S
C59    C71     1.398   .     A
C59    C70     1.398   .     A
C60    C61     1.387   .     A
C60    H84     1.083   .     S
C61    C504    1.391   .     S
C62    C65     1.419   .     A
C62    C504    1.418   .     S
C62    C507    1.425   .     S
C63    H85     1.077   .     S
C63    C502    1.391   1_554 S
C63    C503    1.418   1_554 S
C64    H77     1.110   .     S
C64    H78     1.112   .     S
C64    N90     1.447   .     S
C64    H226    1.112   .     S
C65    C69     1.413   .     A
C66    C70     1.401   .     A
C66    C503    1.425   1_554 S
C66    C508    1.420   1_554 S
C67    C68     1.392   .     A
C67    C507    1.420   .     S
C67    C499    1.405   .     S
C68    C69     1.387   .     A
C68    H81     1.084   .     S
C69    H87     1.080   .     S
C70    H83     1.077   .     S
C71    H74     1.083   .     S
Cu72   Cu73    2.695   .     S
Cu72   O95     1.958   .     S
Cu72   O91     1.960   .     S
Cu72   N89     2.025   .     S
Cu72   O97     1.922   .     S
Cu72   O93     1.941   .     S
Cu73   O94     1.922   .     S
Cu73   N88     2.025   .     S
Cu73   O98     1.941   .     S
Cu73   O92     1.958   .     S
Cu73   O96     1.960   .     S
H75    C347    1.087   1_545 S
H76    N90     1.031   .     S
H79    C358    1.112   1_545 S
H86    C110    1.083   .     S
N88    H129    1.029   .     S
N88    N138    1.286   .     S
N90    C202    1.432   .     S
Br99   N40     1.882   1_655 S
C100   C102    1.433   .     S
C100   O141    1.295   .     A
C100   O140    1.289   .     A
C101   C109    1.402   .     A
C101   C114    1.422   .     A
C101   C103    1.474   .     S
C102   C251    1.343   .     S
C102   H271    1.087   .     S
C103   O142    1.305   .     A
C103   O143    1.298   .     A
C104   C105    1.434   .     S
C104   C396    1.343   1_545 S
C104   N433    1.432   1_545 S
C105   O144    1.287   .     A
C105   O145    1.295   .     A
C106   O146    1.296   .     A
C106   C108    1.462   .     S
C106   O147    1.303   .     A
C107   C120    1.393   .     A
C107   C557    1.405   1_554 S
C107   H33     1.084   1_655 S
C108   C120    1.398   .     A
C108   C119    1.398   .     A
C109   C110    1.387   .     A
C109   H133    1.083   .     S
C110   C553    1.391   .     S
C111   C114    1.419   .     A
C111   C553    1.418   .     S
C111   C556    1.425   .     S
C112   H134    1.077   .     S
C112   C551    1.391   1_554 S
C112   C552    1.418   1_554 S
C113   H126    1.110   .     S
C113   H127    1.112   .     S
C113   N139    1.447   .     S
C113   H275    1.112   .     S
C114   C118    1.413   .     A
C115   C119    1.401   .     A
C115   C552    1.425   1_554 S
C115   C557    1.420   1_554 S
C116   C117    1.392   .     A
C116   C556    1.420   .     S
C116   C548    1.405   .     S
C117   C118    1.387   .     A
C117   H130    1.084   .     S
C118   H136    1.080   .     S
C119   H132    1.077   .     S
C120   H123    1.083   .     S
Cu121  Cu122   2.695   .     S
Cu121  O144    1.958   .     S
Cu121  O140    1.960   .     S
Cu121  N138    2.025   .     S
Cu121  O146    1.922   .     S
Cu121  O142    1.941   .     S
Cu122  O143    1.922   .     S
Cu122  N137    2.025   .     S
Cu122  O147    1.941   .     S
Cu122  O141    1.958   .     S
Cu122  O145    1.960   .     S
H124   C396    1.087   1_545 S
H125   N139    1.031   .     S
H128   C407    1.112   1_545 S
H135   C12     1.083   1_655 S
N137   H31     1.029   1_655 S
N137   N40     1.286   1_655 S
N139   C251    1.432   .     S
Br148  N236    1.882   .     S
C149   C151    1.433   .     S
C149   O190    1.295   .     A
C149   O189    1.289   .     A
C150   C158    1.402   .     A
C150   C163    1.422   .     A
C150   C152    1.474   .     S
C151   C300    1.343   .     S
C151   H320    1.087   .     S
C152   O191    1.305   .     A
C152   O192    1.298   .     A
C153   C154    1.434   .     S
C154   O193    1.287   .     A
C154   O194    1.295   .     A
C155   O195    1.296   .     A
C155   C157    1.462   .     S
C155   O196    1.303   .     A
C156   C169    1.393   .     A
C156   C606    1.405   1_554 S
C156   H229    1.084   .     S
C157   C169    1.398   .     A
C157   C168    1.398   .     A
C158   C159    1.387   .     A
C158   H182    1.083   .     S
C159   C602    1.391   .     S
C159   H282    1.083   1_455 S
C160   C163    1.419   .     A
C160   C602    1.418   .     S
C160   C605    1.425   .     S
C161   H183    1.077   .     S
C161   C600    1.391   1_554 S
C161   C601    1.418   1_554 S
C162   H175    1.110   .     S
C162   H176    1.112   .     S
C162   N188    1.447   .     S
C162   H324    1.112   .     S
C163   C167    1.413   .     A
C164   C168    1.401   .     A
C164   C601    1.425   1_554 S
C164   C606    1.420   1_554 S
C165   C166    1.392   .     A
C165   C605    1.420   .     S
C165   C597    1.405   .     S
C166   C167    1.387   .     A
C166   H179    1.084   .     S
C167   H185    1.080   .     S
C168   H181    1.077   .     S
C169   H172    1.083   .     S
Cu170  Cu171   2.695   .     S
Cu170  O193    1.958   .     S
Cu170  O189    1.960   .     S
Cu170  N187    2.025   .     S
Cu170  O195    1.922   .     S
Cu170  O191    1.941   .     S
Cu171  O192    1.922   .     S
Cu171  N186    2.025   .     S
Cu171  O196    1.941   .     S
Cu171  O190    1.958   .     S
Cu171  O194    1.960   .     S
H174   N188    1.031   .     S
H178   N284    1.029   1_455 S
H180   C254    1.084   1_455 S
H184   C208    1.083   .     S
N186   H227    1.029   .     S
N186   N236    1.286   .     S
N187   N284    1.286   1_455 S
N187   Br246   1.882   1_455 S
N188   C300    1.432   .     S
Br197  N285    1.882   .     S
C198   C200    1.433   .     S
C198   O239    1.295   .     A
C198   O238    1.289   .     A
C199   C207    1.402   .     A
C199   C212    1.422   .     A
C199   C201    1.474   .     S
C200   C349    1.343   .     S
C200   H369    1.087   .     S
C201   O240    1.305   .     A
C201   O241    1.298   .     A
C202   C203    1.434   .     S
C203   O242    1.287   .     A
C203   O243    1.295   .     A
C204   O244    1.296   .     A
C204   C206    1.462   .     S
C204   O245    1.303   .     A
C205   C218    1.393   .     A
C205   C655    1.405   1_554 S
C205   H278    1.084   .     S
C206   C218    1.398   .     A
C206   C217    1.398   .     A
C207   C208    1.387   .     A
C207   H231    1.083   .     S
C208   C651    1.391   .     S
C209   C212    1.419   .     A
C209   C651    1.418   .     S
C209   C654    1.425   .     S
C210   H232    1.077   .     S
C210   C649    1.391   1_554 S
C210   C650    1.418   1_554 S
C211   H224    1.110   .     S
C211   H225    1.112   .     S
C211   N237    1.447   .     S
C211   H373    1.112   .     S
C212   C216    1.413   .     A
C213   C217    1.401   .     A
C213   C650    1.425   1_554 S
C213   C655    1.420   1_554 S
C214   C215    1.392   .     A
C214   C654    1.420   .     S
C214   C646    1.405   .     S
C215   C216    1.387   .     A
C215   H228    1.084   .     S
C216   H234    1.080   .     S
C217   H230    1.077   .     S
C218   H221    1.083   .     S
Cu219  Cu220   2.695   .     S
Cu219  O242    1.958   .     S
Cu219  O238    1.960   .     S
Cu219  N236    2.025   .     S
Cu219  O244    1.922   .     S
Cu219  O240    1.941   .     S
Cu220  O241    1.922   .     S
Cu220  N235    2.025   .     S
Cu220  O245    1.941   .     S
Cu220  O239    1.958   .     S
Cu220  O243    1.960   .     S
H223   N237    1.031   .     S
H233   C257    1.083   .     S
N235   H276    1.029   .     S
N235   N285    1.286   .     S
N237   C349    1.432   .     S
Br246  N187    1.882   1_655 S
C247   C249    1.433   .     S
C247   O288    1.295   .     A
C247   O287    1.289   .     A
C248   C256    1.402   .     A
C248   C261    1.422   .     A
C248   C250    1.474   .     S
C249   C398    1.343   .     S
C249   H418    1.087   .     S
C250   O289    1.305   .     A
C250   O290    1.298   .     A
C251   C252    1.434   .     S
C252   O291    1.287   .     A
C252   O292    1.295   .     A
C253   O293    1.296   .     A
C253   C255    1.462   .     S
C253   O294    1.303   .     A
C254   C267    1.393   .     A
C254   C704    1.405   1_554 S
C254   H180    1.084   1_655 S
C255   C267    1.398   .     A
C255   C266    1.398   .     A
C256   C257    1.387   .     A
C256   H280    1.083   .     S
C257   C700    1.391   .     S
C258   C261    1.419   .     A
C258   C700    1.418   .     S
C258   C703    1.425   .     S
C259   H281    1.077   .     S
C259   C698    1.391   1_554 S
C259   C699    1.418   1_554 S
C260   H273    1.110   .     S
C260   H274    1.112   .     S
C260   N286    1.447   .     S
C260   H422    1.112   .     S
C261   C265    1.413   .     A
C262   C266    1.401   .     A
C262   C699    1.425   1_554 S
C262   C704    1.420   1_554 S
C263   C264    1.392   .     A
C263   C703    1.420   .     S
C263   C695    1.405   .     S
C264   C265    1.387   .     A
C264   H277    1.084   .     S
C265   H283    1.080   .     S
C266   H279    1.077   .     S
C267   H270    1.083   .     S
Cu268  Cu269   2.695   .     S
Cu268  O291    1.958   .     S
Cu268  O287    1.960   .     S
Cu268  N285    2.025   .     S
Cu268  O293    1.922   .     S
Cu268  O289    1.941   .     S
Cu269  O290    1.922   .     S
Cu269  N284    2.025   .     S
Cu269  O294    1.941   .     S
Cu269  O288    1.958   .     S
Cu269  O292    1.960   .     S
H272   N286    1.031   .     S
H282   C159    1.083   1_655 S
N284   H178    1.029   1_655 S
N284   N187    1.286   1_655 S
N286   C398    1.432   .     S
Br295  N383    1.882   .     S
C296   C298    1.433   .     S
C296   O337    1.295   .     A
C296   O336    1.289   .     A
C297   C305    1.402   .     A
C297   C310    1.422   .     A
C297   C299    1.474   .     S
C298   C6      1.343   1_565 S
C298   H26     1.087   1_565 S
C299   O338    1.305   .     A
C299   O339    1.298   .     A
C300   C301    1.434   .     S
C301   O340    1.287   .     A
C301   O341    1.295   .     A
C302   O342    1.296   .     A
C302   C304    1.462   .     S
C302   O343    1.303   .     A
C303   C316    1.393   .     A
C303   C753    1.405   1_554 S
C303   H376    1.084   .     S
C304   C316    1.398   .     A
C304   C315    1.398   .     A
C305   C306    1.387   .     A
C305   H329    1.083   .     S
C306   C749    1.391   .     S
C306   H429    1.083   1_455 S
C307   C310    1.419   .     A
C307   C749    1.418   .     S
C307   C752    1.425   .     S
C308   H330    1.077   .     S
C308   C747    1.391   1_554 S
C308   C748    1.418   1_554 S
C309   H322    1.110   .     S
C309   H323    1.112   .     S
C309   N335    1.447   .     S
C309   H30     1.112   1_565 S
C310   C314    1.413   .     A
C311   C315    1.401   .     A
C311   C748    1.425   1_554 S
C311   C753    1.420   1_554 S
C312   C313    1.392   .     A
C312   C752    1.420   .     S
C312   C744    1.405   .     S
C313   C314    1.387   .     A
C313   H326    1.084   .     S
C314   H332    1.080   .     S
C315   H328    1.077   .     S
C316   H319    1.083   .     S
Cu317  Cu318   2.695   .     S
Cu317  O340    1.958   .     S
Cu317  O336    1.960   .     S
Cu317  N334    2.025   .     S
Cu317  O342    1.922   .     S
Cu317  O338    1.941   .     S
Cu318  O339    1.922   .     S
Cu318  N333    2.025   .     S
Cu318  O343    1.941   .     S
Cu318  O337    1.958   .     S
Cu318  O341    1.960   .     S
H321   N335    1.031   .     S
H325   N431    1.029   1_455 S
H327   C401    1.084   1_455 S
H331   C355    1.083   .     S
N333   H374    1.029   .     S
N333   N383    1.286   .     S
N334   N431    1.286   1_455 S
N334   Br393   1.882   1_455 S
N335   C6      1.432   1_565 S
Br344  N432    1.882   .     S
C345   C347    1.433   .     S
C345   O386    1.295   .     A
C345   O385    1.289   .     A
C346   C354    1.402   .     A
C346   C359    1.422   .     A
C346   C348    1.474   .     S
C347   C55     1.343   1_565 S
C347   H75     1.087   1_565 S
C348   O387    1.305   .     A
C348   O388    1.298   .     A
C349   C350    1.434   .     S
C350   O389    1.287   .     A
C350   O390    1.295   .     A
C351   O391    1.296   .     A
C351   C353    1.462   .     S
C351   O392    1.303   .     A
C352   C365    1.393   .     A
C352   C802    1.405   1_554 S
C352   H425    1.084   .     S
C353   C365    1.398   .     A
C353   C364    1.398   .     A
C354   C355    1.387   .     A
C354   H378    1.083   .     S
C355   C798    1.391   .     S
C356   C359    1.419   .     A
C356   C798    1.418   .     S
C356   C801    1.425   .     S
C357   H379    1.077   .     S
C357   C796    1.391   1_554 S
C357   C797    1.418   1_554 S
C358   H371    1.110   .     S
C358   H372    1.112   .     S
C358   N384    1.447   .     S
C358   H79     1.112   1_565 S
C359   C363    1.413   .     A
C360   C364    1.401   .     A
C360   C797    1.425   1_554 S
C360   C802    1.420   1_554 S
C361   C362    1.392   .     A
C361   C801    1.420   .     S
C361   C793    1.405   .     S
C362   C363    1.387   .     A
C362   H375    1.084   .     S
C363   H381    1.080   .     S
C364   H377    1.077   .     S
C365   H368    1.083   .     S
Cu366  Cu367   2.695   .     S
Cu366  O389    1.958   .     S
Cu366  O385    1.960   .     S
Cu366  N383    2.025   .     S
Cu366  O391    1.922   .     S
Cu366  O387    1.941   .     S
Cu367  O388    1.922   .     S
Cu367  N382    2.025   .     S
Cu367  O392    1.941   .     S
Cu367  O386    1.958   .     S
Cu367  O390    1.960   .     S
H370   N384    1.031   .     S
H380   C404    1.083   .     S
N382   H423    1.029   .     S
N382   N432    1.286   .     S
N384   C55     1.432   1_565 S
Br393  N334    1.882   1_655 S
C394   C396    1.433   .     S
C394   O435    1.295   .     A
C394   O434    1.289   .     A
C395   C403    1.402   .     A
C395   C408    1.422   .     A
C395   C397    1.474   .     S
C396   C104    1.343   1_565 S
C396   H124    1.087   1_565 S
C397   O436    1.305   .     A
C397   O437    1.298   .     A
C398   C399    1.434   .     S
C399   O438    1.287   .     A
C399   O439    1.295   .     A
C400   O440    1.296   .     A
C400   C402    1.462   .     S
C400   O441    1.303   .     A
C401   C414    1.393   .     A
C401   C851    1.405   1_554 S
C401   H327    1.084   1_655 S
C402   C414    1.398   .     A
C402   C413    1.398   .     A
C403   C404    1.387   .     A
C403   H427    1.083   .     S
C404   C847    1.391   .     S
C405   C408    1.419   .     A
C405   C847    1.418   .     S
C405   C850    1.425   .     S
C406   H428    1.077   .     S
C406   C845    1.391   1_554 S
C406   C846    1.418   1_554 S
C407   H420    1.110   .     S
C407   H421    1.112   .     S
C407   N433    1.447   .     S
C407   H128    1.112   1_565 S
C408   C412    1.413   .     A
C409   C413    1.401   .     A
C409   C846    1.425   1_554 S
C409   C851    1.420   1_554 S
C410   C411    1.392   .     A
C410   C850    1.420   .     S
C410   C842    1.405   .     S
C411   C412    1.387   .     A
C411   H424    1.084   .     S
C412   H430    1.080   .     S
C413   H426    1.077   .     S
C414   H417    1.083   .     S
Cu415  Cu416   2.695   .     S
Cu415  O438    1.958   .     S
Cu415  O434    1.960   .     S
Cu415  N432    2.025   .     S
Cu415  O440    1.922   .     S
Cu415  O436    1.941   .     S
Cu416  O437    1.922   .     S
Cu416  N431    2.025   .     S
Cu416  O441    1.941   .     S
Cu416  O435    1.958   .     S
Cu416  O439    1.960   .     S
H419   N433    1.031   .     S
H429   C306    1.083   1_655 S
N431   H325    1.029   1_655 S
N431   N334    1.286   1_655 S
N433   C104    1.432   1_565 S
Br442  N530    1.882   .     S
C443   C445    1.433   .     S
C443   O484    1.295   .     A
C443   O483    1.289   .     A
C444   C452    1.402   .     A
C444   C457    1.422   .     A
C444   C446    1.474   .     S
C445   C594    1.343   .     S
C445   H614    1.087   .     S
C446   O485    1.305   .     A
C446   O486    1.298   .     A
C447   C448    1.434   .     S
C447   C739    1.343   1_545 S
C447   N776    1.432   1_545 S
C448   O487    1.287   .     A
C448   O488    1.295   .     A
C449   O489    1.296   .     A
C449   C451    1.462   .     S
C449   O490    1.303   .     A
C450   C463    1.393   .     A
C450   H523    1.084   .     S
C451   C463    1.398   .     A
C451   C462    1.398   .     A
C452   C453    1.387   .     A
C452   H476    1.083   .     S
C453   C14     1.391   1_556 S
C453   H576    1.083   1_455 S
C454   C457    1.419   .     A
C454   C14     1.418   1_556 S
C454   C17     1.425   1_556 S
C455   H477    1.077   .     S
C456   H469    1.110   .     S
C456   H470    1.112   .     S
C456   N482    1.447   .     S
C456   H618    1.112   .     S
C457   C461    1.413   .     A
C458   C462    1.401   .     A
C459   C460    1.392   .     A
C459   C17     1.420   1_556 S
C459   C9      1.405   1_556 S
C460   C461    1.387   .     A
C460   H473    1.084   .     S
C461   H479    1.080   .     S
C462   H475    1.077   .     S
C463   H466    1.083   .     S
Cu464  Cu465   2.695   .     S
Cu464  O487    1.958   .     S
Cu464  O483    1.960   .     S
Cu464  N481    2.025   .     S
Cu464  O489    1.922   .     S
Cu464  O485    1.941   .     S
Cu465  O486    1.922   .     S
Cu465  N480    2.025   .     S
Cu465  O490    1.941   .     S
Cu465  O484    1.958   .     S
Cu465  O488    1.960   .     S
H467   C739    1.087   1_545 S
H468   N482    1.031   .     S
H471   C750    1.112   1_545 S
H472   N578    1.029   1_455 S
H474   C548    1.084   1_455 S
H478   C502    1.083   .     S
N480   H521    1.029   .     S
N480   N530    1.286   .     S
N481   N578    1.286   1_455 S
N481   Br540   1.882   1_455 S
N482   C594    1.432   .     S
Br491  N579    1.882   .     S
C492   C494    1.433   .     S
C492   O533    1.295   .     A
C492   O532    1.289   .     A
C493   C501    1.402   .     A
C493   C506    1.422   .     A
C493   C495    1.474   .     S
C494   C643    1.343   .     S
C494   H663    1.087   .     S
C495   O534    1.305   .     A
C495   O535    1.298   .     A
C496   C497    1.434   .     S
C496   C788    1.343   1_545 S
C496   N825    1.432   1_545 S
C497   O536    1.287   .     A
C497   O537    1.295   .     A
C498   O538    1.296   .     A
C498   C500    1.462   .     S
C498   O539    1.303   .     A
C499   C512    1.393   .     A
C499   H572    1.084   .     S
C500   C512    1.398   .     A
C500   C511    1.398   .     A
C501   C502    1.387   .     A
C501   H525    1.083   .     S
C502   C63     1.391   1_556 S
C503   C506    1.419   .     A
C503   C63     1.418   1_556 S
C503   C66     1.425   1_556 S
C504   H526    1.077   .     S
C505   H518    1.110   .     S
C505   H519    1.112   .     S
C505   N531    1.447   .     S
C505   H667    1.112   .     S
C506   C510    1.413   .     A
C507   C511    1.401   .     A
C508   C509    1.392   .     A
C508   C66     1.420   1_556 S
C508   C58     1.405   1_556 S
C509   C510    1.387   .     A
C509   H522    1.084   .     S
C510   H528    1.080   .     S
C511   H524    1.077   .     S
C512   H515    1.083   .     S
Cu513  Cu514   2.695   .     S
Cu513  O536    1.958   .     S
Cu513  O532    1.960   .     S
Cu513  N530    2.025   .     S
Cu513  O538    1.922   .     S
Cu513  O534    1.941   .     S
Cu514  O535    1.922   .     S
Cu514  N529    2.025   .     S
Cu514  O539    1.941   .     S
Cu514  O533    1.958   .     S
Cu514  O537    1.960   .     S
H516   C788    1.087   1_545 S
H517   N531    1.031   .     S
H520   C799    1.112   1_545 S
H527   C551    1.083   .     S
N529   H570    1.029   .     S
N529   N579    1.286   .     S
N531   C643    1.432   .     S
Br540  N481    1.882   1_655 S
C541   C543    1.433   .     S
C541   O582    1.295   .     A
C541   O581    1.289   .     A
C542   C550    1.402   .     A
C542   C555    1.422   .     A
C542   C544    1.474   .     S
C543   C692    1.343   .     S
C543   H712    1.087   .     S
C544   O583    1.305   .     A
C544   O584    1.298   .     A
C545   C546    1.434   .     S
C545   C837    1.343   1_545 S
C545   N874    1.432   1_545 S
C546   O585    1.287   .     A
C546   O586    1.295   .     A
C547   O587    1.296   .     A
C547   C549    1.462   .     S
C547   O588    1.303   .     A
C548   C561    1.393   .     A
C548   H474    1.084   1_655 S
C549   C561    1.398   .     A
C549   C560    1.398   .     A
C550   C551    1.387   .     A
C550   H574    1.083   .     S
C551   C112    1.391   1_556 S
C552   C555    1.419   .     A
C552   C112    1.418   1_556 S
C552   C115    1.425   1_556 S
C553   H575    1.077   .     S
C554   H567    1.110   .     S
C554   H568    1.112   .     S
C554   N580    1.447   .     S
C554   H716    1.112   .     S
C555   C559    1.413   .     A
C556   C560    1.401   .     A
C557   C558    1.392   .     A
C557   C115    1.420   1_556 S
C557   C107    1.405   1_556 S
C558   C559    1.387   .     A
C558   H571    1.084   .     S
C559   H577    1.080   .     S
C560   H573    1.077   .     S
C561   H564    1.083   .     S
Cu562  Cu563   2.695   .     S
Cu562  O585    1.958   .     S
Cu562  O581    1.960   .     S
Cu562  N579    2.025   .     S
Cu562  O587    1.922   .     S
Cu562  O583    1.941   .     S
Cu563  O584    1.922   .     S
Cu563  N578    2.025   .     S
Cu563  O588    1.941   .     S
Cu563  O582    1.958   .     S
Cu563  O586    1.960   .     S
H565   C837    1.087   1_545 S
H566   N580    1.031   .     S
H569   C848    1.112   1_545 S
H576   C453    1.083   1_655 S
N578   H472    1.029   1_655 S
N578   N481    1.286   1_655 S
N580   C692    1.432   .     S
Br589  N677    1.882   .     S
C590   C592    1.433   .     S
C590   O631    1.295   .     A
C590   O630    1.289   .     A
C591   C599    1.402   .     A
C591   C604    1.422   .     A
C591   C593    1.474   .     S
C592   C741    1.343   .     S
C592   H761    1.087   .     S
C593   O632    1.305   .     A
C593   O633    1.298   .     A
C594   C595    1.434   .     S
C595   O634    1.287   .     A
C595   O635    1.295   .     A
C596   O636    1.296   .     A
C596   C598    1.462   .     S
C596   O637    1.303   .     A
C597   C610    1.393   .     A
C597   H670    1.084   .     S
C598   C610    1.398   .     A
C598   C609    1.398   .     A
C599   C600    1.387   .     A
C599   H623    1.083   .     S
C600   C161    1.391   1_556 S
C600   H723    1.083   1_455 S
C601   C604    1.419   .     A
C601   C161    1.418   1_556 S
C601   C164    1.425   1_556 S
C602   H624    1.077   .     S
C603   H616    1.110   .     S
C603   H617    1.112   .     S
C603   N629    1.447   .     S
C603   H765    1.112   .     S
C604   C608    1.413   .     A
C605   C609    1.401   .     A
C606   C607    1.392   .     A
C606   C164    1.420   1_556 S
C606   C156    1.405   1_556 S
C607   C608    1.387   .     A
C607   H620    1.084   .     S
C608   H626    1.080   .     S
C609   H622    1.077   .     S
C610   H613    1.083   .     S
Cu611  Cu612   2.695   .     S
Cu611  O634    1.958   .     S
Cu611  O630    1.960   .     S
Cu611  N628    2.025   .     S
Cu611  O636    1.922   .     S
Cu611  O632    1.941   .     S
Cu612  O633    1.922   .     S
Cu612  N627    2.025   .     S
Cu612  O637    1.941   .     S
Cu612  O631    1.958   .     S
Cu612  O635    1.960   .     S
H615   N629    1.031   .     S
H619   N725    1.029   1_455 S
H621   C695    1.084   1_455 S
H625   C649    1.083   .     S
N627   H668    1.029   .     S
N627   N677    1.286   .     S
N628   N725    1.286   1_455 S
N628   Br687   1.882   1_455 S
N629   C741    1.432   .     S
Br638  N726    1.882   .     S
C639   C641    1.433   .     S
C639   O680    1.295   .     A
C639   O679    1.289   .     A
C640   C648    1.402   .     A
C640   C653    1.422   .     A
C640   C642    1.474   .     S
C641   C790    1.343   .     S
C641   H810    1.087   .     S
C642   O681    1.305   .     A
C642   O682    1.298   .     A
C643   C644    1.434   .     S
C644   O683    1.287   .     A
C644   O684    1.295   .     A
C645   O685    1.296   .     A
C645   C647    1.462   .     S
C645   O686    1.303   .     A
C646   C659    1.393   .     A
C646   H719    1.084   .     S
C647   C659    1.398   .     A
C647   C658    1.398   .     A
C648   C649    1.387   .     A
C648   H672    1.083   .     S
C649   C210    1.391   1_556 S
C650   C653    1.419   .     A
C650   C210    1.418   1_556 S
C650   C213    1.425   1_556 S
C651   H673    1.077   .     S
C652   H665    1.110   .     S
C652   H666    1.112   .     S
C652   N678    1.447   .     S
C652   H814    1.112   .     S
C653   C657    1.413   .     A
C654   C658    1.401   .     A
C655   C656    1.392   .     A
C655   C213    1.420   1_556 S
C655   C205    1.405   1_556 S
C656   C657    1.387   .     A
C656   H669    1.084   .     S
C657   H675    1.080   .     S
C658   H671    1.077   .     S
C659   H662    1.083   .     S
Cu660  Cu661   2.695   .     S
Cu660  O683    1.958   .     S
Cu660  O679    1.960   .     S
Cu660  N677    2.025   .     S
Cu660  O685    1.922   .     S
Cu660  O681    1.941   .     S
Cu661  O682    1.922   .     S
Cu661  N676    2.025   .     S
Cu661  O686    1.941   .     S
Cu661  O680    1.958   .     S
Cu661  O684    1.960   .     S
H664   N678    1.031   .     S
H674   C698    1.083   .     S
N676   H717    1.029   .     S
N676   N726    1.286   .     S
N678   C790    1.432   .     S
Br687  N628    1.882   1_655 S
C688   C690    1.433   .     S
C688   O729    1.295   .     A
C688   O728    1.289   .     A
C689   C697    1.402   .     A
C689   C702    1.422   .     A
C689   C691    1.474   .     S
C690   C839    1.343   .     S
C690   H859    1.087   .     S
C691   O730    1.305   .     A
C691   O731    1.298   .     A
C692   C693    1.434   .     S
C693   O732    1.287   .     A
C693   O733    1.295   .     A
C694   O734    1.296   .     A
C694   C696    1.462   .     S
C694   O735    1.303   .     A
C695   C708    1.393   .     A
C695   H621    1.084   1_655 S
C696   C708    1.398   .     A
C696   C707    1.398   .     A
C697   C698    1.387   .     A
C697   H721    1.083   .     S
C698   C259    1.391   1_556 S
C699   C702    1.419   .     A
C699   C259    1.418   1_556 S
C699   C262    1.425   1_556 S
C700   H722    1.077   .     S
C701   H714    1.110   .     S
C701   H715    1.112   .     S
C701   N727    1.447   .     S
C701   H863    1.112   .     S
C702   C706    1.413   .     A
C703   C707    1.401   .     A
C704   C705    1.392   .     A
C704   C262    1.420   1_556 S
C704   C254    1.405   1_556 S
C705   C706    1.387   .     A
C705   H718    1.084   .     S
C706   H724    1.080   .     S
C707   H720    1.077   .     S
C708   H711    1.083   .     S
Cu709  Cu710   2.695   .     S
Cu709  O732    1.958   .     S
Cu709  O728    1.960   .     S
Cu709  N726    2.025   .     S
Cu709  O734    1.922   .     S
Cu709  O730    1.941   .     S
Cu710  O731    1.922   .     S
Cu710  N725    2.025   .     S
Cu710  O735    1.941   .     S
Cu710  O729    1.958   .     S
Cu710  O733    1.960   .     S
H713   N727    1.031   .     S
H723   C600    1.083   1_655 S
N725   H619    1.029   1_655 S
N725   N628    1.286   1_655 S
N727   C839    1.432   .     S
Br736  N824    1.882   .     S
C737   C739    1.433   .     S
C737   O778    1.295   .     A
C737   O777    1.289   .     A
C738   C746    1.402   .     A
C738   C751    1.422   .     A
C738   C740    1.474   .     S
C739   C447    1.343   1_565 S
C739   H467    1.087   1_565 S
C740   O779    1.305   .     A
C740   O780    1.298   .     A
C741   C742    1.434   .     S
C742   O781    1.287   .     A
C742   O782    1.295   .     A
C743   O783    1.296   .     A
C743   C745    1.462   .     S
C743   O784    1.303   .     A
C744   C757    1.393   .     A
C744   H817    1.084   .     S
C745   C757    1.398   .     A
C745   C756    1.398   .     A
C746   C747    1.387   .     A
C746   H770    1.083   .     S
C747   C308    1.391   1_556 S
C747   H870    1.083   1_455 S
C748   C751    1.419   .     A
C748   C308    1.418   1_556 S
C748   C311    1.425   1_556 S
C749   H771    1.077   .     S
C750   H763    1.110   .     S
C750   H764    1.112   .     S
C750   N776    1.447   .     S
C750   H471    1.112   1_565 S
C751   C755    1.413   .     A
C752   C756    1.401   .     A
C753   C754    1.392   .     A
C753   C311    1.420   1_556 S
C753   C303    1.405   1_556 S
C754   C755    1.387   .     A
C754   H767    1.084   .     S
C755   H773    1.080   .     S
C756   H769    1.077   .     S
C757   H760    1.083   .     S
Cu758  Cu759   2.695   .     S
Cu758  O781    1.958   .     S
Cu758  O777    1.960   .     S
Cu758  N775    2.025   .     S
Cu758  O783    1.922   .     S
Cu758  O779    1.941   .     S
Cu759  O780    1.922   .     S
Cu759  N774    2.025   .     S
Cu759  O784    1.941   .     S
Cu759  O778    1.958   .     S
Cu759  O782    1.960   .     S
H762   N776    1.031   .     S
H766   N872    1.029   1_455 S
H768   C842    1.084   1_455 S
H772   C796    1.083   .     S
N774   H815    1.029   .     S
N774   N824    1.286   .     S
N775   N872    1.286   1_455 S
N775   Br834   1.882   1_455 S
N776   C447    1.432   1_565 S
Br785  N873    1.882   .     S
C786   C788    1.433   .     S
C786   O827    1.295   .     A
C786   O826    1.289   .     A
C787   C795    1.402   .     A
C787   C800    1.422   .     A
C787   C789    1.474   .     S
C788   C496    1.343   1_565 S
C788   H516    1.087   1_565 S
C789   O828    1.305   .     A
C789   O829    1.298   .     A
C790   C791    1.434   .     S
C791   O830    1.287   .     A
C791   O831    1.295   .     A
C792   O832    1.296   .     A
C792   C794    1.462   .     S
C792   O833    1.303   .     A
C793   C806    1.393   .     A
C793   H866    1.084   .     S
C794   C806    1.398   .     A
C794   C805    1.398   .     A
C795   C796    1.387   .     A
C795   H819    1.083   .     S
C796   C357    1.391   1_556 S
C797   C800    1.419   .     A
C797   C357    1.418   1_556 S
C797   C360    1.425   1_556 S
C798   H820    1.077   .     S
C799   H812    1.110   .     S
C799   H813    1.112   .     S
C799   N825    1.447   .     S
C799   H520    1.112   1_565 S
C800   C804    1.413   .     A
C801   C805    1.401   .     A
C802   C803    1.392   .     A
C802   C360    1.420   1_556 S
C802   C352    1.405   1_556 S
C803   C804    1.387   .     A
C803   H816    1.084   .     S
C804   H822    1.080   .     S
C805   H818    1.077   .     S
C806   H809    1.083   .     S
Cu807  Cu808   2.695   .     S
Cu807  O830    1.958   .     S
Cu807  O826    1.960   .     S
Cu807  N824    2.025   .     S
Cu807  O832    1.922   .     S
Cu807  O828    1.941   .     S
Cu808  O829    1.922   .     S
Cu808  N823    2.025   .     S
Cu808  O833    1.941   .     S
Cu808  O827    1.958   .     S
Cu808  O831    1.960   .     S
H811   N825    1.031   .     S
H821   C845    1.083   .     S
N823   H864    1.029   .     S
N823   N873    1.286   .     S
N825   C496    1.432   1_565 S
Br834  N775    1.882   1_655 S
C835   C837    1.433   .     S
C835   O876    1.295   .     A
C835   O875    1.289   .     A
C836   C844    1.402   .     A
C836   C849    1.422   .     A
C836   C838    1.474   .     S
C837   C545    1.343   1_565 S
C837   H565    1.087   1_565 S
C838   O877    1.305   .     A
C838   O878    1.298   .     A
C839   C840    1.434   .     S
C840   O879    1.287   .     A
C840   O880    1.295   .     A
C841   O881    1.296   .     A
C841   C843    1.462   .     S
C841   O882    1.303   .     A
C842   C855    1.393   .     A
C842   H768    1.084   1_655 S
C843   C855    1.398   .     A
C843   C854    1.398   .     A
C844   C845    1.387   .     A
C844   H868    1.083   .     S
C845   C406    1.391   1_556 S
C846   C849    1.419   .     A
C846   C406    1.418   1_556 S
C846   C409    1.425   1_556 S
C847   H869    1.077   .     S
C848   H861    1.110   .     S
C848   H862    1.112   .     S
C848   N874    1.447   .     S
C848   H569    1.112   1_565 S
C849   C853    1.413   .     A
C850   C854    1.401   .     A
C851   C852    1.392   .     A
C851   C409    1.420   1_556 S
C851   C401    1.405   1_556 S
C852   C853    1.387   .     A
C852   H865    1.084   .     S
C853   H871    1.080   .     S
C854   H867    1.077   .     S
C855   H858    1.083   .     S
Cu856  Cu857   2.695   .     S
Cu856  O879    1.958   .     S
Cu856  O875    1.960   .     S
Cu856  N873    2.025   .     S
Cu856  O881    1.922   .     S
Cu856  O877    1.941   .     S
Cu857  O878    1.922   .     S
Cu857  N872    2.025   .     S
Cu857  O882    1.941   .     S
Cu857  O876    1.958   .     S
Cu857  O880    1.960   .     S
H860   N874    1.031   .     S
H870   C747    1.083   1_655 S
N872   H766    1.029   1_655 S
N872   N775    1.286   1_655 S
N874   C545    1.432   1_565 S
