data_str_m2_o10_o18_pcu_sym.65
_audit_creation_date              2020-01-03
_audit_creation_method            'Materials Studio'
_symmetry_space_group_name_H-M    'P1'
_symmetry_Int_Tables_number       1
_symmetry_cell_setting            triclinic
loop_
_symmetry_equiv_pos_as_xyz
  x,y,z
_cell_length_a                    22.4041
_cell_length_b                    26.1939
_cell_length_c                    31.6338
_cell_angle_alpha                 94.8022
_cell_angle_beta                  75.1161
_cell_angle_gamma                 103.0408
loop_
_atom_site_label
_atom_site_type_symbol
_atom_site_fract_x
_atom_site_fract_y
_atom_site_fract_z
_atom_site_U_iso_or_equiv
_atom_site_adp_type
_atom_site_occupancy
C1     C     0.18099   0.26643   0.25215   0.00000  Uiso   1.00
C2     C     0.20512   0.17046   0.16695   0.00000  Uiso   1.00
C3     C     0.10505   0.15895   0.38074   0.00000  Uiso   1.00
C4     C     0.22806   0.17737   0.11959   0.00000  Uiso   1.00
C5     C     0.02308   0.12799   0.44481   0.00000  Uiso   1.00
C6     C     0.30649   0.21808   0.05743   0.00000  Uiso   1.00
C7     C     0.04170   0.13793   0.40026   0.00000  Uiso   1.00
C8     C     0.28956   0.20396   0.10103   0.00000  Uiso   1.00
C9     C     0.14867   0.17315   0.40661   0.00000  Uiso   1.00
C10    C     0.18477   0.16221   0.09358   0.00000  Uiso   1.00
C11    C     0.13079   0.16524   0.45190   0.00000  Uiso   1.00
C12    C     0.15238   0.06691   0.24787   0.00000  Uiso   1.00
C13    C     0.19999   0.17684   0.04971   0.00000  Uiso   1.00
C14    C     0.06728   0.14047   0.47051   0.00000  Uiso   1.00
C15    C     0.26217   0.20526   0.03183   0.00000  Uiso   1.00
C16    C     0.17462   0.17948   0.47878   0.00000  Uiso   1.00
C17    C     0.15518   0.16481   0.02343   0.00000  Uiso   1.00
C18    C     0.20937   0.01339   0.32309   0.00000  Uiso   1.00
C19    C     0.25527   0.05099   0.34511   0.00000  Uiso   1.00
C20    C     0.12743   0.31989   0.17602   0.00000  Uiso   1.00
C21    C     0.08211   0.28329   0.15299   0.00000  Uiso   1.00
C22    C     0.09139   0.13943   0.04040   0.00000  Uiso   1.00
C23    C     0.23683   0.20870   0.46269   0.00000  Uiso   1.00
C24    C     0.04851   0.12787   0.01442   0.00000  Uiso   1.00
C25    C     0.27949   0.22123   0.48879   0.00000  Uiso   1.00
C26    C     0.18607   0.32195   0.25749   0.00000  Uiso   1.00
C27    C     0.14756   0.01144   0.24238   0.00000  Uiso   1.00
C28    C     0.12819   0.16310   0.33308   0.00000  Uiso   1.00
Cu29   Cu    0.10737   0.16108   0.24517   0.00000  Uiso   1.00
Cu30   Cu    0.22596   0.17225   0.25484   0.00000  Uiso   1.00
H31    H     0.00007   0.10878   0.02893   0.00000  Uiso   1.00
H32    H     0.25405   0.22389   0.43022   0.00000  Uiso   1.00
H33    H     0.20567   0.30620   0.33326   0.00000  Uiso   1.00
H34    H     0.16231   0.02421   0.33465   0.00000  Uiso   1.00
H35    H     0.25918   0.09184   0.33590   0.00000  Uiso   1.00
H36    H     0.23807   0.04821   0.38122   0.00000  Uiso   1.00
H37    H     0.30267   0.04107   0.33477   0.00000  Uiso   1.00
H38    H     0.17393   0.30795   0.16563   0.00000  Uiso   1.00
H39    H     0.13308   0.02726   0.16549   0.00000  Uiso   1.00
H40    H     0.03542   0.29454   0.16209   0.00000  Uiso   1.00
H41    H     0.10109   0.28575   0.11698   0.00000  Uiso   1.00
H42    H     0.32666   0.24357   0.47502   0.00000  Uiso   1.00
H43    H     0.07613   0.24227   0.16262   0.00000  Uiso   1.00
H44    H     0.30396   0.22873   0.30857   0.00000  Uiso   1.00
H45    H     0.02937   0.10459   0.19144   0.00000  Uiso   1.00
H46    H     0.13906   0.13958   0.10893   0.00000  Uiso   1.00
H47    H     0.19705   0.18848   0.39017   0.00000  Uiso   1.00
H48    H     0.32371   0.21525   0.12056   0.00000  Uiso   1.00
H49    H     0.00721   0.12744   0.38089   0.00000  Uiso   1.00
H50    H     0.30752   0.10995   0.45911   0.00000  Uiso   1.00
H51    H     0.02080   0.23959   0.04380   0.00000  Uiso   1.00
H52    H     0.07207   0.12867   0.07402   0.00000  Uiso   1.00
N53    N     0.31506   0.18068   0.26212   0.00000  Uiso   1.00
N54    N     0.01827   0.15265   0.23788   0.00000  Uiso   1.00
O55    O     0.12815   0.23809   0.24686   0.00000  Uiso   1.00
O56    O     0.10246   0.31619   0.22171   0.00000  Uiso   1.00
O57    O     0.00491   0.21096   0.29289   0.00000  Uiso   1.00
O58    O     0.32842   0.12237   0.20711   0.00000  Uiso   1.00
O59    O     0.20518   0.09524   0.25314   0.00000  Uiso   1.00
O60    O     0.22829   0.24753   0.25503   0.00000  Uiso   1.00
O61    O     0.10504   0.08580   0.24498   0.00000  Uiso   1.00
O62    O     0.08851   0.15930   0.30855   0.00000  Uiso   1.00
O63    O     0.24482   0.17403   0.19146   0.00000  Uiso   1.00
O64    O     0.18866   0.16874   0.31671   0.00000  Uiso   1.00
O65    O     0.14468   0.16460   0.18329   0.00000  Uiso   1.00
O66    O     0.23217   0.01738   0.27727   0.00000  Uiso   1.00
C67    C     0.51432   0.26643   0.25215   0.00000  Uiso   1.00
C68    C     0.53846   0.17046   0.16695   0.00000  Uiso   1.00
C69    C     0.43838   0.15895   0.38074   0.00000  Uiso   1.00
C70    C     0.56140   0.17737   0.11959   0.00000  Uiso   1.00
C71    C     0.35641   0.12799   0.44481   0.00000  Uiso   1.00
C72    C     0.63983   0.21808   0.05743   0.00000  Uiso   1.00
C73    C     0.37504   0.13793   0.40026   0.00000  Uiso   1.00
C74    C     0.62290   0.20396   0.10103   0.00000  Uiso   1.00
C75    C     0.48201   0.17315   0.40661   0.00000  Uiso   1.00
C76    C     0.51811   0.16221   0.09358   0.00000  Uiso   1.00
C77    C     0.46413   0.16524   0.45190   0.00000  Uiso   1.00
C78    C     0.48571   0.06691   0.24787   0.00000  Uiso   1.00
C79    C     0.53332   0.17684   0.04971   0.00000  Uiso   1.00
C80    C     0.40061   0.14047   0.47051   0.00000  Uiso   1.00
C81    C     0.59550   0.20526   0.03183   0.00000  Uiso   1.00
C82    C     0.50795   0.17948   0.47878   0.00000  Uiso   1.00
C83    C     0.48851   0.16481   0.02343   0.00000  Uiso   1.00
C84    C     0.54271   0.01339   0.32309   0.00000  Uiso   1.00
C85    C     0.58860   0.05099   0.34511   0.00000  Uiso   1.00
C86    C     0.46076   0.31989   0.17602   0.00000  Uiso   1.00
C87    C     0.41545   0.28329   0.15299   0.00000  Uiso   1.00
C88    C     0.42473   0.13943   0.04040   0.00000  Uiso   1.00
C89    C     0.57017   0.20870   0.46269   0.00000  Uiso   1.00
C90    C     0.38185   0.12787   0.01442   0.00000  Uiso   1.00
C91    C     0.61283   0.22123   0.48879   0.00000  Uiso   1.00
C92    C     0.51941   0.32195   0.25749   0.00000  Uiso   1.00
C93    C     0.48090   0.01144   0.24238   0.00000  Uiso   1.00
C94    C     0.46153   0.16310   0.33308   0.00000  Uiso   1.00
Cu95   Cu    0.44071   0.16108   0.24517   0.00000  Uiso   1.00
Cu96   Cu    0.55929   0.17225   0.25484   0.00000  Uiso   1.00
H97    H     0.33340   0.10878   0.02893   0.00000  Uiso   1.00
H98    H     0.58738   0.22389   0.43022   0.00000  Uiso   1.00
H99    H     0.53900   0.30620   0.33326   0.00000  Uiso   1.00
H100   H     0.49565   0.02421   0.33465   0.00000  Uiso   1.00
H101   H     0.59251   0.09184   0.33590   0.00000  Uiso   1.00
H102   H     0.57140   0.04821   0.38122   0.00000  Uiso   1.00
H103   H     0.63600   0.04107   0.33477   0.00000  Uiso   1.00
H104   H     0.50726   0.30795   0.16563   0.00000  Uiso   1.00
H105   H     0.46641   0.02726   0.16549   0.00000  Uiso   1.00
H106   H     0.36875   0.29454   0.16209   0.00000  Uiso   1.00
H107   H     0.43443   0.28575   0.11698   0.00000  Uiso   1.00
H108   H     0.66000   0.24357   0.47502   0.00000  Uiso   1.00
H109   H     0.40946   0.24227   0.16262   0.00000  Uiso   1.00
H110   H     0.63729   0.22873   0.30857   0.00000  Uiso   1.00
H111   H     0.36270   0.10459   0.19144   0.00000  Uiso   1.00
H112   H     0.47240   0.13958   0.10893   0.00000  Uiso   1.00
H113   H     0.53038   0.18848   0.39017   0.00000  Uiso   1.00
H114   H     0.65705   0.21525   0.12056   0.00000  Uiso   1.00
H115   H     0.34054   0.12744   0.38089   0.00000  Uiso   1.00
H116   H     0.64086   0.10995   0.45911   0.00000  Uiso   1.00
H117   H     0.35413   0.23959   0.04380   0.00000  Uiso   1.00
H118   H     0.40540   0.12867   0.07402   0.00000  Uiso   1.00
N119   N     0.64839   0.18068   0.26212   0.00000  Uiso   1.00
N120   N     0.35161   0.15265   0.23788   0.00000  Uiso   1.00
O121   O     0.46148   0.23809   0.24686   0.00000  Uiso   1.00
O122   O     0.43580   0.31619   0.22171   0.00000  Uiso   1.00
O123   O     0.33825   0.21096   0.29289   0.00000  Uiso   1.00
O124   O     0.66175   0.12237   0.20711   0.00000  Uiso   1.00
O125   O     0.53852   0.09524   0.25314   0.00000  Uiso   1.00
O126   O     0.56163   0.24753   0.25503   0.00000  Uiso   1.00
O127   O     0.43837   0.08580   0.24498   0.00000  Uiso   1.00
O128   O     0.42185   0.15930   0.30855   0.00000  Uiso   1.00
O129   O     0.57815   0.17403   0.19146   0.00000  Uiso   1.00
O130   O     0.52199   0.16874   0.31671   0.00000  Uiso   1.00
O131   O     0.47801   0.16460   0.18329   0.00000  Uiso   1.00
O132   O     0.56550   0.01738   0.27727   0.00000  Uiso   1.00
C133   C     0.84766   0.26643   0.25215   0.00000  Uiso   1.00
C134   C     0.87179   0.17046   0.16695   0.00000  Uiso   1.00
C135   C     0.77172   0.15895   0.38074   0.00000  Uiso   1.00
C136   C     0.89473   0.17737   0.11959   0.00000  Uiso   1.00
C137   C     0.68975   0.12799   0.44481   0.00000  Uiso   1.00
C138   C     0.97316   0.21808   0.05743   0.00000  Uiso   1.00
C139   C     0.70837   0.13793   0.40026   0.00000  Uiso   1.00
C140   C     0.95623   0.20396   0.10103   0.00000  Uiso   1.00
C141   C     0.81534   0.17315   0.40661   0.00000  Uiso   1.00
C142   C     0.85144   0.16221   0.09358   0.00000  Uiso   1.00
C143   C     0.79746   0.16524   0.45190   0.00000  Uiso   1.00
C144   C     0.81904   0.06691   0.24787   0.00000  Uiso   1.00
C145   C     0.86665   0.17684   0.04971   0.00000  Uiso   1.00
C146   C     0.73395   0.14047   0.47051   0.00000  Uiso   1.00
C147   C     0.92883   0.20526   0.03183   0.00000  Uiso   1.00
C148   C     0.84129   0.17948   0.47878   0.00000  Uiso   1.00
C149   C     0.82185   0.16481   0.02343   0.00000  Uiso   1.00
C150   C     0.87604   0.01339   0.32309   0.00000  Uiso   1.00
C151   C     0.92193   0.05099   0.34511   0.00000  Uiso   1.00
C152   C     0.79409   0.31989   0.17602   0.00000  Uiso   1.00
C153   C     0.74878   0.28329   0.15299   0.00000  Uiso   1.00
C154   C     0.75806   0.13943   0.04040   0.00000  Uiso   1.00
C155   C     0.90350   0.20870   0.46269   0.00000  Uiso   1.00
C156   C     0.71518   0.12787   0.01442   0.00000  Uiso   1.00
C157   C     0.94616   0.22123   0.48879   0.00000  Uiso   1.00
C158   C     0.85274   0.32195   0.25749   0.00000  Uiso   1.00
C159   C     0.81423   0.01144   0.24238   0.00000  Uiso   1.00
C160   C     0.79486   0.16310   0.33308   0.00000  Uiso   1.00
Cu161  Cu    0.77404   0.16108   0.24517   0.00000  Uiso   1.00
Cu162  Cu    0.89263   0.17225   0.25484   0.00000  Uiso   1.00
H163   H     0.66673   0.10878   0.02893   0.00000  Uiso   1.00
H164   H     0.92072   0.22389   0.43022   0.00000  Uiso   1.00
H165   H     0.87234   0.30620   0.33326   0.00000  Uiso   1.00
H166   H     0.82898   0.02421   0.33465   0.00000  Uiso   1.00
H167   H     0.92584   0.09184   0.33590   0.00000  Uiso   1.00
H168   H     0.90474   0.04821   0.38122   0.00000  Uiso   1.00
H169   H     0.96934   0.04107   0.33477   0.00000  Uiso   1.00
H170   H     0.84059   0.30795   0.16563   0.00000  Uiso   1.00
H171   H     0.79975   0.02726   0.16549   0.00000  Uiso   1.00
H172   H     0.70209   0.29454   0.16209   0.00000  Uiso   1.00
H173   H     0.76776   0.28575   0.11698   0.00000  Uiso   1.00
H174   H     0.99333   0.24357   0.47502   0.00000  Uiso   1.00
H175   H     0.74280   0.24227   0.16262   0.00000  Uiso   1.00
H176   H     0.97063   0.22873   0.30857   0.00000  Uiso   1.00
H177   H     0.69603   0.10459   0.19144   0.00000  Uiso   1.00
H178   H     0.80573   0.13958   0.10893   0.00000  Uiso   1.00
H179   H     0.86371   0.18848   0.39017   0.00000  Uiso   1.00
H180   H     0.99038   0.21525   0.12056   0.00000  Uiso   1.00
H181   H     0.67387   0.12744   0.38089   0.00000  Uiso   1.00
H182   H     0.97419   0.10995   0.45911   0.00000  Uiso   1.00
H183   H     0.68747   0.23959   0.04380   0.00000  Uiso   1.00
H184   H     0.73874   0.12867   0.07402   0.00000  Uiso   1.00
N185   N     0.98173   0.18068   0.26212   0.00000  Uiso   1.00
N186   N     0.68494   0.15265   0.23788   0.00000  Uiso   1.00
O187   O     0.79482   0.23809   0.24686   0.00000  Uiso   1.00
O188   O     0.76913   0.31619   0.22171   0.00000  Uiso   1.00
O189   O     0.67158   0.21096   0.29289   0.00000  Uiso   1.00
O190   O     0.99508   0.12237   0.20711   0.00000  Uiso   1.00
O191   O     0.87185   0.09524   0.25314   0.00000  Uiso   1.00
O192   O     0.89496   0.24753   0.25503   0.00000  Uiso   1.00
O193   O     0.77171   0.08580   0.24498   0.00000  Uiso   1.00
O194   O     0.75518   0.15930   0.30855   0.00000  Uiso   1.00
O195   O     0.91149   0.17403   0.19146   0.00000  Uiso   1.00
O196   O     0.85532   0.16874   0.31671   0.00000  Uiso   1.00
O197   O     0.81134   0.16460   0.18329   0.00000  Uiso   1.00
O198   O     0.89883   0.01738   0.27727   0.00000  Uiso   1.00
C199   C     0.18099   0.59977   0.25215   0.00000  Uiso   1.00
C200   C     0.20512   0.50380   0.16695   0.00000  Uiso   1.00
C201   C     0.10505   0.49228   0.38074   0.00000  Uiso   1.00
C202   C     0.22806   0.51070   0.11959   0.00000  Uiso   1.00
C203   C     0.02308   0.46132   0.44481   0.00000  Uiso   1.00
C204   C     0.30649   0.55142   0.05743   0.00000  Uiso   1.00
C205   C     0.04170   0.47127   0.40026   0.00000  Uiso   1.00
C206   C     0.28956   0.53729   0.10103   0.00000  Uiso   1.00
C207   C     0.14867   0.50648   0.40661   0.00000  Uiso   1.00
C208   C     0.18477   0.49554   0.09358   0.00000  Uiso   1.00
C209   C     0.13079   0.49857   0.45190   0.00000  Uiso   1.00
C210   C     0.15238   0.40024   0.24787   0.00000  Uiso   1.00
C211   C     0.19999   0.51017   0.04971   0.00000  Uiso   1.00
C212   C     0.06728   0.47381   0.47051   0.00000  Uiso   1.00
C213   C     0.26217   0.53860   0.03183   0.00000  Uiso   1.00
C214   C     0.17462   0.51281   0.47878   0.00000  Uiso   1.00
C215   C     0.15518   0.49814   0.02343   0.00000  Uiso   1.00
C216   C     0.20937   0.34672   0.32309   0.00000  Uiso   1.00
C217   C     0.25527   0.38432   0.34511   0.00000  Uiso   1.00
C218   C     0.12743   0.65322   0.17602   0.00000  Uiso   1.00
C219   C     0.08211   0.61663   0.15299   0.00000  Uiso   1.00
C220   C     0.09139   0.47276   0.04040   0.00000  Uiso   1.00
C221   C     0.23683   0.54203   0.46269   0.00000  Uiso   1.00
C222   C     0.04851   0.46120   0.01442   0.00000  Uiso   1.00
C223   C     0.27949   0.55456   0.48879   0.00000  Uiso   1.00
C224   C     0.18607   0.65529   0.25749   0.00000  Uiso   1.00
C225   C     0.14756   0.34477   0.24238   0.00000  Uiso   1.00
C226   C     0.12819   0.49643   0.33308   0.00000  Uiso   1.00
Cu227  Cu    0.10737   0.49441   0.24517   0.00000  Uiso   1.00
Cu228  Cu    0.22596   0.50559   0.25484   0.00000  Uiso   1.00
H229   H     0.00007   0.44212   0.02893   0.00000  Uiso   1.00
H230   H     0.25405   0.55722   0.43022   0.00000  Uiso   1.00
H231   H     0.20567   0.63954   0.33326   0.00000  Uiso   1.00
H232   H     0.16231   0.35754   0.33465   0.00000  Uiso   1.00
H233   H     0.25918   0.42518   0.33590   0.00000  Uiso   1.00
H234   H     0.23807   0.38154   0.38122   0.00000  Uiso   1.00
H235   H     0.30267   0.37440   0.33477   0.00000  Uiso   1.00
H236   H     0.17393   0.64128   0.16563   0.00000  Uiso   1.00
H237   H     0.13308   0.36060   0.16549   0.00000  Uiso   1.00
H238   H     0.03542   0.62787   0.16209   0.00000  Uiso   1.00
H239   H     0.10109   0.61908   0.11698   0.00000  Uiso   1.00
H240   H     0.32666   0.57691   0.47502   0.00000  Uiso   1.00
H241   H     0.07613   0.57560   0.16262   0.00000  Uiso   1.00
H242   H     0.30396   0.56207   0.30857   0.00000  Uiso   1.00
H243   H     0.02937   0.43792   0.19144   0.00000  Uiso   1.00
H244   H     0.13906   0.47291   0.10893   0.00000  Uiso   1.00
H245   H     0.19705   0.52182   0.39017   0.00000  Uiso   1.00
H246   H     0.32371   0.54858   0.12056   0.00000  Uiso   1.00
H247   H     0.00721   0.46078   0.38089   0.00000  Uiso   1.00
H248   H     0.30752   0.44329   0.45911   0.00000  Uiso   1.00
H249   H     0.02080   0.57292   0.04380   0.00000  Uiso   1.00
H250   H     0.07207   0.46201   0.07402   0.00000  Uiso   1.00
N251   N     0.31506   0.51401   0.26212   0.00000  Uiso   1.00
N252   N     0.01827   0.48599   0.23788   0.00000  Uiso   1.00
O253   O     0.12815   0.57142   0.24686   0.00000  Uiso   1.00
O254   O     0.10246   0.64952   0.22171   0.00000  Uiso   1.00
O255   O     0.00491   0.54429   0.29289   0.00000  Uiso   1.00
O256   O     0.32842   0.45570   0.20711   0.00000  Uiso   1.00
O257   O     0.20518   0.42858   0.25314   0.00000  Uiso   1.00
O258   O     0.22829   0.58086   0.25503   0.00000  Uiso   1.00
O259   O     0.10504   0.41914   0.24498   0.00000  Uiso   1.00
O260   O     0.08851   0.49263   0.30855   0.00000  Uiso   1.00
O261   O     0.24482   0.50737   0.19146   0.00000  Uiso   1.00
O262   O     0.18866   0.50207   0.31671   0.00000  Uiso   1.00
O263   O     0.14468   0.49793   0.18329   0.00000  Uiso   1.00
O264   O     0.23217   0.35072   0.27727   0.00000  Uiso   1.00
C265   C     0.51432   0.59977   0.25215   0.00000  Uiso   1.00
C266   C     0.53846   0.50380   0.16695   0.00000  Uiso   1.00
C267   C     0.43838   0.49228   0.38074   0.00000  Uiso   1.00
C268   C     0.56140   0.51070   0.11959   0.00000  Uiso   1.00
C269   C     0.35641   0.46132   0.44481   0.00000  Uiso   1.00
C270   C     0.63983   0.55142   0.05743   0.00000  Uiso   1.00
C271   C     0.37504   0.47127   0.40026   0.00000  Uiso   1.00
C272   C     0.62290   0.53729   0.10103   0.00000  Uiso   1.00
C273   C     0.48201   0.50648   0.40661   0.00000  Uiso   1.00
C274   C     0.51811   0.49554   0.09358   0.00000  Uiso   1.00
C275   C     0.46413   0.49857   0.45190   0.00000  Uiso   1.00
C276   C     0.48571   0.40024   0.24787   0.00000  Uiso   1.00
C277   C     0.53332   0.51017   0.04971   0.00000  Uiso   1.00
C278   C     0.40061   0.47381   0.47051   0.00000  Uiso   1.00
C279   C     0.59550   0.53860   0.03183   0.00000  Uiso   1.00
C280   C     0.50795   0.51281   0.47878   0.00000  Uiso   1.00
C281   C     0.48851   0.49814   0.02343   0.00000  Uiso   1.00
C282   C     0.54271   0.34672   0.32309   0.00000  Uiso   1.00
C283   C     0.58860   0.38432   0.34511   0.00000  Uiso   1.00
C284   C     0.46076   0.65322   0.17602   0.00000  Uiso   1.00
C285   C     0.41545   0.61663   0.15299   0.00000  Uiso   1.00
C286   C     0.42473   0.47276   0.04040   0.00000  Uiso   1.00
C287   C     0.57017   0.54203   0.46269   0.00000  Uiso   1.00
C288   C     0.38185   0.46120   0.01442   0.00000  Uiso   1.00
C289   C     0.61283   0.55456   0.48879   0.00000  Uiso   1.00
C290   C     0.51941   0.65529   0.25749   0.00000  Uiso   1.00
C291   C     0.48090   0.34477   0.24238   0.00000  Uiso   1.00
C292   C     0.46153   0.49643   0.33308   0.00000  Uiso   1.00
Cu293  Cu    0.44071   0.49441   0.24517   0.00000  Uiso   1.00
Cu294  Cu    0.55929   0.50559   0.25484   0.00000  Uiso   1.00
H295   H     0.33340   0.44212   0.02893   0.00000  Uiso   1.00
H296   H     0.58738   0.55722   0.43022   0.00000  Uiso   1.00
H297   H     0.53900   0.63954   0.33326   0.00000  Uiso   1.00
H298   H     0.49565   0.35754   0.33465   0.00000  Uiso   1.00
H299   H     0.59251   0.42518   0.33590   0.00000  Uiso   1.00
H300   H     0.57140   0.38154   0.38122   0.00000  Uiso   1.00
H301   H     0.63600   0.37440   0.33477   0.00000  Uiso   1.00
H302   H     0.50726   0.64128   0.16563   0.00000  Uiso   1.00
H303   H     0.46641   0.36060   0.16549   0.00000  Uiso   1.00
H304   H     0.36875   0.62787   0.16209   0.00000  Uiso   1.00
H305   H     0.43443   0.61908   0.11698   0.00000  Uiso   1.00
H306   H     0.66000   0.57691   0.47502   0.00000  Uiso   1.00
H307   H     0.40946   0.57560   0.16262   0.00000  Uiso   1.00
H308   H     0.63729   0.56207   0.30857   0.00000  Uiso   1.00
H309   H     0.36270   0.43792   0.19144   0.00000  Uiso   1.00
H310   H     0.47240   0.47291   0.10893   0.00000  Uiso   1.00
H311   H     0.53038   0.52182   0.39017   0.00000  Uiso   1.00
H312   H     0.65705   0.54858   0.12056   0.00000  Uiso   1.00
H313   H     0.34054   0.46078   0.38089   0.00000  Uiso   1.00
H314   H     0.64086   0.44329   0.45911   0.00000  Uiso   1.00
H315   H     0.35413   0.57292   0.04380   0.00000  Uiso   1.00
H316   H     0.40540   0.46201   0.07402   0.00000  Uiso   1.00
N317   N     0.64839   0.51401   0.26212   0.00000  Uiso   1.00
N318   N     0.35161   0.48599   0.23788   0.00000  Uiso   1.00
O319   O     0.46148   0.57142   0.24686   0.00000  Uiso   1.00
O320   O     0.43580   0.64952   0.22171   0.00000  Uiso   1.00
O321   O     0.33825   0.54429   0.29289   0.00000  Uiso   1.00
O322   O     0.66175   0.45570   0.20711   0.00000  Uiso   1.00
O323   O     0.53852   0.42858   0.25314   0.00000  Uiso   1.00
O324   O     0.56163   0.58086   0.25503   0.00000  Uiso   1.00
O325   O     0.43837   0.41914   0.24498   0.00000  Uiso   1.00
O326   O     0.42185   0.49263   0.30855   0.00000  Uiso   1.00
O327   O     0.57815   0.50737   0.19146   0.00000  Uiso   1.00
O328   O     0.52199   0.50207   0.31671   0.00000  Uiso   1.00
O329   O     0.47801   0.49793   0.18329   0.00000  Uiso   1.00
O330   O     0.56550   0.35072   0.27727   0.00000  Uiso   1.00
C331   C     0.84766   0.59977   0.25215   0.00000  Uiso   1.00
C332   C     0.87179   0.50380   0.16695   0.00000  Uiso   1.00
C333   C     0.77172   0.49228   0.38074   0.00000  Uiso   1.00
C334   C     0.89473   0.51070   0.11959   0.00000  Uiso   1.00
C335   C     0.68975   0.46132   0.44481   0.00000  Uiso   1.00
C336   C     0.97316   0.55142   0.05743   0.00000  Uiso   1.00
C337   C     0.70837   0.47127   0.40026   0.00000  Uiso   1.00
C338   C     0.95623   0.53729   0.10103   0.00000  Uiso   1.00
C339   C     0.81534   0.50648   0.40661   0.00000  Uiso   1.00
C340   C     0.85144   0.49554   0.09358   0.00000  Uiso   1.00
C341   C     0.79746   0.49857   0.45190   0.00000  Uiso   1.00
C342   C     0.81904   0.40024   0.24787   0.00000  Uiso   1.00
C343   C     0.86665   0.51017   0.04971   0.00000  Uiso   1.00
C344   C     0.73395   0.47381   0.47051   0.00000  Uiso   1.00
C345   C     0.92883   0.53860   0.03183   0.00000  Uiso   1.00
C346   C     0.84129   0.51281   0.47878   0.00000  Uiso   1.00
C347   C     0.82185   0.49814   0.02343   0.00000  Uiso   1.00
C348   C     0.87604   0.34672   0.32309   0.00000  Uiso   1.00
C349   C     0.92193   0.38432   0.34511   0.00000  Uiso   1.00
C350   C     0.79409   0.65322   0.17602   0.00000  Uiso   1.00
C351   C     0.74878   0.61663   0.15299   0.00000  Uiso   1.00
C352   C     0.75806   0.47276   0.04040   0.00000  Uiso   1.00
C353   C     0.90350   0.54203   0.46269   0.00000  Uiso   1.00
C354   C     0.71518   0.46120   0.01442   0.00000  Uiso   1.00
C355   C     0.94616   0.55456   0.48879   0.00000  Uiso   1.00
C356   C     0.85274   0.65529   0.25749   0.00000  Uiso   1.00
C357   C     0.81423   0.34477   0.24238   0.00000  Uiso   1.00
C358   C     0.79486   0.49643   0.33308   0.00000  Uiso   1.00
Cu359  Cu    0.77404   0.49441   0.24517   0.00000  Uiso   1.00
Cu360  Cu    0.89263   0.50559   0.25484   0.00000  Uiso   1.00
H361   H     0.66673   0.44212   0.02893   0.00000  Uiso   1.00
H362   H     0.92072   0.55722   0.43022   0.00000  Uiso   1.00
H363   H     0.87234   0.63954   0.33326   0.00000  Uiso   1.00
H364   H     0.82898   0.35754   0.33465   0.00000  Uiso   1.00
H365   H     0.92584   0.42518   0.33590   0.00000  Uiso   1.00
H366   H     0.90474   0.38154   0.38122   0.00000  Uiso   1.00
H367   H     0.96934   0.37440   0.33477   0.00000  Uiso   1.00
H368   H     0.84059   0.64128   0.16563   0.00000  Uiso   1.00
H369   H     0.79975   0.36060   0.16549   0.00000  Uiso   1.00
H370   H     0.70209   0.62787   0.16209   0.00000  Uiso   1.00
H371   H     0.76776   0.61908   0.11698   0.00000  Uiso   1.00
H372   H     0.99333   0.57691   0.47502   0.00000  Uiso   1.00
H373   H     0.74280   0.57560   0.16262   0.00000  Uiso   1.00
H374   H     0.97063   0.56207   0.30857   0.00000  Uiso   1.00
H375   H     0.69603   0.43792   0.19144   0.00000  Uiso   1.00
H376   H     0.80573   0.47291   0.10893   0.00000  Uiso   1.00
H377   H     0.86371   0.52182   0.39017   0.00000  Uiso   1.00
H378   H     0.99038   0.54858   0.12056   0.00000  Uiso   1.00
H379   H     0.67387   0.46078   0.38089   0.00000  Uiso   1.00
H380   H     0.97419   0.44329   0.45911   0.00000  Uiso   1.00
H381   H     0.68747   0.57292   0.04380   0.00000  Uiso   1.00
H382   H     0.73874   0.46201   0.07402   0.00000  Uiso   1.00
N383   N     0.98173   0.51401   0.26212   0.00000  Uiso   1.00
N384   N     0.68494   0.48599   0.23788   0.00000  Uiso   1.00
O385   O     0.79482   0.57142   0.24686   0.00000  Uiso   1.00
O386   O     0.76913   0.64952   0.22171   0.00000  Uiso   1.00
O387   O     0.67158   0.54429   0.29289   0.00000  Uiso   1.00
O388   O     0.99508   0.45570   0.20711   0.00000  Uiso   1.00
O389   O     0.87185   0.42858   0.25314   0.00000  Uiso   1.00
O390   O     0.89496   0.58086   0.25503   0.00000  Uiso   1.00
O391   O     0.77171   0.41914   0.24498   0.00000  Uiso   1.00
O392   O     0.75518   0.49263   0.30855   0.00000  Uiso   1.00
O393   O     0.91149   0.50737   0.19146   0.00000  Uiso   1.00
O394   O     0.85532   0.50207   0.31671   0.00000  Uiso   1.00
O395   O     0.81134   0.49793   0.18329   0.00000  Uiso   1.00
O396   O     0.89883   0.35072   0.27727   0.00000  Uiso   1.00
C397   C     0.18099   0.93310   0.25215   0.00000  Uiso   1.00
C398   C     0.20512   0.83713   0.16695   0.00000  Uiso   1.00
C399   C     0.10505   0.82562   0.38074   0.00000  Uiso   1.00
C400   C     0.22806   0.84404   0.11959   0.00000  Uiso   1.00
C401   C     0.02308   0.79465   0.44481   0.00000  Uiso   1.00
C402   C     0.30649   0.88475   0.05743   0.00000  Uiso   1.00
C403   C     0.04170   0.80460   0.40026   0.00000  Uiso   1.00
C404   C     0.28956   0.87062   0.10103   0.00000  Uiso   1.00
C405   C     0.14867   0.83982   0.40661   0.00000  Uiso   1.00
C406   C     0.18477   0.82888   0.09358   0.00000  Uiso   1.00
C407   C     0.13079   0.83190   0.45190   0.00000  Uiso   1.00
C408   C     0.15238   0.73357   0.24787   0.00000  Uiso   1.00
C409   C     0.19999   0.84350   0.04971   0.00000  Uiso   1.00
C410   C     0.06728   0.80714   0.47051   0.00000  Uiso   1.00
C411   C     0.26217   0.87193   0.03183   0.00000  Uiso   1.00
C412   C     0.17462   0.84615   0.47878   0.00000  Uiso   1.00
C413   C     0.15518   0.83147   0.02343   0.00000  Uiso   1.00
C414   C     0.20937   0.68006   0.32309   0.00000  Uiso   1.00
C415   C     0.25527   0.71766   0.34511   0.00000  Uiso   1.00
C416   C     0.12743   0.98656   0.17602   0.00000  Uiso   1.00
C417   C     0.08211   0.94996   0.15299   0.00000  Uiso   1.00
C418   C     0.09139   0.80610   0.04040   0.00000  Uiso   1.00
C419   C     0.23683   0.87537   0.46269   0.00000  Uiso   1.00
C420   C     0.04851   0.79454   0.01442   0.00000  Uiso   1.00
C421   C     0.27949   0.88789   0.48879   0.00000  Uiso   1.00
C422   C     0.18607   0.98862   0.25749   0.00000  Uiso   1.00
C423   C     0.14756   0.67810   0.24238   0.00000  Uiso   1.00
C424   C     0.12819   0.82976   0.33308   0.00000  Uiso   1.00
Cu425  Cu    0.10737   0.82775   0.24517   0.00000  Uiso   1.00
Cu426  Cu    0.22596   0.83892   0.25484   0.00000  Uiso   1.00
H427   H     0.00007   0.77545   0.02893   0.00000  Uiso   1.00
H428   H     0.25405   0.89056   0.43022   0.00000  Uiso   1.00
H429   H     0.20567   0.97287   0.33326   0.00000  Uiso   1.00
H430   H     0.16231   0.69088   0.33465   0.00000  Uiso   1.00
H431   H     0.25918   0.75851   0.33590   0.00000  Uiso   1.00
H432   H     0.23807   0.71488   0.38122   0.00000  Uiso   1.00
H433   H     0.30267   0.70774   0.33477   0.00000  Uiso   1.00
H434   H     0.17393   0.97462   0.16563   0.00000  Uiso   1.00
H435   H     0.13308   0.69393   0.16549   0.00000  Uiso   1.00
H436   H     0.03542   0.96121   0.16209   0.00000  Uiso   1.00
H437   H     0.10109   0.95241   0.11698   0.00000  Uiso   1.00
H438   H     0.32666   0.91024   0.47502   0.00000  Uiso   1.00
H439   H     0.07613   0.90893   0.16262   0.00000  Uiso   1.00
H440   H     0.30396   0.89540   0.30857   0.00000  Uiso   1.00
H441   H     0.02937   0.77125   0.19144   0.00000  Uiso   1.00
H442   H     0.13906   0.80625   0.10893   0.00000  Uiso   1.00
H443   H     0.19705   0.85515   0.39017   0.00000  Uiso   1.00
H444   H     0.32371   0.88192   0.12056   0.00000  Uiso   1.00
H445   H     0.00721   0.79411   0.38089   0.00000  Uiso   1.00
H446   H     0.30752   0.77662   0.45911   0.00000  Uiso   1.00
H447   H     0.02080   0.90626   0.04380   0.00000  Uiso   1.00
H448   H     0.07207   0.79534   0.07402   0.00000  Uiso   1.00
N449   N     0.31506   0.84735   0.26212   0.00000  Uiso   1.00
N450   N     0.01827   0.81932   0.23788   0.00000  Uiso   1.00
O451   O     0.12815   0.90476   0.24686   0.00000  Uiso   1.00
O452   O     0.10246   0.98286   0.22171   0.00000  Uiso   1.00
O453   O     0.00491   0.87762   0.29289   0.00000  Uiso   1.00
O454   O     0.32842   0.78903   0.20711   0.00000  Uiso   1.00
O455   O     0.20518   0.76191   0.25314   0.00000  Uiso   1.00
O456   O     0.22829   0.91420   0.25503   0.00000  Uiso   1.00
O457   O     0.10504   0.75247   0.24498   0.00000  Uiso   1.00
O458   O     0.08851   0.82597   0.30855   0.00000  Uiso   1.00
O459   O     0.24482   0.84070   0.19146   0.00000  Uiso   1.00
O460   O     0.18866   0.83540   0.31671   0.00000  Uiso   1.00
O461   O     0.14468   0.83126   0.18329   0.00000  Uiso   1.00
O462   O     0.23217   0.68405   0.27727   0.00000  Uiso   1.00
C463   C     0.51432   0.93310   0.25215   0.00000  Uiso   1.00
C464   C     0.53846   0.83713   0.16695   0.00000  Uiso   1.00
C465   C     0.43838   0.82562   0.38074   0.00000  Uiso   1.00
C466   C     0.56140   0.84404   0.11959   0.00000  Uiso   1.00
C467   C     0.35641   0.79465   0.44481   0.00000  Uiso   1.00
C468   C     0.63983   0.88475   0.05743   0.00000  Uiso   1.00
C469   C     0.37504   0.80460   0.40026   0.00000  Uiso   1.00
C470   C     0.62290   0.87062   0.10103   0.00000  Uiso   1.00
C471   C     0.48201   0.83982   0.40661   0.00000  Uiso   1.00
C472   C     0.51811   0.82888   0.09358   0.00000  Uiso   1.00
C473   C     0.46413   0.83190   0.45190   0.00000  Uiso   1.00
C474   C     0.48571   0.73357   0.24787   0.00000  Uiso   1.00
C475   C     0.53332   0.84350   0.04971   0.00000  Uiso   1.00
C476   C     0.40061   0.80714   0.47051   0.00000  Uiso   1.00
C477   C     0.59550   0.87193   0.03183   0.00000  Uiso   1.00
C478   C     0.50795   0.84615   0.47878   0.00000  Uiso   1.00
C479   C     0.48851   0.83147   0.02343   0.00000  Uiso   1.00
C480   C     0.54271   0.68006   0.32309   0.00000  Uiso   1.00
C481   C     0.58860   0.71766   0.34511   0.00000  Uiso   1.00
C482   C     0.46076   0.98656   0.17602   0.00000  Uiso   1.00
C483   C     0.41545   0.94996   0.15299   0.00000  Uiso   1.00
C484   C     0.42473   0.80610   0.04040   0.00000  Uiso   1.00
C485   C     0.57017   0.87537   0.46269   0.00000  Uiso   1.00
C486   C     0.38185   0.79454   0.01442   0.00000  Uiso   1.00
C487   C     0.61283   0.88789   0.48879   0.00000  Uiso   1.00
C488   C     0.51941   0.98862   0.25749   0.00000  Uiso   1.00
C489   C     0.48090   0.67810   0.24238   0.00000  Uiso   1.00
C490   C     0.46153   0.82976   0.33308   0.00000  Uiso   1.00
Cu491  Cu    0.44071   0.82775   0.24517   0.00000  Uiso   1.00
Cu492  Cu    0.55929   0.83892   0.25484   0.00000  Uiso   1.00
H493   H     0.33340   0.77545   0.02893   0.00000  Uiso   1.00
H494   H     0.58738   0.89056   0.43022   0.00000  Uiso   1.00
H495   H     0.53900   0.97287   0.33326   0.00000  Uiso   1.00
H496   H     0.49565   0.69088   0.33465   0.00000  Uiso   1.00
H497   H     0.59251   0.75851   0.33590   0.00000  Uiso   1.00
H498   H     0.57140   0.71488   0.38122   0.00000  Uiso   1.00
H499   H     0.63600   0.70774   0.33477   0.00000  Uiso   1.00
H500   H     0.50726   0.97462   0.16563   0.00000  Uiso   1.00
H501   H     0.46641   0.69393   0.16549   0.00000  Uiso   1.00
H502   H     0.36875   0.96121   0.16209   0.00000  Uiso   1.00
H503   H     0.43443   0.95241   0.11698   0.00000  Uiso   1.00
H504   H     0.66000   0.91024   0.47502   0.00000  Uiso   1.00
H505   H     0.40946   0.90893   0.16262   0.00000  Uiso   1.00
H506   H     0.63729   0.89540   0.30857   0.00000  Uiso   1.00
H507   H     0.36270   0.77125   0.19144   0.00000  Uiso   1.00
H508   H     0.47240   0.80625   0.10893   0.00000  Uiso   1.00
H509   H     0.53038   0.85515   0.39017   0.00000  Uiso   1.00
H510   H     0.65705   0.88192   0.12056   0.00000  Uiso   1.00
H511   H     0.34054   0.79411   0.38089   0.00000  Uiso   1.00
H512   H     0.64086   0.77662   0.45911   0.00000  Uiso   1.00
H513   H     0.35413   0.90626   0.04380   0.00000  Uiso   1.00
H514   H     0.40540   0.79534   0.07402   0.00000  Uiso   1.00
N515   N     0.64839   0.84735   0.26212   0.00000  Uiso   1.00
N516   N     0.35161   0.81932   0.23788   0.00000  Uiso   1.00
O517   O     0.46148   0.90476   0.24686   0.00000  Uiso   1.00
O518   O     0.43580   0.98286   0.22171   0.00000  Uiso   1.00
O519   O     0.33825   0.87762   0.29289   0.00000  Uiso   1.00
O520   O     0.66175   0.78903   0.20711   0.00000  Uiso   1.00
O521   O     0.53852   0.76191   0.25314   0.00000  Uiso   1.00
O522   O     0.56163   0.91420   0.25503   0.00000  Uiso   1.00
O523   O     0.43837   0.75247   0.24498   0.00000  Uiso   1.00
O524   O     0.42185   0.82597   0.30855   0.00000  Uiso   1.00
O525   O     0.57815   0.84070   0.19146   0.00000  Uiso   1.00
O526   O     0.52199   0.83540   0.31671   0.00000  Uiso   1.00
O527   O     0.47801   0.83126   0.18329   0.00000  Uiso   1.00
O528   O     0.56550   0.68405   0.27727   0.00000  Uiso   1.00
C529   C     0.84766   0.93310   0.25215   0.00000  Uiso   1.00
C530   C     0.87179   0.83713   0.16695   0.00000  Uiso   1.00
C531   C     0.77172   0.82562   0.38074   0.00000  Uiso   1.00
C532   C     0.89473   0.84404   0.11959   0.00000  Uiso   1.00
C533   C     0.68975   0.79465   0.44481   0.00000  Uiso   1.00
C534   C     0.97316   0.88475   0.05743   0.00000  Uiso   1.00
C535   C     0.70837   0.80460   0.40026   0.00000  Uiso   1.00
C536   C     0.95623   0.87062   0.10103   0.00000  Uiso   1.00
C537   C     0.81534   0.83982   0.40661   0.00000  Uiso   1.00
C538   C     0.85144   0.82888   0.09358   0.00000  Uiso   1.00
C539   C     0.79746   0.83190   0.45190   0.00000  Uiso   1.00
C540   C     0.81904   0.73357   0.24787   0.00000  Uiso   1.00
C541   C     0.86665   0.84350   0.04971   0.00000  Uiso   1.00
C542   C     0.73395   0.80714   0.47051   0.00000  Uiso   1.00
C543   C     0.92883   0.87193   0.03183   0.00000  Uiso   1.00
C544   C     0.84129   0.84615   0.47878   0.00000  Uiso   1.00
C545   C     0.82185   0.83147   0.02343   0.00000  Uiso   1.00
C546   C     0.87604   0.68006   0.32309   0.00000  Uiso   1.00
C547   C     0.92193   0.71766   0.34511   0.00000  Uiso   1.00
C548   C     0.79409   0.98656   0.17602   0.00000  Uiso   1.00
C549   C     0.74878   0.94996   0.15299   0.00000  Uiso   1.00
C550   C     0.75806   0.80610   0.04040   0.00000  Uiso   1.00
C551   C     0.90350   0.87537   0.46269   0.00000  Uiso   1.00
C552   C     0.71518   0.79454   0.01442   0.00000  Uiso   1.00
C553   C     0.94616   0.88789   0.48879   0.00000  Uiso   1.00
C554   C     0.85274   0.98862   0.25749   0.00000  Uiso   1.00
C555   C     0.81423   0.67810   0.24238   0.00000  Uiso   1.00
C556   C     0.79486   0.82976   0.33308   0.00000  Uiso   1.00
Cu557  Cu    0.77404   0.82775   0.24517   0.00000  Uiso   1.00
Cu558  Cu    0.89263   0.83892   0.25484   0.00000  Uiso   1.00
H559   H     0.66673   0.77545   0.02893   0.00000  Uiso   1.00
H560   H     0.92072   0.89056   0.43022   0.00000  Uiso   1.00
H561   H     0.87234   0.97287   0.33326   0.00000  Uiso   1.00
H562   H     0.82898   0.69088   0.33465   0.00000  Uiso   1.00
H563   H     0.92584   0.75851   0.33590   0.00000  Uiso   1.00
H564   H     0.90474   0.71488   0.38122   0.00000  Uiso   1.00
H565   H     0.96934   0.70774   0.33477   0.00000  Uiso   1.00
H566   H     0.84059   0.97462   0.16563   0.00000  Uiso   1.00
H567   H     0.79975   0.69393   0.16549   0.00000  Uiso   1.00
H568   H     0.70209   0.96121   0.16209   0.00000  Uiso   1.00
H569   H     0.76776   0.95241   0.11698   0.00000  Uiso   1.00
H570   H     0.99333   0.91024   0.47502   0.00000  Uiso   1.00
H571   H     0.74280   0.90893   0.16262   0.00000  Uiso   1.00
H572   H     0.97063   0.89540   0.30857   0.00000  Uiso   1.00
H573   H     0.69603   0.77125   0.19144   0.00000  Uiso   1.00
H574   H     0.80573   0.80625   0.10893   0.00000  Uiso   1.00
H575   H     0.86371   0.85515   0.39017   0.00000  Uiso   1.00
H576   H     0.99038   0.88192   0.12056   0.00000  Uiso   1.00
H577   H     0.67387   0.79411   0.38089   0.00000  Uiso   1.00
H578   H     0.97419   0.77662   0.45911   0.00000  Uiso   1.00
H579   H     0.68747   0.90626   0.04380   0.00000  Uiso   1.00
H580   H     0.73874   0.79534   0.07402   0.00000  Uiso   1.00
N581   N     0.98173   0.84735   0.26212   0.00000  Uiso   1.00
N582   N     0.68494   0.81932   0.23788   0.00000  Uiso   1.00
O583   O     0.79482   0.90476   0.24686   0.00000  Uiso   1.00
O584   O     0.76913   0.98286   0.22171   0.00000  Uiso   1.00
O585   O     0.67158   0.87762   0.29289   0.00000  Uiso   1.00
O586   O     0.99508   0.78903   0.20711   0.00000  Uiso   1.00
O587   O     0.87185   0.76191   0.25314   0.00000  Uiso   1.00
O588   O     0.89496   0.91420   0.25503   0.00000  Uiso   1.00
O589   O     0.77171   0.75247   0.24498   0.00000  Uiso   1.00
O590   O     0.75518   0.82597   0.30855   0.00000  Uiso   1.00
O591   O     0.91149   0.84070   0.19146   0.00000  Uiso   1.00
O592   O     0.85532   0.83540   0.31671   0.00000  Uiso   1.00
O593   O     0.81134   0.83126   0.18329   0.00000  Uiso   1.00
O594   O     0.89883   0.68405   0.27727   0.00000  Uiso   1.00
C595   C     0.18099   0.26643   0.75215   0.00000  Uiso   1.00
C596   C     0.20512   0.17046   0.66695   0.00000  Uiso   1.00
C597   C     0.10505   0.15895   0.88074   0.00000  Uiso   1.00
C598   C     0.22806   0.17737   0.61959   0.00000  Uiso   1.00
C599   C     0.02308   0.12799   0.94481   0.00000  Uiso   1.00
C600   C     0.30649   0.21808   0.55743   0.00000  Uiso   1.00
C601   C     0.04170   0.13793   0.90026   0.00000  Uiso   1.00
C602   C     0.28956   0.20396   0.60103   0.00000  Uiso   1.00
C603   C     0.14867   0.17315   0.90661   0.00000  Uiso   1.00
C604   C     0.18477   0.16221   0.59358   0.00000  Uiso   1.00
C605   C     0.13079   0.16524   0.95190   0.00000  Uiso   1.00
C606   C     0.15238   0.06691   0.74787   0.00000  Uiso   1.00
C607   C     0.19999   0.17684   0.54971   0.00000  Uiso   1.00
C608   C     0.06728   0.14047   0.97051   0.00000  Uiso   1.00
C609   C     0.26217   0.20526   0.53183   0.00000  Uiso   1.00
C610   C     0.17462   0.17948   0.97878   0.00000  Uiso   1.00
C611   C     0.15518   0.16481   0.52343   0.00000  Uiso   1.00
C612   C     0.20937   0.01339   0.82309   0.00000  Uiso   1.00
C613   C     0.25527   0.05099   0.84511   0.00000  Uiso   1.00
C614   C     0.12743   0.31989   0.67602   0.00000  Uiso   1.00
C615   C     0.08211   0.28329   0.65299   0.00000  Uiso   1.00
C616   C     0.09139   0.13943   0.54040   0.00000  Uiso   1.00
C617   C     0.23683   0.20870   0.96269   0.00000  Uiso   1.00
C618   C     0.04851   0.12787   0.51442   0.00000  Uiso   1.00
C619   C     0.27949   0.22123   0.98879   0.00000  Uiso   1.00
C620   C     0.18607   0.32195   0.75749   0.00000  Uiso   1.00
C621   C     0.14756   0.01144   0.74238   0.00000  Uiso   1.00
C622   C     0.12819   0.16310   0.83308   0.00000  Uiso   1.00
Cu623  Cu    0.10737   0.16108   0.74517   0.00000  Uiso   1.00
Cu624  Cu    0.22596   0.17225   0.75484   0.00000  Uiso   1.00
H625   H     0.00007   0.10878   0.52893   0.00000  Uiso   1.00
H626   H     0.25405   0.22389   0.93022   0.00000  Uiso   1.00
H627   H     0.20567   0.30620   0.83326   0.00000  Uiso   1.00
H628   H     0.16231   0.02421   0.83465   0.00000  Uiso   1.00
H629   H     0.25918   0.09184   0.83590   0.00000  Uiso   1.00
H630   H     0.23807   0.04821   0.88122   0.00000  Uiso   1.00
H631   H     0.30267   0.04107   0.83477   0.00000  Uiso   1.00
H632   H     0.17393   0.30795   0.66563   0.00000  Uiso   1.00
H633   H     0.13308   0.02726   0.66549   0.00000  Uiso   1.00
H634   H     0.03542   0.29454   0.66209   0.00000  Uiso   1.00
H635   H     0.10109   0.28575   0.61698   0.00000  Uiso   1.00
H636   H     0.32666   0.24357   0.97502   0.00000  Uiso   1.00
H637   H     0.07613   0.24227   0.66262   0.00000  Uiso   1.00
H638   H     0.30396   0.22873   0.80857   0.00000  Uiso   1.00
H639   H     0.02937   0.10459   0.69144   0.00000  Uiso   1.00
H640   H     0.13906   0.13958   0.60893   0.00000  Uiso   1.00
H641   H     0.19705   0.18848   0.89017   0.00000  Uiso   1.00
H642   H     0.32371   0.21525   0.62056   0.00000  Uiso   1.00
H643   H     0.00721   0.12744   0.88089   0.00000  Uiso   1.00
H644   H     0.30752   0.10995   0.95911   0.00000  Uiso   1.00
H645   H     0.02080   0.23959   0.54380   0.00000  Uiso   1.00
H646   H     0.07207   0.12867   0.57402   0.00000  Uiso   1.00
N647   N     0.31506   0.18068   0.76212   0.00000  Uiso   1.00
N648   N     0.01827   0.15265   0.73788   0.00000  Uiso   1.00
O649   O     0.12815   0.23809   0.74686   0.00000  Uiso   1.00
O650   O     0.10246   0.31619   0.72171   0.00000  Uiso   1.00
O651   O     0.00491   0.21096   0.79289   0.00000  Uiso   1.00
O652   O     0.32842   0.12237   0.70711   0.00000  Uiso   1.00
O653   O     0.20518   0.09524   0.75314   0.00000  Uiso   1.00
O654   O     0.22829   0.24753   0.75503   0.00000  Uiso   1.00
O655   O     0.10504   0.08580   0.74498   0.00000  Uiso   1.00
O656   O     0.08851   0.15930   0.80855   0.00000  Uiso   1.00
O657   O     0.24482   0.17403   0.69146   0.00000  Uiso   1.00
O658   O     0.18866   0.16874   0.81671   0.00000  Uiso   1.00
O659   O     0.14468   0.16460   0.68329   0.00000  Uiso   1.00
O660   O     0.23217   0.01738   0.77727   0.00000  Uiso   1.00
C661   C     0.51432   0.26643   0.75215   0.00000  Uiso   1.00
C662   C     0.53846   0.17046   0.66695   0.00000  Uiso   1.00
C663   C     0.43838   0.15895   0.88074   0.00000  Uiso   1.00
C664   C     0.56140   0.17737   0.61959   0.00000  Uiso   1.00
C665   C     0.35641   0.12799   0.94481   0.00000  Uiso   1.00
C666   C     0.63983   0.21808   0.55743   0.00000  Uiso   1.00
C667   C     0.37504   0.13793   0.90026   0.00000  Uiso   1.00
C668   C     0.62290   0.20396   0.60103   0.00000  Uiso   1.00
C669   C     0.48201   0.17315   0.90661   0.00000  Uiso   1.00
C670   C     0.51811   0.16221   0.59358   0.00000  Uiso   1.00
C671   C     0.46413   0.16524   0.95190   0.00000  Uiso   1.00
C672   C     0.48571   0.06691   0.74787   0.00000  Uiso   1.00
C673   C     0.53332   0.17684   0.54971   0.00000  Uiso   1.00
C674   C     0.40061   0.14047   0.97051   0.00000  Uiso   1.00
C675   C     0.59550   0.20526   0.53183   0.00000  Uiso   1.00
C676   C     0.50795   0.17948   0.97878   0.00000  Uiso   1.00
C677   C     0.48851   0.16481   0.52343   0.00000  Uiso   1.00
C678   C     0.54271   0.01339   0.82309   0.00000  Uiso   1.00
C679   C     0.58860   0.05099   0.84511   0.00000  Uiso   1.00
C680   C     0.46076   0.31989   0.67602   0.00000  Uiso   1.00
C681   C     0.41545   0.28329   0.65299   0.00000  Uiso   1.00
C682   C     0.42473   0.13943   0.54040   0.00000  Uiso   1.00
C683   C     0.57017   0.20870   0.96269   0.00000  Uiso   1.00
C684   C     0.38185   0.12787   0.51442   0.00000  Uiso   1.00
C685   C     0.61283   0.22123   0.98879   0.00000  Uiso   1.00
C686   C     0.51941   0.32195   0.75749   0.00000  Uiso   1.00
C687   C     0.48090   0.01144   0.74238   0.00000  Uiso   1.00
C688   C     0.46153   0.16310   0.83308   0.00000  Uiso   1.00
Cu689  Cu    0.44071   0.16108   0.74517   0.00000  Uiso   1.00
Cu690  Cu    0.55929   0.17225   0.75484   0.00000  Uiso   1.00
H691   H     0.33340   0.10878   0.52893   0.00000  Uiso   1.00
H692   H     0.58738   0.22389   0.93022   0.00000  Uiso   1.00
H693   H     0.53900   0.30620   0.83326   0.00000  Uiso   1.00
H694   H     0.49565   0.02421   0.83465   0.00000  Uiso   1.00
H695   H     0.59251   0.09184   0.83590   0.00000  Uiso   1.00
H696   H     0.57140   0.04821   0.88122   0.00000  Uiso   1.00
H697   H     0.63600   0.04107   0.83477   0.00000  Uiso   1.00
H698   H     0.50726   0.30795   0.66563   0.00000  Uiso   1.00
H699   H     0.46641   0.02726   0.66549   0.00000  Uiso   1.00
H700   H     0.36875   0.29454   0.66209   0.00000  Uiso   1.00
H701   H     0.43443   0.28575   0.61698   0.00000  Uiso   1.00
H702   H     0.66000   0.24357   0.97502   0.00000  Uiso   1.00
H703   H     0.40946   0.24227   0.66262   0.00000  Uiso   1.00
H704   H     0.63729   0.22873   0.80857   0.00000  Uiso   1.00
H705   H     0.36270   0.10459   0.69144   0.00000  Uiso   1.00
H706   H     0.47240   0.13958   0.60893   0.00000  Uiso   1.00
H707   H     0.53038   0.18848   0.89017   0.00000  Uiso   1.00
H708   H     0.65705   0.21525   0.62056   0.00000  Uiso   1.00
H709   H     0.34054   0.12744   0.88089   0.00000  Uiso   1.00
H710   H     0.64086   0.10995   0.95911   0.00000  Uiso   1.00
H711   H     0.35413   0.23959   0.54380   0.00000  Uiso   1.00
H712   H     0.40540   0.12867   0.57402   0.00000  Uiso   1.00
N713   N     0.64839   0.18068   0.76212   0.00000  Uiso   1.00
N714   N     0.35161   0.15265   0.73788   0.00000  Uiso   1.00
O715   O     0.46148   0.23809   0.74686   0.00000  Uiso   1.00
O716   O     0.43580   0.31619   0.72171   0.00000  Uiso   1.00
O717   O     0.33825   0.21096   0.79289   0.00000  Uiso   1.00
O718   O     0.66175   0.12237   0.70711   0.00000  Uiso   1.00
O719   O     0.53852   0.09524   0.75314   0.00000  Uiso   1.00
O720   O     0.56163   0.24753   0.75503   0.00000  Uiso   1.00
O721   O     0.43837   0.08580   0.74498   0.00000  Uiso   1.00
O722   O     0.42185   0.15930   0.80855   0.00000  Uiso   1.00
O723   O     0.57815   0.17403   0.69146   0.00000  Uiso   1.00
O724   O     0.52199   0.16874   0.81671   0.00000  Uiso   1.00
O725   O     0.47801   0.16460   0.68329   0.00000  Uiso   1.00
O726   O     0.56550   0.01738   0.77727   0.00000  Uiso   1.00
C727   C     0.84766   0.26643   0.75215   0.00000  Uiso   1.00
C728   C     0.87179   0.17046   0.66695   0.00000  Uiso   1.00
C729   C     0.77172   0.15895   0.88074   0.00000  Uiso   1.00
C730   C     0.89473   0.17737   0.61959   0.00000  Uiso   1.00
C731   C     0.68975   0.12799   0.94481   0.00000  Uiso   1.00
C732   C     0.97316   0.21808   0.55743   0.00000  Uiso   1.00
C733   C     0.70837   0.13793   0.90026   0.00000  Uiso   1.00
C734   C     0.95623   0.20396   0.60103   0.00000  Uiso   1.00
C735   C     0.81534   0.17315   0.90661   0.00000  Uiso   1.00
C736   C     0.85144   0.16221   0.59358   0.00000  Uiso   1.00
C737   C     0.79746   0.16524   0.95190   0.00000  Uiso   1.00
C738   C     0.81904   0.06691   0.74787   0.00000  Uiso   1.00
C739   C     0.86665   0.17684   0.54971   0.00000  Uiso   1.00
C740   C     0.73395   0.14047   0.97051   0.00000  Uiso   1.00
C741   C     0.92883   0.20526   0.53183   0.00000  Uiso   1.00
C742   C     0.84129   0.17948   0.97878   0.00000  Uiso   1.00
C743   C     0.82185   0.16481   0.52343   0.00000  Uiso   1.00
C744   C     0.87604   0.01339   0.82309   0.00000  Uiso   1.00
C745   C     0.92193   0.05099   0.84511   0.00000  Uiso   1.00
C746   C     0.79409   0.31989   0.67602   0.00000  Uiso   1.00
C747   C     0.74878   0.28329   0.65299   0.00000  Uiso   1.00
C748   C     0.75806   0.13943   0.54040   0.00000  Uiso   1.00
C749   C     0.90350   0.20870   0.96269   0.00000  Uiso   1.00
C750   C     0.71518   0.12787   0.51442   0.00000  Uiso   1.00
C751   C     0.94616   0.22123   0.98879   0.00000  Uiso   1.00
C752   C     0.85274   0.32195   0.75749   0.00000  Uiso   1.00
C753   C     0.81423   0.01144   0.74238   0.00000  Uiso   1.00
C754   C     0.79486   0.16310   0.83308   0.00000  Uiso   1.00
Cu755  Cu    0.77404   0.16108   0.74517   0.00000  Uiso   1.00
Cu756  Cu    0.89263   0.17225   0.75484   0.00000  Uiso   1.00
H757   H     0.66673   0.10878   0.52893   0.00000  Uiso   1.00
H758   H     0.92072   0.22389   0.93022   0.00000  Uiso   1.00
H759   H     0.87234   0.30620   0.83326   0.00000  Uiso   1.00
H760   H     0.82898   0.02421   0.83465   0.00000  Uiso   1.00
H761   H     0.92584   0.09184   0.83590   0.00000  Uiso   1.00
H762   H     0.90474   0.04821   0.88122   0.00000  Uiso   1.00
H763   H     0.96934   0.04107   0.83477   0.00000  Uiso   1.00
H764   H     0.84059   0.30795   0.66563   0.00000  Uiso   1.00
H765   H     0.79975   0.02726   0.66549   0.00000  Uiso   1.00
H766   H     0.70209   0.29454   0.66209   0.00000  Uiso   1.00
H767   H     0.76776   0.28575   0.61698   0.00000  Uiso   1.00
H768   H     0.99333   0.24357   0.97502   0.00000  Uiso   1.00
H769   H     0.74280   0.24227   0.66262   0.00000  Uiso   1.00
H770   H     0.97063   0.22873   0.80857   0.00000  Uiso   1.00
H771   H     0.69603   0.10459   0.69144   0.00000  Uiso   1.00
H772   H     0.80573   0.13958   0.60893   0.00000  Uiso   1.00
H773   H     0.86371   0.18848   0.89017   0.00000  Uiso   1.00
H774   H     0.99038   0.21525   0.62056   0.00000  Uiso   1.00
H775   H     0.67387   0.12744   0.88089   0.00000  Uiso   1.00
H776   H     0.97419   0.10995   0.95911   0.00000  Uiso   1.00
H777   H     0.68747   0.23959   0.54380   0.00000  Uiso   1.00
H778   H     0.73874   0.12867   0.57402   0.00000  Uiso   1.00
N779   N     0.98173   0.18068   0.76212   0.00000  Uiso   1.00
N780   N     0.68494   0.15265   0.73788   0.00000  Uiso   1.00
O781   O     0.79482   0.23809   0.74686   0.00000  Uiso   1.00
O782   O     0.76913   0.31619   0.72171   0.00000  Uiso   1.00
O783   O     0.67158   0.21096   0.79289   0.00000  Uiso   1.00
O784   O     0.99508   0.12237   0.70711   0.00000  Uiso   1.00
O785   O     0.87185   0.09524   0.75314   0.00000  Uiso   1.00
O786   O     0.89496   0.24753   0.75503   0.00000  Uiso   1.00
O787   O     0.77171   0.08580   0.74498   0.00000  Uiso   1.00
O788   O     0.75518   0.15930   0.80855   0.00000  Uiso   1.00
O789   O     0.91149   0.17403   0.69146   0.00000  Uiso   1.00
O790   O     0.85532   0.16874   0.81671   0.00000  Uiso   1.00
O791   O     0.81134   0.16460   0.68329   0.00000  Uiso   1.00
O792   O     0.89883   0.01738   0.77727   0.00000  Uiso   1.00
C793   C     0.18099   0.59977   0.75215   0.00000  Uiso   1.00
C794   C     0.20512   0.50380   0.66695   0.00000  Uiso   1.00
C795   C     0.10505   0.49228   0.88074   0.00000  Uiso   1.00
C796   C     0.22806   0.51070   0.61959   0.00000  Uiso   1.00
C797   C     0.02308   0.46132   0.94481   0.00000  Uiso   1.00
C798   C     0.30649   0.55142   0.55743   0.00000  Uiso   1.00
C799   C     0.04170   0.47127   0.90026   0.00000  Uiso   1.00
C800   C     0.28956   0.53729   0.60103   0.00000  Uiso   1.00
C801   C     0.14867   0.50648   0.90661   0.00000  Uiso   1.00
C802   C     0.18477   0.49554   0.59358   0.00000  Uiso   1.00
C803   C     0.13079   0.49857   0.95190   0.00000  Uiso   1.00
C804   C     0.15238   0.40024   0.74787   0.00000  Uiso   1.00
C805   C     0.19999   0.51017   0.54971   0.00000  Uiso   1.00
C806   C     0.06728   0.47381   0.97051   0.00000  Uiso   1.00
C807   C     0.26217   0.53860   0.53183   0.00000  Uiso   1.00
C808   C     0.17462   0.51281   0.97878   0.00000  Uiso   1.00
C809   C     0.15518   0.49814   0.52343   0.00000  Uiso   1.00
C810   C     0.20937   0.34672   0.82309   0.00000  Uiso   1.00
C811   C     0.25527   0.38432   0.84511   0.00000  Uiso   1.00
C812   C     0.12743   0.65322   0.67602   0.00000  Uiso   1.00
C813   C     0.08211   0.61663   0.65299   0.00000  Uiso   1.00
C814   C     0.09139   0.47276   0.54040   0.00000  Uiso   1.00
C815   C     0.23683   0.54203   0.96269   0.00000  Uiso   1.00
C816   C     0.04851   0.46120   0.51442   0.00000  Uiso   1.00
C817   C     0.27949   0.55456   0.98879   0.00000  Uiso   1.00
C818   C     0.18607   0.65529   0.75749   0.00000  Uiso   1.00
C819   C     0.14756   0.34477   0.74238   0.00000  Uiso   1.00
C820   C     0.12819   0.49643   0.83308   0.00000  Uiso   1.00
Cu821  Cu    0.10737   0.49441   0.74517   0.00000  Uiso   1.00
Cu822  Cu    0.22596   0.50559   0.75484   0.00000  Uiso   1.00
H823   H     0.00007   0.44212   0.52893   0.00000  Uiso   1.00
H824   H     0.25405   0.55722   0.93022   0.00000  Uiso   1.00
H825   H     0.20567   0.63954   0.83326   0.00000  Uiso   1.00
H826   H     0.16231   0.35754   0.83465   0.00000  Uiso   1.00
H827   H     0.25918   0.42518   0.83590   0.00000  Uiso   1.00
H828   H     0.23807   0.38154   0.88122   0.00000  Uiso   1.00
H829   H     0.30267   0.37440   0.83477   0.00000  Uiso   1.00
H830   H     0.17393   0.64128   0.66563   0.00000  Uiso   1.00
H831   H     0.13308   0.36060   0.66549   0.00000  Uiso   1.00
H832   H     0.03542   0.62787   0.66209   0.00000  Uiso   1.00
H833   H     0.10109   0.61908   0.61698   0.00000  Uiso   1.00
H834   H     0.32666   0.57691   0.97502   0.00000  Uiso   1.00
H835   H     0.07613   0.57560   0.66262   0.00000  Uiso   1.00
H836   H     0.30396   0.56207   0.80857   0.00000  Uiso   1.00
H837   H     0.02937   0.43792   0.69144   0.00000  Uiso   1.00
H838   H     0.13906   0.47291   0.60893   0.00000  Uiso   1.00
H839   H     0.19705   0.52182   0.89017   0.00000  Uiso   1.00
H840   H     0.32371   0.54858   0.62056   0.00000  Uiso   1.00
H841   H     0.00721   0.46078   0.88089   0.00000  Uiso   1.00
H842   H     0.30752   0.44329   0.95911   0.00000  Uiso   1.00
H843   H     0.02080   0.57292   0.54380   0.00000  Uiso   1.00
H844   H     0.07207   0.46201   0.57402   0.00000  Uiso   1.00
N845   N     0.31506   0.51401   0.76212   0.00000  Uiso   1.00
N846   N     0.01827   0.48599   0.73788   0.00000  Uiso   1.00
O847   O     0.12815   0.57142   0.74686   0.00000  Uiso   1.00
O848   O     0.10246   0.64952   0.72171   0.00000  Uiso   1.00
O849   O     0.00491   0.54429   0.79289   0.00000  Uiso   1.00
O850   O     0.32842   0.45570   0.70711   0.00000  Uiso   1.00
O851   O     0.20518   0.42858   0.75314   0.00000  Uiso   1.00
O852   O     0.22829   0.58086   0.75503   0.00000  Uiso   1.00
O853   O     0.10504   0.41914   0.74498   0.00000  Uiso   1.00
O854   O     0.08851   0.49263   0.80855   0.00000  Uiso   1.00
O855   O     0.24482   0.50737   0.69146   0.00000  Uiso   1.00
O856   O     0.18866   0.50207   0.81671   0.00000  Uiso   1.00
O857   O     0.14468   0.49793   0.68329   0.00000  Uiso   1.00
O858   O     0.23217   0.35072   0.77727   0.00000  Uiso   1.00
C859   C     0.51432   0.59977   0.75215   0.00000  Uiso   1.00
C860   C     0.53846   0.50380   0.66695   0.00000  Uiso   1.00
C861   C     0.43838   0.49228   0.88074   0.00000  Uiso   1.00
C862   C     0.56140   0.51070   0.61959   0.00000  Uiso   1.00
C863   C     0.35641   0.46132   0.94481   0.00000  Uiso   1.00
C864   C     0.63983   0.55142   0.55743   0.00000  Uiso   1.00
C865   C     0.37504   0.47127   0.90026   0.00000  Uiso   1.00
C866   C     0.62290   0.53729   0.60103   0.00000  Uiso   1.00
C867   C     0.48201   0.50648   0.90661   0.00000  Uiso   1.00
C868   C     0.51811   0.49554   0.59358   0.00000  Uiso   1.00
C869   C     0.46413   0.49857   0.95190   0.00000  Uiso   1.00
C870   C     0.48571   0.40024   0.74787   0.00000  Uiso   1.00
C871   C     0.53332   0.51017   0.54971   0.00000  Uiso   1.00
C872   C     0.40061   0.47381   0.97051   0.00000  Uiso   1.00
C873   C     0.59550   0.53860   0.53183   0.00000  Uiso   1.00
C874   C     0.50795   0.51281   0.97878   0.00000  Uiso   1.00
C875   C     0.48851   0.49814   0.52343   0.00000  Uiso   1.00
C876   C     0.54271   0.34672   0.82309   0.00000  Uiso   1.00
C877   C     0.58860   0.38432   0.84511   0.00000  Uiso   1.00
C878   C     0.46076   0.65322   0.67602   0.00000  Uiso   1.00
C879   C     0.41545   0.61663   0.65299   0.00000  Uiso   1.00
C880   C     0.42473   0.47276   0.54040   0.00000  Uiso   1.00
C881   C     0.57017   0.54203   0.96269   0.00000  Uiso   1.00
C882   C     0.38185   0.46120   0.51442   0.00000  Uiso   1.00
C883   C     0.61283   0.55456   0.98879   0.00000  Uiso   1.00
C884   C     0.51941   0.65529   0.75749   0.00000  Uiso   1.00
C885   C     0.48090   0.34477   0.74238   0.00000  Uiso   1.00
C886   C     0.46153   0.49643   0.83308   0.00000  Uiso   1.00
Cu887  Cu    0.44071   0.49441   0.74517   0.00000  Uiso   1.00
Cu888  Cu    0.55929   0.50559   0.75484   0.00000  Uiso   1.00
H889   H     0.33340   0.44212   0.52893   0.00000  Uiso   1.00
H890   H     0.58738   0.55722   0.93022   0.00000  Uiso   1.00
H891   H     0.53900   0.63954   0.83326   0.00000  Uiso   1.00
H892   H     0.49565   0.35754   0.83465   0.00000  Uiso   1.00
H893   H     0.59251   0.42518   0.83590   0.00000  Uiso   1.00
H894   H     0.57140   0.38154   0.88122   0.00000  Uiso   1.00
H895   H     0.63600   0.37440   0.83477   0.00000  Uiso   1.00
H896   H     0.50726   0.64128   0.66563   0.00000  Uiso   1.00
H897   H     0.46641   0.36060   0.66549   0.00000  Uiso   1.00
H898   H     0.36875   0.62787   0.66209   0.00000  Uiso   1.00
H899   H     0.43443   0.61908   0.61698   0.00000  Uiso   1.00
H900   H     0.66000   0.57691   0.97502   0.00000  Uiso   1.00
H901   H     0.40946   0.57560   0.66262   0.00000  Uiso   1.00
H902   H     0.63729   0.56207   0.80857   0.00000  Uiso   1.00
H903   H     0.36270   0.43792   0.69144   0.00000  Uiso   1.00
H904   H     0.47240   0.47291   0.60893   0.00000  Uiso   1.00
H905   H     0.53038   0.52182   0.89017   0.00000  Uiso   1.00
H906   H     0.65705   0.54858   0.62056   0.00000  Uiso   1.00
H907   H     0.34054   0.46078   0.88089   0.00000  Uiso   1.00
H908   H     0.64086   0.44329   0.95911   0.00000  Uiso   1.00
H909   H     0.35413   0.57292   0.54380   0.00000  Uiso   1.00
H910   H     0.40540   0.46201   0.57402   0.00000  Uiso   1.00
N911   N     0.64839   0.51401   0.76212   0.00000  Uiso   1.00
N912   N     0.35161   0.48599   0.73788   0.00000  Uiso   1.00
O913   O     0.46148   0.57142   0.74686   0.00000  Uiso   1.00
O914   O     0.43580   0.64952   0.72171   0.00000  Uiso   1.00
O915   O     0.33825   0.54429   0.79289   0.00000  Uiso   1.00
O916   O     0.66175   0.45570   0.70711   0.00000  Uiso   1.00
O917   O     0.53852   0.42858   0.75314   0.00000  Uiso   1.00
O918   O     0.56163   0.58086   0.75503   0.00000  Uiso   1.00
O919   O     0.43837   0.41914   0.74498   0.00000  Uiso   1.00
O920   O     0.42185   0.49263   0.80855   0.00000  Uiso   1.00
O921   O     0.57815   0.50737   0.69146   0.00000  Uiso   1.00
O922   O     0.52199   0.50207   0.81671   0.00000  Uiso   1.00
O923   O     0.47801   0.49793   0.68329   0.00000  Uiso   1.00
O924   O     0.56550   0.35072   0.77727   0.00000  Uiso   1.00
C925   C     0.84766   0.59977   0.75215   0.00000  Uiso   1.00
C926   C     0.87179   0.50380   0.66695   0.00000  Uiso   1.00
C927   C     0.77172   0.49228   0.88074   0.00000  Uiso   1.00
C928   C     0.89473   0.51070   0.61959   0.00000  Uiso   1.00
C929   C     0.68975   0.46132   0.94481   0.00000  Uiso   1.00
C930   C     0.97316   0.55142   0.55743   0.00000  Uiso   1.00
C931   C     0.70837   0.47127   0.90026   0.00000  Uiso   1.00
C932   C     0.95623   0.53729   0.60103   0.00000  Uiso   1.00
C933   C     0.81534   0.50648   0.90661   0.00000  Uiso   1.00
C934   C     0.85144   0.49554   0.59358   0.00000  Uiso   1.00
C935   C     0.79746   0.49857   0.95190   0.00000  Uiso   1.00
C936   C     0.81904   0.40024   0.74787   0.00000  Uiso   1.00
C937   C     0.86665   0.51017   0.54971   0.00000  Uiso   1.00
C938   C     0.73395   0.47381   0.97051   0.00000  Uiso   1.00
C939   C     0.92883   0.53860   0.53183   0.00000  Uiso   1.00
C940   C     0.84129   0.51281   0.97878   0.00000  Uiso   1.00
C941   C     0.82185   0.49814   0.52343   0.00000  Uiso   1.00
C942   C     0.87604   0.34672   0.82309   0.00000  Uiso   1.00
C943   C     0.92193   0.38432   0.84511   0.00000  Uiso   1.00
C944   C     0.79409   0.65322   0.67602   0.00000  Uiso   1.00
C945   C     0.74878   0.61663   0.65299   0.00000  Uiso   1.00
C946   C     0.75806   0.47276   0.54040   0.00000  Uiso   1.00
C947   C     0.90350   0.54203   0.96269   0.00000  Uiso   1.00
C948   C     0.71518   0.46120   0.51442   0.00000  Uiso   1.00
C949   C     0.94616   0.55456   0.98879   0.00000  Uiso   1.00
C950   C     0.85274   0.65529   0.75749   0.00000  Uiso   1.00
C951   C     0.81423   0.34477   0.74238   0.00000  Uiso   1.00
C952   C     0.79486   0.49643   0.83308   0.00000  Uiso   1.00
Cu953  Cu    0.77404   0.49441   0.74517   0.00000  Uiso   1.00
Cu954  Cu    0.89263   0.50559   0.75484   0.00000  Uiso   1.00
H955   H     0.66673   0.44212   0.52893   0.00000  Uiso   1.00
H956   H     0.92072   0.55722   0.93022   0.00000  Uiso   1.00
H957   H     0.87234   0.63954   0.83326   0.00000  Uiso   1.00
H958   H     0.82898   0.35754   0.83465   0.00000  Uiso   1.00
H959   H     0.92584   0.42518   0.83590   0.00000  Uiso   1.00
H960   H     0.90474   0.38154   0.88122   0.00000  Uiso   1.00
H961   H     0.96934   0.37440   0.83477   0.00000  Uiso   1.00
H962   H     0.84059   0.64128   0.66563   0.00000  Uiso   1.00
H963   H     0.79975   0.36060   0.66549   0.00000  Uiso   1.00
H964   H     0.70209   0.62787   0.66209   0.00000  Uiso   1.00
H965   H     0.76776   0.61908   0.61698   0.00000  Uiso   1.00
H966   H     0.99333   0.57691   0.97502   0.00000  Uiso   1.00
H967   H     0.74280   0.57560   0.66262   0.00000  Uiso   1.00
H968   H     0.97063   0.56207   0.80857   0.00000  Uiso   1.00
H969   H     0.69603   0.43792   0.69144   0.00000  Uiso   1.00
H970   H     0.80573   0.47291   0.60893   0.00000  Uiso   1.00
H971   H     0.86371   0.52182   0.89017   0.00000  Uiso   1.00
H972   H     0.99038   0.54858   0.62056   0.00000  Uiso   1.00
H973   H     0.67387   0.46078   0.88089   0.00000  Uiso   1.00
H974   H     0.97419   0.44329   0.95911   0.00000  Uiso   1.00
H975   H     0.68747   0.57292   0.54380   0.00000  Uiso   1.00
H976   H     0.73874   0.46201   0.57402   0.00000  Uiso   1.00
N977   N     0.98173   0.51401   0.76212   0.00000  Uiso   1.00
N978   N     0.68494   0.48599   0.73788   0.00000  Uiso   1.00
O979   O     0.79482   0.57142   0.74686   0.00000  Uiso   1.00
O980   O     0.76913   0.64952   0.72171   0.00000  Uiso   1.00
O981   O     0.67158   0.54429   0.79289   0.00000  Uiso   1.00
O982   O     0.99508   0.45570   0.70711   0.00000  Uiso   1.00
O983   O     0.87185   0.42858   0.75314   0.00000  Uiso   1.00
O984   O     0.89496   0.58086   0.75503   0.00000  Uiso   1.00
O985   O     0.77171   0.41914   0.74498   0.00000  Uiso   1.00
O986   O     0.75518   0.49263   0.80855   0.00000  Uiso   1.00
O987   O     0.91149   0.50737   0.69146   0.00000  Uiso   1.00
O988   O     0.85532   0.50207   0.81671   0.00000  Uiso   1.00
O989   O     0.81134   0.49793   0.68329   0.00000  Uiso   1.00
O990   O     0.89883   0.35072   0.77727   0.00000  Uiso   1.00
C991   C     0.18099   0.93310   0.75215   0.00000  Uiso   1.00
C992   C     0.20512   0.83713   0.66695   0.00000  Uiso   1.00
C993   C     0.10505   0.82562   0.88074   0.00000  Uiso   1.00
C994   C     0.22806   0.84404   0.61959   0.00000  Uiso   1.00
C995   C     0.02308   0.79465   0.94481   0.00000  Uiso   1.00
C996   C     0.30649   0.88475   0.55743   0.00000  Uiso   1.00
C997   C     0.04170   0.80460   0.90026   0.00000  Uiso   1.00
C998   C     0.28956   0.87062   0.60103   0.00000  Uiso   1.00
C999   C     0.14867   0.83982   0.90661   0.00000  Uiso   1.00
C1000  C     0.18477   0.82888   0.59358   0.00000  Uiso   1.00
C1001  C     0.13079   0.83190   0.95190   0.00000  Uiso   1.00
C1002  C     0.15238   0.73357   0.74787   0.00000  Uiso   1.00
C1003  C     0.19999   0.84350   0.54971   0.00000  Uiso   1.00
C1004  C     0.06728   0.80714   0.97051   0.00000  Uiso   1.00
C1005  C     0.26217   0.87193   0.53183   0.00000  Uiso   1.00
C1006  C     0.17462   0.84615   0.97878   0.00000  Uiso   1.00
C1007  C     0.15518   0.83147   0.52343   0.00000  Uiso   1.00
C1008  C     0.20937   0.68006   0.82309   0.00000  Uiso   1.00
C1009  C     0.25527   0.71766   0.84511   0.00000  Uiso   1.00
C1010  C     0.12743   0.98656   0.67602   0.00000  Uiso   1.00
C1011  C     0.08211   0.94996   0.65299   0.00000  Uiso   1.00
C1012  C     0.09139   0.80610   0.54040   0.00000  Uiso   1.00
C1013  C     0.23683   0.87537   0.96269   0.00000  Uiso   1.00
C1014  C     0.04851   0.79454   0.51442   0.00000  Uiso   1.00
C1015  C     0.27949   0.88789   0.98879   0.00000  Uiso   1.00
C1016  C     0.18607   0.98862   0.75749   0.00000  Uiso   1.00
C1017  C     0.14756   0.67810   0.74238   0.00000  Uiso   1.00
C1018  C     0.12819   0.82976   0.83308   0.00000  Uiso   1.00
Cu1019 Cu    0.10737   0.82775   0.74517   0.00000  Uiso   1.00
Cu1020 Cu    0.22596   0.83892   0.75484   0.00000  Uiso   1.00
H1021  H     0.00007   0.77545   0.52893   0.00000  Uiso   1.00
H1022  H     0.25405   0.89056   0.93022   0.00000  Uiso   1.00
H1023  H     0.20567   0.97287   0.83326   0.00000  Uiso   1.00
H1024  H     0.16231   0.69088   0.83465   0.00000  Uiso   1.00
H1025  H     0.25918   0.75851   0.83590   0.00000  Uiso   1.00
H1026  H     0.23807   0.71488   0.88122   0.00000  Uiso   1.00
H1027  H     0.30267   0.70774   0.83477   0.00000  Uiso   1.00
H1028  H     0.17393   0.97462   0.66563   0.00000  Uiso   1.00
H1029  H     0.13308   0.69393   0.66549   0.00000  Uiso   1.00
H1030  H     0.03542   0.96121   0.66209   0.00000  Uiso   1.00
H1031  H     0.10109   0.95241   0.61698   0.00000  Uiso   1.00
H1032  H     0.32666   0.91024   0.97502   0.00000  Uiso   1.00
H1033  H     0.07613   0.90893   0.66262   0.00000  Uiso   1.00
H1034  H     0.30396   0.89540   0.80857   0.00000  Uiso   1.00
H1035  H     0.02937   0.77125   0.69144   0.00000  Uiso   1.00
H1036  H     0.13906   0.80625   0.60893   0.00000  Uiso   1.00
H1037  H     0.19705   0.85515   0.89017   0.00000  Uiso   1.00
H1038  H     0.32371   0.88192   0.62056   0.00000  Uiso   1.00
H1039  H     0.00721   0.79411   0.88089   0.00000  Uiso   1.00
H1040  H     0.30752   0.77662   0.95911   0.00000  Uiso   1.00
H1041  H     0.02080   0.90626   0.54380   0.00000  Uiso   1.00
H1042  H     0.07207   0.79534   0.57402   0.00000  Uiso   1.00
N1043  N     0.31506   0.84735   0.76212   0.00000  Uiso   1.00
N1044  N     0.01827   0.81932   0.73788   0.00000  Uiso   1.00
O1045  O     0.12815   0.90476   0.74686   0.00000  Uiso   1.00
O1046  O     0.10246   0.98286   0.72171   0.00000  Uiso   1.00
O1047  O     0.00491   0.87762   0.79289   0.00000  Uiso   1.00
O1048  O     0.32842   0.78903   0.70711   0.00000  Uiso   1.00
O1049  O     0.20518   0.76191   0.75314   0.00000  Uiso   1.00
O1050  O     0.22829   0.91420   0.75503   0.00000  Uiso   1.00
O1051  O     0.10504   0.75247   0.74498   0.00000  Uiso   1.00
O1052  O     0.08851   0.82597   0.80855   0.00000  Uiso   1.00
O1053  O     0.24482   0.84070   0.69146   0.00000  Uiso   1.00
O1054  O     0.18866   0.83540   0.81671   0.00000  Uiso   1.00
O1055  O     0.14468   0.83126   0.68329   0.00000  Uiso   1.00
O1056  O     0.23217   0.68405   0.77727   0.00000  Uiso   1.00
C1057  C     0.51432   0.93310   0.75215   0.00000  Uiso   1.00
C1058  C     0.53846   0.83713   0.66695   0.00000  Uiso   1.00
C1059  C     0.43838   0.82562   0.88074   0.00000  Uiso   1.00
C1060  C     0.56140   0.84404   0.61959   0.00000  Uiso   1.00
C1061  C     0.35641   0.79465   0.94481   0.00000  Uiso   1.00
C1062  C     0.63983   0.88475   0.55743   0.00000  Uiso   1.00
C1063  C     0.37504   0.80460   0.90026   0.00000  Uiso   1.00
C1064  C     0.62290   0.87062   0.60103   0.00000  Uiso   1.00
C1065  C     0.48201   0.83982   0.90661   0.00000  Uiso   1.00
C1066  C     0.51811   0.82888   0.59358   0.00000  Uiso   1.00
C1067  C     0.46413   0.83190   0.95190   0.00000  Uiso   1.00
C1068  C     0.48571   0.73357   0.74787   0.00000  Uiso   1.00
C1069  C     0.53332   0.84350   0.54971   0.00000  Uiso   1.00
C1070  C     0.40061   0.80714   0.97051   0.00000  Uiso   1.00
C1071  C     0.59550   0.87193   0.53183   0.00000  Uiso   1.00
C1072  C     0.50795   0.84615   0.97878   0.00000  Uiso   1.00
C1073  C     0.48851   0.83147   0.52343   0.00000  Uiso   1.00
C1074  C     0.54271   0.68006   0.82309   0.00000  Uiso   1.00
C1075  C     0.58860   0.71766   0.84511   0.00000  Uiso   1.00
C1076  C     0.46076   0.98656   0.67602   0.00000  Uiso   1.00
C1077  C     0.41545   0.94996   0.65299   0.00000  Uiso   1.00
C1078  C     0.42473   0.80610   0.54040   0.00000  Uiso   1.00
C1079  C     0.57017   0.87537   0.96269   0.00000  Uiso   1.00
C1080  C     0.38185   0.79454   0.51442   0.00000  Uiso   1.00
C1081  C     0.61283   0.88789   0.98879   0.00000  Uiso   1.00
C1082  C     0.51941   0.98862   0.75749   0.00000  Uiso   1.00
C1083  C     0.48090   0.67810   0.74238   0.00000  Uiso   1.00
C1084  C     0.46153   0.82976   0.83308   0.00000  Uiso   1.00
Cu1085 Cu    0.44071   0.82775   0.74517   0.00000  Uiso   1.00
Cu1086 Cu    0.55929   0.83892   0.75484   0.00000  Uiso   1.00
H1087  H     0.33340   0.77545   0.52893   0.00000  Uiso   1.00
H1088  H     0.58738   0.89056   0.93022   0.00000  Uiso   1.00
H1089  H     0.53900   0.97287   0.83326   0.00000  Uiso   1.00
H1090  H     0.49565   0.69088   0.83465   0.00000  Uiso   1.00
H1091  H     0.59251   0.75851   0.83590   0.00000  Uiso   1.00
H1092  H     0.57140   0.71488   0.88122   0.00000  Uiso   1.00
H1093  H     0.63600   0.70774   0.83477   0.00000  Uiso   1.00
H1094  H     0.50726   0.97462   0.66563   0.00000  Uiso   1.00
H1095  H     0.46641   0.69393   0.66549   0.00000  Uiso   1.00
H1096  H     0.36875   0.96121   0.66209   0.00000  Uiso   1.00
H1097  H     0.43443   0.95241   0.61698   0.00000  Uiso   1.00
H1098  H     0.66000   0.91024   0.97502   0.00000  Uiso   1.00
H1099  H     0.40946   0.90893   0.66262   0.00000  Uiso   1.00
H1100  H     0.63729   0.89540   0.80857   0.00000  Uiso   1.00
H1101  H     0.36270   0.77125   0.69144   0.00000  Uiso   1.00
H1102  H     0.47240   0.80625   0.60893   0.00000  Uiso   1.00
H1103  H     0.53038   0.85515   0.89017   0.00000  Uiso   1.00
H1104  H     0.65705   0.88192   0.62056   0.00000  Uiso   1.00
H1105  H     0.34054   0.79411   0.88089   0.00000  Uiso   1.00
H1106  H     0.64086   0.77662   0.95911   0.00000  Uiso   1.00
H1107  H     0.35413   0.90626   0.54380   0.00000  Uiso   1.00
H1108  H     0.40540   0.79534   0.57402   0.00000  Uiso   1.00
N1109  N     0.64839   0.84735   0.76212   0.00000  Uiso   1.00
N1110  N     0.35161   0.81932   0.73788   0.00000  Uiso   1.00
O1111  O     0.46148   0.90476   0.74686   0.00000  Uiso   1.00
O1112  O     0.43580   0.98286   0.72171   0.00000  Uiso   1.00
O1113  O     0.33825   0.87762   0.79289   0.00000  Uiso   1.00
O1114  O     0.66175   0.78903   0.70711   0.00000  Uiso   1.00
O1115  O     0.53852   0.76191   0.75314   0.00000  Uiso   1.00
O1116  O     0.56163   0.91420   0.75503   0.00000  Uiso   1.00
O1117  O     0.43837   0.75247   0.74498   0.00000  Uiso   1.00
O1118  O     0.42185   0.82597   0.80855   0.00000  Uiso   1.00
O1119  O     0.57815   0.84070   0.69146   0.00000  Uiso   1.00
O1120  O     0.52199   0.83540   0.81671   0.00000  Uiso   1.00
O1121  O     0.47801   0.83126   0.68329   0.00000  Uiso   1.00
O1122  O     0.56550   0.68405   0.77727   0.00000  Uiso   1.00
C1123  C     0.84766   0.93310   0.75215   0.00000  Uiso   1.00
C1124  C     0.87179   0.83713   0.66695   0.00000  Uiso   1.00
C1125  C     0.77172   0.82562   0.88074   0.00000  Uiso   1.00
C1126  C     0.89473   0.84404   0.61959   0.00000  Uiso   1.00
C1127  C     0.68975   0.79465   0.94481   0.00000  Uiso   1.00
C1128  C     0.97316   0.88475   0.55743   0.00000  Uiso   1.00
C1129  C     0.70837   0.80460   0.90026   0.00000  Uiso   1.00
C1130  C     0.95623   0.87062   0.60103   0.00000  Uiso   1.00
C1131  C     0.81534   0.83982   0.90661   0.00000  Uiso   1.00
C1132  C     0.85144   0.82888   0.59358   0.00000  Uiso   1.00
C1133  C     0.79746   0.83190   0.95190   0.00000  Uiso   1.00
C1134  C     0.81904   0.73357   0.74787   0.00000  Uiso   1.00
C1135  C     0.86665   0.84350   0.54971   0.00000  Uiso   1.00
C1136  C     0.73395   0.80714   0.97051   0.00000  Uiso   1.00
C1137  C     0.92883   0.87193   0.53183   0.00000  Uiso   1.00
C1138  C     0.84129   0.84615   0.97878   0.00000  Uiso   1.00
C1139  C     0.82185   0.83147   0.52343   0.00000  Uiso   1.00
C1140  C     0.87604   0.68006   0.82309   0.00000  Uiso   1.00
C1141  C     0.92193   0.71766   0.84511   0.00000  Uiso   1.00
C1142  C     0.79409   0.98656   0.67602   0.00000  Uiso   1.00
C1143  C     0.74878   0.94996   0.65299   0.00000  Uiso   1.00
C1144  C     0.75806   0.80610   0.54040   0.00000  Uiso   1.00
C1145  C     0.90350   0.87537   0.96269   0.00000  Uiso   1.00
C1146  C     0.71518   0.79454   0.51442   0.00000  Uiso   1.00
C1147  C     0.94616   0.88789   0.98879   0.00000  Uiso   1.00
C1148  C     0.85274   0.98862   0.75749   0.00000  Uiso   1.00
C1149  C     0.81423   0.67810   0.74238   0.00000  Uiso   1.00
C1150  C     0.79486   0.82976   0.83308   0.00000  Uiso   1.00
Cu1151 Cu    0.77404   0.82775   0.74517   0.00000  Uiso   1.00
Cu1152 Cu    0.89263   0.83892   0.75484   0.00000  Uiso   1.00
H1153  H     0.66673   0.77545   0.52893   0.00000  Uiso   1.00
H1154  H     0.92072   0.89056   0.93022   0.00000  Uiso   1.00
H1155  H     0.87234   0.97287   0.83326   0.00000  Uiso   1.00
H1156  H     0.82898   0.69088   0.83465   0.00000  Uiso   1.00
H1157  H     0.92584   0.75851   0.83590   0.00000  Uiso   1.00
H1158  H     0.90474   0.71488   0.88122   0.00000  Uiso   1.00
H1159  H     0.96934   0.70774   0.83477   0.00000  Uiso   1.00
H1160  H     0.84059   0.97462   0.66563   0.00000  Uiso   1.00
H1161  H     0.79975   0.69393   0.66549   0.00000  Uiso   1.00
H1162  H     0.70209   0.96121   0.66209   0.00000  Uiso   1.00
H1163  H     0.76776   0.95241   0.61698   0.00000  Uiso   1.00
H1164  H     0.99333   0.91024   0.97502   0.00000  Uiso   1.00
H1165  H     0.74280   0.90893   0.66262   0.00000  Uiso   1.00
H1166  H     0.97063   0.89540   0.80857   0.00000  Uiso   1.00
H1167  H     0.69603   0.77125   0.69144   0.00000  Uiso   1.00
H1168  H     0.80573   0.80625   0.60893   0.00000  Uiso   1.00
H1169  H     0.86371   0.85515   0.89017   0.00000  Uiso   1.00
H1170  H     0.99038   0.88192   0.62056   0.00000  Uiso   1.00
H1171  H     0.67387   0.79411   0.88089   0.00000  Uiso   1.00
H1172  H     0.97419   0.77662   0.95911   0.00000  Uiso   1.00
H1173  H     0.68747   0.90626   0.54380   0.00000  Uiso   1.00
H1174  H     0.73874   0.79534   0.57402   0.00000  Uiso   1.00
N1175  N     0.98173   0.84735   0.76212   0.00000  Uiso   1.00
N1176  N     0.68494   0.81932   0.73788   0.00000  Uiso   1.00
O1177  O     0.79482   0.90476   0.74686   0.00000  Uiso   1.00
O1178  O     0.76913   0.98286   0.72171   0.00000  Uiso   1.00
O1179  O     0.67158   0.87762   0.79289   0.00000  Uiso   1.00
O1180  O     0.99508   0.78903   0.70711   0.00000  Uiso   1.00
O1181  O     0.87185   0.76191   0.75314   0.00000  Uiso   1.00
O1182  O     0.89496   0.91420   0.75503   0.00000  Uiso   1.00
O1183  O     0.77171   0.75247   0.74498   0.00000  Uiso   1.00
O1184  O     0.75518   0.82597   0.80855   0.00000  Uiso   1.00
O1185  O     0.91149   0.84070   0.69146   0.00000  Uiso   1.00
O1186  O     0.85532   0.83540   0.81671   0.00000  Uiso   1.00
O1187  O     0.81134   0.83126   0.68329   0.00000  Uiso   1.00
O1188  O     0.89883   0.68405   0.77727   0.00000  Uiso   1.00
loop_
_geom_bond_atom_site_label_1
_geom_bond_atom_site_label_2
_geom_bond_distance
_geom_bond_site_symmetry_2
_ccdc_geom_bond_type
C1     O55     1.290   .     A
C1     C26     1.432   .     S
C1     O60     1.293   .     A
C2     C4      1.466   .     S
C2     O65     1.298   .     A
C2     O63     1.306   .     A
C3     C9      1.400   .     A
C3     C7      1.397   .     A
C3     C28     1.468   .     S
C4     C10     1.399   .     A
C4     C8      1.396   .     A
C5     C14     1.404   .     A
C5     C7      1.392   .     A
C5     H182    1.084   1_455 S
C6     C8      1.392   .     A
C6     C15     1.404   .     A
C6     H117    1.084   .     S
C7     H49     1.081   .     S
C8     H48     1.079   .     S
C9     C11     1.405   .     A
C9     H47     1.075   .     S
C10    H46     1.075   .     S
C10    C13     1.406   .     A
C11    C16     1.427   .     A
C11    C14     1.417   .     A
C12    O61     1.293   .     A
C12    O59     1.289   .     A
C12    C27     1.432   .     S
C13    C17     1.428   .     A
C13    C15     1.419   .     A
C14    C618    1.389   .     S
C15    C619    1.389   1_554 S
C16    C23     1.417   .     A
C16    C611    1.425   .     S
C17    C22     1.418   .     A
C17    C610    1.425   1_554 S
C18    O66     1.412   .     S
C18    H34     1.116   .     S
C18    C19     1.519   .     S
C18    H429    1.114   1_545 S
C19    H35     1.111   .     S
C19    H36     1.111   .     S
C19    H37     1.111   .     S
C20    O56     1.412   .     S
C20    H38     1.116   .     S
C20    C21     1.518   .     S
C20    H237    1.114   .     S
C21    H40     1.111   .     S
C21    H41     1.111   .     S
C21    H43     1.111   .     S
C22    C24     1.387   .     A
C22    H52     1.075   .     S
C23    H32     1.076   .     S
C23    C25     1.386   .     A
C24    H31     1.085   .     S
C24    C608    1.389   1_554 S
C25    H42     1.085   .     S
C25    C609    1.389   .     S
C26    C225    1.350   .     S
C26    O264    1.388   .     S
C27    C422    1.350   1_545 S
C27    O452    1.387   1_545 S
C28    O64     1.299   .     A
C28    O62     1.305   .     A
Cu29   Cu30    2.700   .     S
Cu29   O61     1.960   .     S
Cu29   O62     1.942   .     S
Cu29   O65     1.922   .     S
Cu29   N54     2.029   .     S
Cu29   O55     1.965   .     S
Cu30   O64     1.922   .     S
Cu30   O59     1.965   .     S
Cu30   N53     2.029   .     S
Cu30   O63     1.942   .     S
Cu30   O60     1.960   .     S
H33    C216    1.114   .     S
H39    C416    1.114   1_545 S
H44    O123    0.990   .     S
H45    O190    0.990   1_455 S
H50    C71     1.084   .     S
H51    C138    1.084   1_455 S
N53    N120    1.285   .     S
N53    O123    1.338   .     S
N54    N185    1.285   1_455 S
N54    O190    1.338   1_455 S
O56    C225    1.387   .     S
O57    H176    0.990   1_455 S
O57    N185    1.338   1_455 S
O58    H111    0.990   .     S
O58    N120    1.338   .     S
O66    C422    1.388   1_545 S
C67    O121    1.290   .     A
C67    C92     1.432   .     S
C67    O126    1.293   .     A
C68    C70     1.466   .     S
C68    O131    1.298   .     A
C68    O129    1.306   .     A
C69    C75     1.400   .     A
C69    C73     1.397   .     A
C69    C94     1.468   .     S
C70    C76     1.399   .     A
C70    C74     1.396   .     A
C71    C80     1.404   .     A
C71    C73     1.392   .     A
C72    C74     1.392   .     A
C72    C81     1.404   .     A
C72    H183    1.084   .     S
C73    H115    1.081   .     S
C74    H114    1.079   .     S
C75    C77     1.405   .     A
C75    H113    1.075   .     S
C76    H112    1.075   .     S
C76    C79     1.406   .     A
C77    C82     1.427   .     A
C77    C80     1.417   .     A
C78    O127    1.293   .     A
C78    O125    1.289   .     A
C78    C93     1.432   .     S
C79    C83     1.428   .     A
C79    C81     1.419   .     A
C80    C684    1.389   .     S
C81    C685    1.389   1_554 S
C82    C89     1.417   .     A
C82    C677    1.425   .     S
C83    C88     1.418   .     A
C83    C676    1.425   1_554 S
C84    O132    1.412   .     S
C84    H100    1.116   .     S
C84    C85     1.519   .     S
C84    H495    1.114   1_545 S
C85    H101    1.111   .     S
C85    H102    1.111   .     S
C85    H103    1.111   .     S
C86    O122    1.412   .     S
C86    H104    1.116   .     S
C86    C87     1.518   .     S
C86    H303    1.114   .     S
C87    H106    1.111   .     S
C87    H107    1.111   .     S
C87    H109    1.111   .     S
C88    C90     1.387   .     A
C88    H118    1.075   .     S
C89    H98     1.076   .     S
C89    C91     1.386   .     A
C90    H97     1.085   .     S
C90    C674    1.389   1_554 S
C91    H108    1.085   .     S
C91    C675    1.389   .     S
C92    C291    1.350   .     S
C92    O330    1.388   .     S
C93    C488    1.350   1_545 S
C93    O518    1.387   1_545 S
C94    O130    1.299   .     A
C94    O128    1.305   .     A
Cu95   Cu96    2.700   .     S
Cu95   O127    1.960   .     S
Cu95   O128    1.942   .     S
Cu95   O131    1.922   .     S
Cu95   N120    2.029   .     S
Cu95   O121    1.965   .     S
Cu96   O130    1.922   .     S
Cu96   O125    1.965   .     S
Cu96   N119    2.029   .     S
Cu96   O129    1.942   .     S
Cu96   O126    1.960   .     S
H99    C282    1.114   .     S
H105   C482    1.114   1_545 S
H110   O189    0.990   .     S
H116   C137    1.084   .     S
N119   N186    1.285   .     S
N119   O189    1.338   .     S
O122   C291    1.387   .     S
O124   H177    0.990   .     S
O124   N186    1.338   .     S
O132   C488    1.388   1_545 S
C133   O187    1.290   .     A
C133   C158    1.432   .     S
C133   O192    1.293   .     A
C134   C136    1.466   .     S
C134   O197    1.298   .     A
C134   O195    1.306   .     A
C135   C141    1.400   .     A
C135   C139    1.397   .     A
C135   C160    1.468   .     S
C136   C142    1.399   .     A
C136   C140    1.396   .     A
C137   C146    1.404   .     A
C137   C139    1.392   .     A
C138   C140    1.392   .     A
C138   C147    1.404   .     A
C138   H51     1.084   1_655 S
C139   H181    1.081   .     S
C140   H180    1.079   .     S
C141   C143    1.405   .     A
C141   H179    1.075   .     S
C142   H178    1.075   .     S
C142   C145    1.406   .     A
C143   C148    1.427   .     A
C143   C146    1.417   .     A
C144   O193    1.293   .     A
C144   O191    1.289   .     A
C144   C159    1.432   .     S
C145   C149    1.428   .     A
C145   C147    1.419   .     A
C146   C750    1.389   .     S
C147   C751    1.389   1_554 S
C148   C155    1.417   .     A
C148   C743    1.425   .     S
C149   C154    1.418   .     A
C149   C742    1.425   1_554 S
C150   O198    1.412   .     S
C150   H166    1.116   .     S
C150   C151    1.519   .     S
C150   H561    1.114   1_545 S
C151   H167    1.111   .     S
C151   H168    1.111   .     S
C151   H169    1.111   .     S
C152   O188    1.412   .     S
C152   H170    1.116   .     S
C152   C153    1.518   .     S
C152   H369    1.114   .     S
C153   H172    1.111   .     S
C153   H173    1.111   .     S
C153   H175    1.111   .     S
C154   C156    1.387   .     A
C154   H184    1.075   .     S
C155   H164    1.076   .     S
C155   C157    1.386   .     A
C156   H163    1.085   .     S
C156   C740    1.389   1_554 S
C157   H174    1.085   .     S
C157   C741    1.389   .     S
C158   C357    1.350   .     S
C158   O396    1.388   .     S
C159   C554    1.350   1_545 S
C159   O584    1.387   1_545 S
C160   O196    1.299   .     A
C160   O194    1.305   .     A
Cu161  Cu162   2.700   .     S
Cu161  O193    1.960   .     S
Cu161  O194    1.942   .     S
Cu161  O197    1.922   .     S
Cu161  N186    2.029   .     S
Cu161  O187    1.965   .     S
Cu162  O196    1.922   .     S
Cu162  O191    1.965   .     S
Cu162  N185    2.029   .     S
Cu162  O195    1.942   .     S
Cu162  O192    1.960   .     S
H165   C348    1.114   .     S
H171   C548    1.114   1_545 S
H176   O57     0.990   1_655 S
H182   C5      1.084   1_655 S
N185   N54     1.285   1_655 S
N185   O57     1.338   1_655 S
O188   C357    1.387   .     S
O190   H45     0.990   1_655 S
O190   N54     1.338   1_655 S
O198   C554    1.388   1_545 S
C199   O253    1.290   .     A
C199   C224    1.432   .     S
C199   O258    1.293   .     A
C200   C202    1.466   .     S
C200   O263    1.298   .     A
C200   O261    1.306   .     A
C201   C207    1.400   .     A
C201   C205    1.397   .     A
C201   C226    1.468   .     S
C202   C208    1.399   .     A
C202   C206    1.396   .     A
C203   C212    1.404   .     A
C203   C205    1.392   .     A
C203   H380    1.084   1_455 S
C204   C206    1.392   .     A
C204   C213    1.404   .     A
C204   H315    1.084   .     S
C205   H247    1.081   .     S
C206   H246    1.079   .     S
C207   C209    1.405   .     A
C207   H245    1.075   .     S
C208   H244    1.075   .     S
C208   C211    1.406   .     A
C209   C214    1.427   .     A
C209   C212    1.417   .     A
C210   O259    1.293   .     A
C210   O257    1.289   .     A
C210   C225    1.432   .     S
C211   C215    1.428   .     A
C211   C213    1.419   .     A
C212   C816    1.389   .     S
C213   C817    1.389   1_554 S
C214   C221    1.417   .     A
C214   C809    1.425   .     S
C215   C220    1.418   .     A
C215   C808    1.425   1_554 S
C216   O264    1.412   .     S
C216   H232    1.116   .     S
C216   C217    1.519   .     S
C217   H233    1.111   .     S
C217   H234    1.111   .     S
C217   H235    1.111   .     S
C218   O254    1.412   .     S
C218   H236    1.116   .     S
C218   C219    1.518   .     S
C218   H435    1.114   .     S
C219   H238    1.111   .     S
C219   H239    1.111   .     S
C219   H241    1.111   .     S
C220   C222    1.387   .     A
C220   H250    1.075   .     S
C221   H230    1.076   .     S
C221   C223    1.386   .     A
C222   H229    1.085   .     S
C222   C806    1.389   1_554 S
C223   H240    1.085   .     S
C223   C807    1.389   .     S
C224   C423    1.350   .     S
C224   O462    1.388   .     S
C226   O262    1.299   .     A
C226   O260    1.305   .     A
Cu227  Cu228   2.700   .     S
Cu227  O259    1.960   .     S
Cu227  O260    1.942   .     S
Cu227  O263    1.922   .     S
Cu227  N252    2.029   .     S
Cu227  O253    1.965   .     S
Cu228  O262    1.922   .     S
Cu228  O257    1.965   .     S
Cu228  N251    2.029   .     S
Cu228  O261    1.942   .     S
Cu228  O258    1.960   .     S
H231   C414    1.114   .     S
H242   O321    0.990   .     S
H243   O388    0.990   1_455 S
H248   C269    1.084   .     S
H249   C336    1.084   1_455 S
N251   N318    1.285   .     S
N251   O321    1.338   .     S
N252   N383    1.285   1_455 S
N252   O388    1.338   1_455 S
O254   C423    1.387   .     S
O255   H374    0.990   1_455 S
O255   N383    1.338   1_455 S
O256   H309    0.990   .     S
O256   N318    1.338   .     S
C265   O319    1.290   .     A
C265   C290    1.432   .     S
C265   O324    1.293   .     A
C266   C268    1.466   .     S
C266   O329    1.298   .     A
C266   O327    1.306   .     A
C267   C273    1.400   .     A
C267   C271    1.397   .     A
C267   C292    1.468   .     S
C268   C274    1.399   .     A
C268   C272    1.396   .     A
C269   C278    1.404   .     A
C269   C271    1.392   .     A
C270   C272    1.392   .     A
C270   C279    1.404   .     A
C270   H381    1.084   .     S
C271   H313    1.081   .     S
C272   H312    1.079   .     S
C273   C275    1.405   .     A
C273   H311    1.075   .     S
C274   H310    1.075   .     S
C274   C277    1.406   .     A
C275   C280    1.427   .     A
C275   C278    1.417   .     A
C276   O325    1.293   .     A
C276   O323    1.289   .     A
C276   C291    1.432   .     S
C277   C281    1.428   .     A
C277   C279    1.419   .     A
C278   C882    1.389   .     S
C279   C883    1.389   1_554 S
C280   C287    1.417   .     A
C280   C875    1.425   .     S
C281   C286    1.418   .     A
C281   C874    1.425   1_554 S
C282   O330    1.412   .     S
C282   H298    1.116   .     S
C282   C283    1.519   .     S
C283   H299    1.111   .     S
C283   H300    1.111   .     S
C283   H301    1.111   .     S
C284   O320    1.412   .     S
C284   H302    1.116   .     S
C284   C285    1.518   .     S
C284   H501    1.114   .     S
C285   H304    1.111   .     S
C285   H305    1.111   .     S
C285   H307    1.111   .     S
C286   C288    1.387   .     A
C286   H316    1.075   .     S
C287   H296    1.076   .     S
C287   C289    1.386   .     A
C288   H295    1.085   .     S
C288   C872    1.389   1_554 S
C289   H306    1.085   .     S
C289   C873    1.389   .     S
C290   C489    1.350   .     S
C290   O528    1.388   .     S
C292   O328    1.299   .     A
C292   O326    1.305   .     A
Cu293  Cu294   2.700   .     S
Cu293  O325    1.960   .     S
Cu293  O326    1.942   .     S
Cu293  O329    1.922   .     S
Cu293  N318    2.029   .     S
Cu293  O319    1.965   .     S
Cu294  O328    1.922   .     S
Cu294  O323    1.965   .     S
Cu294  N317    2.029   .     S
Cu294  O327    1.942   .     S
Cu294  O324    1.960   .     S
H297   C480    1.114   .     S
H308   O387    0.990   .     S
H314   C335    1.084   .     S
N317   N384    1.285   .     S
N317   O387    1.338   .     S
O320   C489    1.387   .     S
O322   H375    0.990   .     S
O322   N384    1.338   .     S
C331   O385    1.290   .     A
C331   C356    1.432   .     S
C331   O390    1.293   .     A
C332   C334    1.466   .     S
C332   O395    1.298   .     A
C332   O393    1.306   .     A
C333   C339    1.400   .     A
C333   C337    1.397   .     A
C333   C358    1.468   .     S
C334   C340    1.399   .     A
C334   C338    1.396   .     A
C335   C344    1.404   .     A
C335   C337    1.392   .     A
C336   C338    1.392   .     A
C336   C345    1.404   .     A
C336   H249    1.084   1_655 S
C337   H379    1.081   .     S
C338   H378    1.079   .     S
C339   C341    1.405   .     A
C339   H377    1.075   .     S
C340   H376    1.075   .     S
C340   C343    1.406   .     A
C341   C346    1.427   .     A
C341   C344    1.417   .     A
C342   O391    1.293   .     A
C342   O389    1.289   .     A
C342   C357    1.432   .     S
C343   C347    1.428   .     A
C343   C345    1.419   .     A
C344   C948    1.389   .     S
C345   C949    1.389   1_554 S
C346   C353    1.417   .     A
C346   C941    1.425   .     S
C347   C352    1.418   .     A
C347   C940    1.425   1_554 S
C348   O396    1.412   .     S
C348   H364    1.116   .     S
C348   C349    1.519   .     S
C349   H365    1.111   .     S
C349   H366    1.111   .     S
C349   H367    1.111   .     S
C350   O386    1.412   .     S
C350   H368    1.116   .     S
C350   C351    1.518   .     S
C350   H567    1.114   .     S
C351   H370    1.111   .     S
C351   H371    1.111   .     S
C351   H373    1.111   .     S
C352   C354    1.387   .     A
C352   H382    1.075   .     S
C353   H362    1.076   .     S
C353   C355    1.386   .     A
C354   H361    1.085   .     S
C354   C938    1.389   1_554 S
C355   H372    1.085   .     S
C355   C939    1.389   .     S
C356   C555    1.350   .     S
C356   O594    1.388   .     S
C358   O394    1.299   .     A
C358   O392    1.305   .     A
Cu359  Cu360   2.700   .     S
Cu359  O391    1.960   .     S
Cu359  O392    1.942   .     S
Cu359  O395    1.922   .     S
Cu359  N384    2.029   .     S
Cu359  O385    1.965   .     S
Cu360  O394    1.922   .     S
Cu360  O389    1.965   .     S
Cu360  N383    2.029   .     S
Cu360  O393    1.942   .     S
Cu360  O390    1.960   .     S
H363   C546    1.114   .     S
H374   O255    0.990   1_655 S
H380   C203    1.084   1_655 S
N383   N252    1.285   1_655 S
N383   O255    1.338   1_655 S
O386   C555    1.387   .     S
O388   H243    0.990   1_655 S
O388   N252    1.338   1_655 S
C397   O451    1.290   .     A
C397   C422    1.432   .     S
C397   O456    1.293   .     A
C398   C400    1.466   .     S
C398   O461    1.298   .     A
C398   O459    1.306   .     A
C399   C405    1.400   .     A
C399   C403    1.397   .     A
C399   C424    1.468   .     S
C400   C406    1.399   .     A
C400   C404    1.396   .     A
C401   C410    1.404   .     A
C401   C403    1.392   .     A
C401   H578    1.084   1_455 S
C402   C404    1.392   .     A
C402   C411    1.404   .     A
C402   H513    1.084   .     S
C403   H445    1.081   .     S
C404   H444    1.079   .     S
C405   C407    1.405   .     A
C405   H443    1.075   .     S
C406   H442    1.075   .     S
C406   C409    1.406   .     A
C407   C412    1.427   .     A
C407   C410    1.417   .     A
C408   O457    1.293   .     A
C408   O455    1.289   .     A
C408   C423    1.432   .     S
C409   C413    1.428   .     A
C409   C411    1.419   .     A
C410   C1014   1.389   .     S
C411   C1015   1.389   1_554 S
C412   C419    1.417   .     A
C412   C1007   1.425   .     S
C413   C418    1.418   .     A
C413   C1006   1.425   1_554 S
C414   O462    1.412   .     S
C414   H430    1.116   .     S
C414   C415    1.519   .     S
C415   H431    1.111   .     S
C415   H432    1.111   .     S
C415   H433    1.111   .     S
C416   O452    1.412   .     S
C416   H434    1.116   .     S
C416   C417    1.518   .     S
C416   H39     1.114   1_565 S
C417   H436    1.111   .     S
C417   H437    1.111   .     S
C417   H439    1.111   .     S
C418   C420    1.387   .     A
C418   H448    1.075   .     S
C419   H428    1.076   .     S
C419   C421    1.386   .     A
C420   H427    1.085   .     S
C420   C1004   1.389   1_554 S
C421   H438    1.085   .     S
C421   C1005   1.389   .     S
C422   C27     1.350   1_565 S
C422   O66     1.388   1_565 S
C424   O460    1.299   .     A
C424   O458    1.305   .     A
Cu425  Cu426   2.700   .     S
Cu425  O457    1.960   .     S
Cu425  O458    1.942   .     S
Cu425  O461    1.922   .     S
Cu425  N450    2.029   .     S
Cu425  O451    1.965   .     S
Cu426  O460    1.922   .     S
Cu426  O455    1.965   .     S
Cu426  N449    2.029   .     S
Cu426  O459    1.942   .     S
Cu426  O456    1.960   .     S
H429   C18     1.114   1_565 S
H440   O519    0.990   .     S
H441   O586    0.990   1_455 S
H446   C467    1.084   .     S
H447   C534    1.084   1_455 S
N449   N516    1.285   .     S
N449   O519    1.338   .     S
N450   N581    1.285   1_455 S
N450   O586    1.338   1_455 S
O452   C27     1.387   1_565 S
O453   H572    0.990   1_455 S
O453   N581    1.338   1_455 S
O454   H507    0.990   .     S
O454   N516    1.338   .     S
C463   O517    1.290   .     A
C463   C488    1.432   .     S
C463   O522    1.293   .     A
C464   C466    1.466   .     S
C464   O527    1.298   .     A
C464   O525    1.306   .     A
C465   C471    1.400   .     A
C465   C469    1.397   .     A
C465   C490    1.468   .     S
C466   C472    1.399   .     A
C466   C470    1.396   .     A
C467   C476    1.404   .     A
C467   C469    1.392   .     A
C468   C470    1.392   .     A
C468   C477    1.404   .     A
C468   H579    1.084   .     S
C469   H511    1.081   .     S
C470   H510    1.079   .     S
C471   C473    1.405   .     A
C471   H509    1.075   .     S
C472   H508    1.075   .     S
C472   C475    1.406   .     A
C473   C478    1.427   .     A
C473   C476    1.417   .     A
C474   O523    1.293   .     A
C474   O521    1.289   .     A
C474   C489    1.432   .     S
C475   C479    1.428   .     A
C475   C477    1.419   .     A
C476   C1080   1.389   .     S
C477   C1081   1.389   1_554 S
C478   C485    1.417   .     A
C478   C1073   1.425   .     S
C479   C484    1.418   .     A
C479   C1072   1.425   1_554 S
C480   O528    1.412   .     S
C480   H496    1.116   .     S
C480   C481    1.519   .     S
C481   H497    1.111   .     S
C481   H498    1.111   .     S
C481   H499    1.111   .     S
C482   O518    1.412   .     S
C482   H500    1.116   .     S
C482   C483    1.518   .     S
C482   H105    1.114   1_565 S
C483   H502    1.111   .     S
C483   H503    1.111   .     S
C483   H505    1.111   .     S
C484   C486    1.387   .     A
C484   H514    1.075   .     S
C485   H494    1.076   .     S
C485   C487    1.386   .     A
C486   H493    1.085   .     S
C486   C1070   1.389   1_554 S
C487   H504    1.085   .     S
C487   C1071   1.389   .     S
C488   C93     1.350   1_565 S
C488   O132    1.388   1_565 S
C490   O526    1.299   .     A
C490   O524    1.305   .     A
Cu491  Cu492   2.700   .     S
Cu491  O523    1.960   .     S
Cu491  O524    1.942   .     S
Cu491  O527    1.922   .     S
Cu491  N516    2.029   .     S
Cu491  O517    1.965   .     S
Cu492  O526    1.922   .     S
Cu492  O521    1.965   .     S
Cu492  N515    2.029   .     S
Cu492  O525    1.942   .     S
Cu492  O522    1.960   .     S
H495   C84     1.114   1_565 S
H506   O585    0.990   .     S
H512   C533    1.084   .     S
N515   N582    1.285   .     S
N515   O585    1.338   .     S
O518   C93     1.387   1_565 S
O520   H573    0.990   .     S
O520   N582    1.338   .     S
C529   O583    1.290   .     A
C529   C554    1.432   .     S
C529   O588    1.293   .     A
C530   C532    1.466   .     S
C530   O593    1.298   .     A
C530   O591    1.306   .     A
C531   C537    1.400   .     A
C531   C535    1.397   .     A
C531   C556    1.468   .     S
C532   C538    1.399   .     A
C532   C536    1.396   .     A
C533   C542    1.404   .     A
C533   C535    1.392   .     A
C534   C536    1.392   .     A
C534   C543    1.404   .     A
C534   H447    1.084   1_655 S
C535   H577    1.081   .     S
C536   H576    1.079   .     S
C537   C539    1.405   .     A
C537   H575    1.075   .     S
C538   H574    1.075   .     S
C538   C541    1.406   .     A
C539   C544    1.427   .     A
C539   C542    1.417   .     A
C540   O589    1.293   .     A
C540   O587    1.289   .     A
C540   C555    1.432   .     S
C541   C545    1.428   .     A
C541   C543    1.419   .     A
C542   C1146   1.389   .     S
C543   C1147   1.389   1_554 S
C544   C551    1.417   .     A
C544   C1139   1.425   .     S
C545   C550    1.418   .     A
C545   C1138   1.425   1_554 S
C546   O594    1.412   .     S
C546   H562    1.116   .     S
C546   C547    1.519   .     S
C547   H563    1.111   .     S
C547   H564    1.111   .     S
C547   H565    1.111   .     S
C548   O584    1.412   .     S
C548   H566    1.116   .     S
C548   C549    1.518   .     S
C548   H171    1.114   1_565 S
C549   H568    1.111   .     S
C549   H569    1.111   .     S
C549   H571    1.111   .     S
C550   C552    1.387   .     A
C550   H580    1.075   .     S
C551   H560    1.076   .     S
C551   C553    1.386   .     A
C552   H559    1.085   .     S
C552   C1136   1.389   1_554 S
C553   H570    1.085   .     S
C553   C1137   1.389   .     S
C554   C159    1.350   1_565 S
C554   O198    1.388   1_565 S
C556   O592    1.299   .     A
C556   O590    1.305   .     A
Cu557  Cu558   2.700   .     S
Cu557  O589    1.960   .     S
Cu557  O590    1.942   .     S
Cu557  O593    1.922   .     S
Cu557  N582    2.029   .     S
Cu557  O583    1.965   .     S
Cu558  O592    1.922   .     S
Cu558  O587    1.965   .     S
Cu558  N581    2.029   .     S
Cu558  O591    1.942   .     S
Cu558  O588    1.960   .     S
H561   C150    1.114   1_565 S
H572   O453    0.990   1_655 S
H578   C401    1.084   1_655 S
N581   N450    1.285   1_655 S
N581   O453    1.338   1_655 S
O584   C159    1.387   1_565 S
O586   H441    0.990   1_655 S
O586   N450    1.338   1_655 S
C595   O649    1.290   .     A
C595   C620    1.432   .     S
C595   O654    1.293   .     A
C596   C598    1.466   .     S
C596   O659    1.298   .     A
C596   O657    1.306   .     A
C597   C603    1.400   .     A
C597   C601    1.397   .     A
C597   C622    1.468   .     S
C598   C604    1.399   .     A
C598   C602    1.396   .     A
C599   C608    1.404   .     A
C599   C601    1.392   .     A
C599   H776    1.084   1_455 S
C600   C602    1.392   .     A
C600   C609    1.404   .     A
C600   H711    1.084   .     S
C601   H643    1.081   .     S
C602   H642    1.079   .     S
C603   C605    1.405   .     A
C603   H641    1.075   .     S
C604   H640    1.075   .     S
C604   C607    1.406   .     A
C605   C610    1.427   .     A
C605   C608    1.417   .     A
C606   O655    1.293   .     A
C606   O653    1.289   .     A
C606   C621    1.432   .     S
C607   C611    1.428   .     A
C607   C609    1.419   .     A
C608   C24     1.389   1_556 S
C610   C617    1.417   .     A
C610   C17     1.425   1_556 S
C611   C616    1.418   .     A
C612   O660    1.412   .     S
C612   H628    1.116   .     S
C612   C613    1.519   .     S
C612   H1023   1.114   1_545 S
C613   H629    1.111   .     S
C613   H630    1.111   .     S
C613   H631    1.111   .     S
C614   O650    1.412   .     S
C614   H632    1.116   .     S
C614   C615    1.518   .     S
C614   H831    1.114   .     S
C615   H634    1.111   .     S
C615   H635    1.111   .     S
C615   H637    1.111   .     S
C616   C618    1.387   .     A
C616   H646    1.075   .     S
C617   H626    1.076   .     S
C617   C619    1.386   .     A
C618   H625    1.085   .     S
C619   H636    1.085   .     S
C619   C15     1.389   1_556 S
C620   C819    1.350   .     S
C620   O858    1.388   .     S
C621   C1016   1.350   1_545 S
C621   O1046   1.387   1_545 S
C622   O658    1.299   .     A
C622   O656    1.305   .     A
Cu623  Cu624   2.700   .     S
Cu623  O655    1.960   .     S
Cu623  O656    1.942   .     S
Cu623  O659    1.922   .     S
Cu623  N648    2.029   .     S
Cu623  O649    1.965   .     S
Cu624  O658    1.922   .     S
Cu624  O653    1.965   .     S
Cu624  N647    2.029   .     S
Cu624  O657    1.942   .     S
Cu624  O654    1.960   .     S
H627   C810    1.114   .     S
H633   C1010   1.114   1_545 S
H638   O717    0.990   .     S
H639   O784    0.990   1_455 S
H644   C665    1.084   .     S
H645   C732    1.084   1_455 S
N647   N714    1.285   .     S
N647   O717    1.338   .     S
N648   N779    1.285   1_455 S
N648   O784    1.338   1_455 S
O650   C819    1.387   .     S
O651   H770    0.990   1_455 S
O651   N779    1.338   1_455 S
O652   H705    0.990   .     S
O652   N714    1.338   .     S
O660   C1016   1.388   1_545 S
C661   O715    1.290   .     A
C661   C686    1.432   .     S
C661   O720    1.293   .     A
C662   C664    1.466   .     S
C662   O725    1.298   .     A
C662   O723    1.306   .     A
C663   C669    1.400   .     A
C663   C667    1.397   .     A
C663   C688    1.468   .     S
C664   C670    1.399   .     A
C664   C668    1.396   .     A
C665   C674    1.404   .     A
C665   C667    1.392   .     A
C666   C668    1.392   .     A
C666   C675    1.404   .     A
C666   H777    1.084   .     S
C667   H709    1.081   .     S
C668   H708    1.079   .     S
C669   C671    1.405   .     A
C669   H707    1.075   .     S
C670   H706    1.075   .     S
C670   C673    1.406   .     A
C671   C676    1.427   .     A
C671   C674    1.417   .     A
C672   O721    1.293   .     A
C672   O719    1.289   .     A
C672   C687    1.432   .     S
C673   C677    1.428   .     A
C673   C675    1.419   .     A
C674   C90     1.389   1_556 S
C676   C683    1.417   .     A
C676   C83     1.425   1_556 S
C677   C682    1.418   .     A
C678   O726    1.412   .     S
C678   H694    1.116   .     S
C678   C679    1.519   .     S
C678   H1089   1.114   1_545 S
C679   H695    1.111   .     S
C679   H696    1.111   .     S
C679   H697    1.111   .     S
C680   O716    1.412   .     S
C680   H698    1.116   .     S
C680   C681    1.518   .     S
C680   H897    1.114   .     S
C681   H700    1.111   .     S
C681   H701    1.111   .     S
C681   H703    1.111   .     S
C682   C684    1.387   .     A
C682   H712    1.075   .     S
C683   H692    1.076   .     S
C683   C685    1.386   .     A
C684   H691    1.085   .     S
C685   H702    1.085   .     S
C685   C81     1.389   1_556 S
C686   C885    1.350   .     S
C686   O924    1.388   .     S
C687   C1082   1.350   1_545 S
C687   O1112   1.387   1_545 S
C688   O724    1.299   .     A
C688   O722    1.305   .     A
Cu689  Cu690   2.700   .     S
Cu689  O721    1.960   .     S
Cu689  O722    1.942   .     S
Cu689  O725    1.922   .     S
Cu689  N714    2.029   .     S
Cu689  O715    1.965   .     S
Cu690  O724    1.922   .     S
Cu690  O719    1.965   .     S
Cu690  N713    2.029   .     S
Cu690  O723    1.942   .     S
Cu690  O720    1.960   .     S
H693   C876    1.114   .     S
H699   C1076   1.114   1_545 S
H704   O783    0.990   .     S
H710   C731    1.084   .     S
N713   N780    1.285   .     S
N713   O783    1.338   .     S
O716   C885    1.387   .     S
O718   H771    0.990   .     S
O718   N780    1.338   .     S
O726   C1082   1.388   1_545 S
C727   O781    1.290   .     A
C727   C752    1.432   .     S
C727   O786    1.293   .     A
C728   C730    1.466   .     S
C728   O791    1.298   .     A
C728   O789    1.306   .     A
C729   C735    1.400   .     A
C729   C733    1.397   .     A
C729   C754    1.468   .     S
C730   C736    1.399   .     A
C730   C734    1.396   .     A
C731   C740    1.404   .     A
C731   C733    1.392   .     A
C732   C734    1.392   .     A
C732   C741    1.404   .     A
C732   H645    1.084   1_655 S
C733   H775    1.081   .     S
C734   H774    1.079   .     S
C735   C737    1.405   .     A
C735   H773    1.075   .     S
C736   H772    1.075   .     S
C736   C739    1.406   .     A
C737   C742    1.427   .     A
C737   C740    1.417   .     A
C738   O787    1.293   .     A
C738   O785    1.289   .     A
C738   C753    1.432   .     S
C739   C743    1.428   .     A
C739   C741    1.419   .     A
C740   C156    1.389   1_556 S
C742   C749    1.417   .     A
C742   C149    1.425   1_556 S
C743   C748    1.418   .     A
C744   O792    1.412   .     S
C744   H760    1.116   .     S
C744   C745    1.519   .     S
C744   H1155   1.114   1_545 S
C745   H761    1.111   .     S
C745   H762    1.111   .     S
C745   H763    1.111   .     S
C746   O782    1.412   .     S
C746   H764    1.116   .     S
C746   C747    1.518   .     S
C746   H963    1.114   .     S
C747   H766    1.111   .     S
C747   H767    1.111   .     S
C747   H769    1.111   .     S
C748   C750    1.387   .     A
C748   H778    1.075   .     S
C749   H758    1.076   .     S
C749   C751    1.386   .     A
C750   H757    1.085   .     S
C751   H768    1.085   .     S
C751   C147    1.389   1_556 S
C752   C951    1.350   .     S
C752   O990    1.388   .     S
C753   C1148   1.350   1_545 S
C753   O1178   1.387   1_545 S
C754   O790    1.299   .     A
C754   O788    1.305   .     A
Cu755  Cu756   2.700   .     S
Cu755  O787    1.960   .     S
Cu755  O788    1.942   .     S
Cu755  O791    1.922   .     S
Cu755  N780    2.029   .     S
Cu755  O781    1.965   .     S
Cu756  O790    1.922   .     S
Cu756  O785    1.965   .     S
Cu756  N779    2.029   .     S
Cu756  O789    1.942   .     S
Cu756  O786    1.960   .     S
H759   C942    1.114   .     S
H765   C1142   1.114   1_545 S
H770   O651    0.990   1_655 S
H776   C599    1.084   1_655 S
N779   N648    1.285   1_655 S
N779   O651    1.338   1_655 S
O782   C951    1.387   .     S
O784   H639    0.990   1_655 S
O784   N648    1.338   1_655 S
O792   C1148   1.388   1_545 S
C793   O847    1.290   .     A
C793   C818    1.432   .     S
C793   O852    1.293   .     A
C794   C796    1.466   .     S
C794   O857    1.298   .     A
C794   O855    1.306   .     A
C795   C801    1.400   .     A
C795   C799    1.397   .     A
C795   C820    1.468   .     S
C796   C802    1.399   .     A
C796   C800    1.396   .     A
C797   C806    1.404   .     A
C797   C799    1.392   .     A
C797   H974    1.084   1_455 S
C798   C800    1.392   .     A
C798   C807    1.404   .     A
C798   H909    1.084   .     S
C799   H841    1.081   .     S
C800   H840    1.079   .     S
C801   C803    1.405   .     A
C801   H839    1.075   .     S
C802   H838    1.075   .     S
C802   C805    1.406   .     A
C803   C808    1.427   .     A
C803   C806    1.417   .     A
C804   O853    1.293   .     A
C804   O851    1.289   .     A
C804   C819    1.432   .     S
C805   C809    1.428   .     A
C805   C807    1.419   .     A
C806   C222    1.389   1_556 S
C808   C815    1.417   .     A
C808   C215    1.425   1_556 S
C809   C814    1.418   .     A
C810   O858    1.412   .     S
C810   H826    1.116   .     S
C810   C811    1.519   .     S
C811   H827    1.111   .     S
C811   H828    1.111   .     S
C811   H829    1.111   .     S
C812   O848    1.412   .     S
C812   H830    1.116   .     S
C812   C813    1.518   .     S
C812   H1029   1.114   .     S
C813   H832    1.111   .     S
C813   H833    1.111   .     S
C813   H835    1.111   .     S
C814   C816    1.387   .     A
C814   H844    1.075   .     S
C815   H824    1.076   .     S
C815   C817    1.386   .     A
C816   H823    1.085   .     S
C817   H834    1.085   .     S
C817   C213    1.389   1_556 S
C818   C1017   1.350   .     S
C818   O1056   1.388   .     S
C820   O856    1.299   .     A
C820   O854    1.305   .     A
Cu821  Cu822   2.700   .     S
Cu821  O853    1.960   .     S
Cu821  O854    1.942   .     S
Cu821  O857    1.922   .     S
Cu821  N846    2.029   .     S
Cu821  O847    1.965   .     S
Cu822  O856    1.922   .     S
Cu822  O851    1.965   .     S
Cu822  N845    2.029   .     S
Cu822  O855    1.942   .     S
Cu822  O852    1.960   .     S
H825   C1008   1.114   .     S
H836   O915    0.990   .     S
H837   O982    0.990   1_455 S
H842   C863    1.084   .     S
H843   C930    1.084   1_455 S
N845   N912    1.285   .     S
N845   O915    1.338   .     S
N846   N977    1.285   1_455 S
N846   O982    1.338   1_455 S
O848   C1017   1.387   .     S
O849   H968    0.990   1_455 S
O849   N977    1.338   1_455 S
O850   H903    0.990   .     S
O850   N912    1.338   .     S
C859   O913    1.290   .     A
C859   C884    1.432   .     S
C859   O918    1.293   .     A
C860   C862    1.466   .     S
C860   O923    1.298   .     A
C860   O921    1.306   .     A
C861   C867    1.400   .     A
C861   C865    1.397   .     A
C861   C886    1.468   .     S
C862   C868    1.399   .     A
C862   C866    1.396   .     A
C863   C872    1.404   .     A
C863   C865    1.392   .     A
C864   C866    1.392   .     A
C864   C873    1.404   .     A
C864   H975    1.084   .     S
C865   H907    1.081   .     S
C866   H906    1.079   .     S
C867   C869    1.405   .     A
C867   H905    1.075   .     S
C868   H904    1.075   .     S
C868   C871    1.406   .     A
C869   C874    1.427   .     A
C869   C872    1.417   .     A
C870   O919    1.293   .     A
C870   O917    1.289   .     A
C870   C885    1.432   .     S
C871   C875    1.428   .     A
C871   C873    1.419   .     A
C872   C288    1.389   1_556 S
C874   C881    1.417   .     A
C874   C281    1.425   1_556 S
C875   C880    1.418   .     A
C876   O924    1.412   .     S
C876   H892    1.116   .     S
C876   C877    1.519   .     S
C877   H893    1.111   .     S
C877   H894    1.111   .     S
C877   H895    1.111   .     S
C878   O914    1.412   .     S
C878   H896    1.116   .     S
C878   C879    1.518   .     S
C878   H1095   1.114   .     S
C879   H898    1.111   .     S
C879   H899    1.111   .     S
C879   H901    1.111   .     S
C880   C882    1.387   .     A
C880   H910    1.075   .     S
C881   H890    1.076   .     S
C881   C883    1.386   .     A
C882   H889    1.085   .     S
C883   H900    1.085   .     S
C883   C279    1.389   1_556 S
C884   C1083   1.350   .     S
C884   O1122   1.388   .     S
C886   O922    1.299   .     A
C886   O920    1.305   .     A
Cu887  Cu888   2.700   .     S
Cu887  O919    1.960   .     S
Cu887  O920    1.942   .     S
Cu887  O923    1.922   .     S
Cu887  N912    2.029   .     S
Cu887  O913    1.965   .     S
Cu888  O922    1.922   .     S
Cu888  O917    1.965   .     S
Cu888  N911    2.029   .     S
Cu888  O921    1.942   .     S
Cu888  O918    1.960   .     S
H891   C1074   1.114   .     S
H902   O981    0.990   .     S
H908   C929    1.084   .     S
N911   N978    1.285   .     S
N911   O981    1.338   .     S
O914   C1083   1.387   .     S
O916   H969    0.990   .     S
O916   N978    1.338   .     S
C925   O979    1.290   .     A
C925   C950    1.432   .     S
C925   O984    1.293   .     A
C926   C928    1.466   .     S
C926   O989    1.298   .     A
C926   O987    1.306   .     A
C927   C933    1.400   .     A
C927   C931    1.397   .     A
C927   C952    1.468   .     S
C928   C934    1.399   .     A
C928   C932    1.396   .     A
C929   C938    1.404   .     A
C929   C931    1.392   .     A
C930   C932    1.392   .     A
C930   C939    1.404   .     A
C930   H843    1.084   1_655 S
C931   H973    1.081   .     S
C932   H972    1.079   .     S
C933   C935    1.405   .     A
C933   H971    1.075   .     S
C934   H970    1.075   .     S
C934   C937    1.406   .     A
C935   C940    1.427   .     A
C935   C938    1.417   .     A
C936   O985    1.293   .     A
C936   O983    1.289   .     A
C936   C951    1.432   .     S
C937   C941    1.428   .     A
C937   C939    1.419   .     A
C938   C354    1.389   1_556 S
C940   C947    1.417   .     A
C940   C347    1.425   1_556 S
C941   C946    1.418   .     A
C942   O990    1.412   .     S
C942   H958    1.116   .     S
C942   C943    1.519   .     S
C943   H959    1.111   .     S
C943   H960    1.111   .     S
C943   H961    1.111   .     S
C944   O980    1.412   .     S
C944   H962    1.116   .     S
C944   C945    1.518   .     S
C944   H1161   1.114   .     S
C945   H964    1.111   .     S
C945   H965    1.111   .     S
C945   H967    1.111   .     S
C946   C948    1.387   .     A
C946   H976    1.075   .     S
C947   H956    1.076   .     S
C947   C949    1.386   .     A
C948   H955    1.085   .     S
C949   H966    1.085   .     S
C949   C345    1.389   1_556 S
C950   C1149   1.350   .     S
C950   O1188   1.388   .     S
C952   O988    1.299   .     A
C952   O986    1.305   .     A
Cu953  Cu954   2.700   .     S
Cu953  O985    1.960   .     S
Cu953  O986    1.942   .     S
Cu953  O989    1.922   .     S
Cu953  N978    2.029   .     S
Cu953  O979    1.965   .     S
Cu954  O988    1.922   .     S
Cu954  O983    1.965   .     S
Cu954  N977    2.029   .     S
Cu954  O987    1.942   .     S
Cu954  O984    1.960   .     S
H957   C1140   1.114   .     S
H968   O849    0.990   1_655 S
H974   C797    1.084   1_655 S
N977   N846    1.285   1_655 S
N977   O849    1.338   1_655 S
O980   C1149   1.387   .     S
O982   H837    0.990   1_655 S
O982   N846    1.338   1_655 S
C991   O1045   1.290   .     A
C991   C1016   1.432   .     S
C991   O1050   1.293   .     A
C992   C994    1.466   .     S
C992   O1055   1.298   .     A
C992   O1053   1.306   .     A
C993   C999    1.400   .     A
C993   C997    1.397   .     A
C993   C1018   1.468   .     S
C994   C1000   1.399   .     A
C994   C998    1.396   .     A
C995   C1004   1.404   .     A
C995   C997    1.392   .     A
C995   H1172   1.084   1_455 S
C996   C998    1.392   .     A
C996   C1005   1.404   .     A
C996   H1107   1.084   .     S
C997   H1039   1.081   .     S
C998   H1038   1.079   .     S
C999   C1001   1.405   .     A
C999   H1037   1.075   .     S
C1000  H1036   1.075   .     S
C1000  C1003   1.406   .     A
C1001  C1006   1.427   .     A
C1001  C1004   1.417   .     A
C1002  O1051   1.293   .     A
C1002  O1049   1.289   .     A
C1002  C1017   1.432   .     S
C1003  C1007   1.428   .     A
C1003  C1005   1.419   .     A
C1004  C420    1.389   1_556 S
C1006  C1013   1.417   .     A
C1006  C413    1.425   1_556 S
C1007  C1012   1.418   .     A
C1008  O1056   1.412   .     S
C1008  H1024   1.116   .     S
C1008  C1009   1.519   .     S
C1009  H1025   1.111   .     S
C1009  H1026   1.111   .     S
C1009  H1027   1.111   .     S
C1010  O1046   1.412   .     S
C1010  H1028   1.116   .     S
C1010  C1011   1.518   .     S
C1010  H633    1.114   1_565 S
C1011  H1030   1.111   .     S
C1011  H1031   1.111   .     S
C1011  H1033   1.111   .     S
C1012  C1014   1.387   .     A
C1012  H1042   1.075   .     S
C1013  H1022   1.076   .     S
C1013  C1015   1.386   .     A
C1014  H1021   1.085   .     S
C1015  H1032   1.085   .     S
C1015  C411    1.389   1_556 S
C1016  C621    1.350   1_565 S
C1016  O660    1.388   1_565 S
C1018  O1054   1.299   .     A
C1018  O1052   1.305   .     A
Cu1019 Cu1020  2.700   .     S
Cu1019 O1051   1.960   .     S
Cu1019 O1052   1.942   .     S
Cu1019 O1055   1.922   .     S
Cu1019 N1044   2.029   .     S
Cu1019 O1045   1.965   .     S
Cu1020 O1054   1.922   .     S
Cu1020 O1049   1.965   .     S
Cu1020 N1043   2.029   .     S
Cu1020 O1053   1.942   .     S
Cu1020 O1050   1.960   .     S
H1023  C612    1.114   1_565 S
H1034  O1113   0.990   .     S
H1035  O1180   0.990   1_455 S
H1040  C1061   1.084   .     S
H1041  C1128   1.084   1_455 S
N1043  N1110   1.285   .     S
N1043  O1113   1.338   .     S
N1044  N1175   1.285   1_455 S
N1044  O1180   1.338   1_455 S
O1046  C621    1.387   1_565 S
O1047  H1166   0.990   1_455 S
O1047  N1175   1.338   1_455 S
O1048  H1101   0.990   .     S
O1048  N1110   1.338   .     S
C1057  O1111   1.290   .     A
C1057  C1082   1.432   .     S
C1057  O1116   1.293   .     A
C1058  C1060   1.466   .     S
C1058  O1121   1.298   .     A
C1058  O1119   1.306   .     A
C1059  C1065   1.400   .     A
C1059  C1063   1.397   .     A
C1059  C1084   1.468   .     S
C1060  C1066   1.399   .     A
C1060  C1064   1.396   .     A
C1061  C1070   1.404   .     A
C1061  C1063   1.392   .     A
C1062  C1064   1.392   .     A
C1062  C1071   1.404   .     A
C1062  H1173   1.084   .     S
C1063  H1105   1.081   .     S
C1064  H1104   1.079   .     S
C1065  C1067   1.405   .     A
C1065  H1103   1.075   .     S
C1066  H1102   1.075   .     S
C1066  C1069   1.406   .     A
C1067  C1072   1.427   .     A
C1067  C1070   1.417   .     A
C1068  O1117   1.293   .     A
C1068  O1115   1.289   .     A
C1068  C1083   1.432   .     S
C1069  C1073   1.428   .     A
C1069  C1071   1.419   .     A
C1070  C486    1.389   1_556 S
C1072  C1079   1.417   .     A
C1072  C479    1.425   1_556 S
C1073  C1078   1.418   .     A
C1074  O1122   1.412   .     S
C1074  H1090   1.116   .     S
C1074  C1075   1.519   .     S
C1075  H1091   1.111   .     S
C1075  H1092   1.111   .     S
C1075  H1093   1.111   .     S
C1076  O1112   1.412   .     S
C1076  H1094   1.116   .     S
C1076  C1077   1.518   .     S
C1076  H699    1.114   1_565 S
C1077  H1096   1.111   .     S
C1077  H1097   1.111   .     S
C1077  H1099   1.111   .     S
C1078  C1080   1.387   .     A
C1078  H1108   1.075   .     S
C1079  H1088   1.076   .     S
C1079  C1081   1.386   .     A
C1080  H1087   1.085   .     S
C1081  H1098   1.085   .     S
C1081  C477    1.389   1_556 S
C1082  C687    1.350   1_565 S
C1082  O726    1.388   1_565 S
C1084  O1120   1.299   .     A
C1084  O1118   1.305   .     A
Cu1085 Cu1086  2.700   .     S
Cu1085 O1117   1.960   .     S
Cu1085 O1118   1.942   .     S
Cu1085 O1121   1.922   .     S
Cu1085 N1110   2.029   .     S
Cu1085 O1111   1.965   .     S
Cu1086 O1120   1.922   .     S
Cu1086 O1115   1.965   .     S
Cu1086 N1109   2.029   .     S
Cu1086 O1119   1.942   .     S
Cu1086 O1116   1.960   .     S
H1089  C678    1.114   1_565 S
H1100  O1179   0.990   .     S
H1106  C1127   1.084   .     S
N1109  N1176   1.285   .     S
N1109  O1179   1.338   .     S
O1112  C687    1.387   1_565 S
O1114  H1167   0.990   .     S
O1114  N1176   1.338   .     S
C1123  O1177   1.290   .     A
C1123  C1148   1.432   .     S
C1123  O1182   1.293   .     A
C1124  C1126   1.466   .     S
C1124  O1187   1.298   .     A
C1124  O1185   1.306   .     A
C1125  C1131   1.400   .     A
C1125  C1129   1.397   .     A
C1125  C1150   1.468   .     S
C1126  C1132   1.399   .     A
C1126  C1130   1.396   .     A
C1127  C1136   1.404   .     A
C1127  C1129   1.392   .     A
C1128  C1130   1.392   .     A
C1128  C1137   1.404   .     A
C1128  H1041   1.084   1_655 S
C1129  H1171   1.081   .     S
C1130  H1170   1.079   .     S
C1131  C1133   1.405   .     A
C1131  H1169   1.075   .     S
C1132  H1168   1.075   .     S
C1132  C1135   1.406   .     A
C1133  C1138   1.427   .     A
C1133  C1136   1.417   .     A
C1134  O1183   1.293   .     A
C1134  O1181   1.289   .     A
C1134  C1149   1.432   .     S
C1135  C1139   1.428   .     A
C1135  C1137   1.419   .     A
C1136  C552    1.389   1_556 S
C1138  C1145   1.417   .     A
C1138  C545    1.425   1_556 S
C1139  C1144   1.418   .     A
C1140  O1188   1.412   .     S
C1140  H1156   1.116   .     S
C1140  C1141   1.519   .     S
C1141  H1157   1.111   .     S
C1141  H1158   1.111   .     S
C1141  H1159   1.111   .     S
C1142  O1178   1.412   .     S
C1142  H1160   1.116   .     S
C1142  C1143   1.518   .     S
C1142  H765    1.114   1_565 S
C1143  H1162   1.111   .     S
C1143  H1163   1.111   .     S
C1143  H1165   1.111   .     S
C1144  C1146   1.387   .     A
C1144  H1174   1.075   .     S
C1145  H1154   1.076   .     S
C1145  C1147   1.386   .     A
C1146  H1153   1.085   .     S
C1147  H1164   1.085   .     S
C1147  C543    1.389   1_556 S
C1148  C753    1.350   1_565 S
C1148  O792    1.388   1_565 S
C1150  O1186   1.299   .     A
C1150  O1184   1.305   .     A
Cu1151 Cu1152  2.700   .     S
Cu1151 O1183   1.960   .     S
Cu1151 O1184   1.942   .     S
Cu1151 O1187   1.922   .     S
Cu1151 N1176   2.029   .     S
Cu1151 O1177   1.965   .     S
Cu1152 O1186   1.922   .     S
Cu1152 O1181   1.965   .     S
Cu1152 N1175   2.029   .     S
Cu1152 O1185   1.942   .     S
Cu1152 O1182   1.960   .     S
H1155  C744    1.114   1_565 S
H1166  O1047   0.990   1_655 S
H1172  C995    1.084   1_655 S
N1175  N1044   1.285   1_655 S
N1175  O1047   1.338   1_655 S
O1178  C753    1.387   1_565 S
O1180  H1035   0.990   1_655 S
O1180  N1044   1.338   1_655 S
