data_str_m2_o2_o10_pcu_sym.224
_audit_creation_date              2020-01-03
_audit_creation_method            'Materials Studio'
_symmetry_space_group_name_H-M    'P1'
_symmetry_Int_Tables_number       1
_symmetry_cell_setting            triclinic
loop_
_symmetry_equiv_pos_as_xyz
  x,y,z
_cell_length_a                    26.1354
_cell_length_b                    30.1918
_cell_length_c                    27.6746
_cell_angle_alpha                 90.2311
_cell_angle_beta                  98.0623
_cell_angle_gamma                 90.0080
loop_
_atom_site_label
_atom_site_type_symbol
_atom_site_fract_x
_atom_site_fract_y
_atom_site_fract_z
_atom_site_U_iso_or_equiv
_atom_site_adp_type
_atom_site_occupancy
C1     C     0.16683   0.16503   0.24991   0.00000  Uiso   1.00
C2     C     0.16698   0.33518   0.25018   0.00000  Uiso   1.00
C3     C     0.19334   0.28441   0.05771   0.00000  Uiso   1.00
C4     C     0.19371   0.21586   0.44942   0.00000  Uiso   1.00
C5     C     0.19261   0.28255   0.10877   0.00000  Uiso   1.00
C6     C     0.19290   0.21766   0.39815   0.00000  Uiso   1.00
C7     C     0.14049   0.21834   0.10057   0.00000  Uiso   1.00
C8     C     0.14028   0.28150   0.39245   0.00000  Uiso   1.00
C9     C     0.14053   0.21813   0.04978   0.00000  Uiso   1.00
C10    C     0.14029   0.28171   0.44325   0.00000  Uiso   1.00
C11    C     0.16756   0.25075   0.02739   0.00000  Uiso   1.00
C12    C     0.16757   0.24930   0.47285   0.00000  Uiso   1.00
C13    C     0.06785   0.24999   0.23751   0.00000  Uiso   1.00
C14    C     0.26548   0.25000   0.26249   0.00000  Uiso   1.00
C15    C     0.01255   0.25000   0.23060   0.00000  Uiso   1.00
C16    C     0.32077   0.25000   0.26939   0.00000  Uiso   1.00
C17    C     0.13565   0.04729   0.27410   0.00000  Uiso   1.00
C18    C     0.15616   0.45333   0.20874   0.00000  Uiso   1.00
C19    C     0.13447   0.09320   0.27459   0.00000  Uiso   1.00
C20    C     0.15494   0.40741   0.20781   0.00000  Uiso   1.00
C21    C     0.16826   0.11700   0.24973   0.00000  Uiso   1.00
C22    C     0.16832   0.38360   0.25094   0.00000  Uiso   1.00
C23    C     0.20354   0.09495   0.22457   0.00000  Uiso   1.00
C24    C     0.18285   0.40619   0.29511   0.00000  Uiso   1.00
C25    C     0.20673   0.04865   0.22520   0.00000  Uiso   1.00
C26    C     0.18496   0.45253   0.29669   0.00000  Uiso   1.00
C27    C     0.17232   0.02470   0.25087   0.00000  Uiso   1.00
C28    C     0.17214   0.47618   0.25242   0.00000  Uiso   1.00
Cu29   Cu    0.16667   0.25000   0.29822   0.00000  Uiso   1.00
Cu30   Cu    0.16667   0.25001   0.20179   0.00000  Uiso   1.00
H31    H     0.32578   0.25000   0.19343   0.00000  Uiso   1.00
H32    H     0.00755   0.25000   0.30656   0.00000  Uiso   1.00
H33    H     0.10648   0.11015   0.29344   0.00000  Uiso   1.00
H34    H     0.14284   0.39057   0.17347   0.00000  Uiso   1.00
H35    H     0.21291   0.30747   0.13230   0.00000  Uiso   1.00
H36    H     0.21341   0.19290   0.38003   0.00000  Uiso   1.00
H37    H     0.11915   0.19262   0.02791   0.00000  Uiso   1.00
H38    H     0.11870   0.30707   0.45942   0.00000  Uiso   1.00
N39    N     0.16667   0.25001   0.12935   0.00000  Uiso   1.00
N40    N     0.16667   0.24999   0.37066   0.00000  Uiso   1.00
O41    O     0.16667   0.18573   0.29072   0.00000  Uiso   1.00
O42    O     0.16666   0.31428   0.20929   0.00000  Uiso   1.00
O43    O     0.16667   0.18573   0.20928   0.00000  Uiso   1.00
O44    O     0.16666   0.31427   0.29072   0.00000  Uiso   1.00
O45    O     0.09161   0.25000   0.28132   0.00000  Uiso   1.00
O46    O     0.24172   0.25001   0.21868   0.00000  Uiso   1.00
O47    O     0.09161   0.25000   0.19989   0.00000  Uiso   1.00
O48    O     0.24172   0.25000   0.30012   0.00000  Uiso   1.00
H49    H     0.10785   0.02923   0.29202   0.00000  Uiso   1.00
H50    H     0.14435   0.47124   0.17517   0.00000  Uiso   1.00
H51    H     0.22949   0.11411   0.20549   0.00000  Uiso   1.00
H52    H     0.19301   0.38758   0.32848   0.00000  Uiso   1.00
C53    C     0.24683   0.02654   0.19831   0.00000  Uiso   1.00
C54    C     0.29192   0.00740   0.23348   0.00000  Uiso   1.00
C55    C     0.00176   0.49074   0.20622   0.00000  Uiso   1.00
H56    H     0.32026   0.46459   0.17954   0.00000  Uiso   1.00
H57    H     0.01780   0.01845   0.18670   0.00000  Uiso   1.00
H58    H     0.03338   0.47655   0.23262   0.00000  Uiso   1.00
H59    H     0.30799   0.03334   0.25998   0.00000  Uiso   1.00
H60    H     0.27820   0.47920   0.25378   0.00000  Uiso   1.00
H61    H     0.22878   0.00025   0.17352   0.00000  Uiso   1.00
H62    H     0.26269   0.05106   0.17442   0.00000  Uiso   1.00
C63    C     0.19957   0.47499   0.34600   0.00000  Uiso   1.00
C64    C     0.25280   0.49722   0.35087   0.00000  Uiso   1.00
C65    C     0.26819   0.01619   0.40205   0.00000  Uiso   1.00
H66    H     0.23956   0.04132   0.41032   0.00000  Uiso   1.00
H67    H     0.27054   0.48939   0.42966   0.00000  Uiso   1.00
H68    H     0.30664   0.03233   0.40434   0.00000  Uiso   1.00
H69    H     0.28233   0.47260   0.34333   0.00000  Uiso   1.00
H70    H     0.25226   0.02479   0.32450   0.00000  Uiso   1.00
H71    H     0.16975   0.49951   0.35258   0.00000  Uiso   1.00
H72    H     0.20025   0.45022   0.37574   0.00000  Uiso   1.00
C73    C     0.22059   0.32307   0.03740   0.00000  Uiso   1.00
C74    C     0.27163   0.30929   0.02036   0.00000  Uiso   1.00
C75    C     0.30065   0.34937   0.00452   0.00000  Uiso   1.00
H76    H     0.27677   0.36674   0.47399   0.00000  Uiso   1.00
H77    H     0.31036   0.37272   0.03557   0.00000  Uiso   1.00
H78    H     0.00378   0.33827   0.49196   0.00000  Uiso   1.00
H79    H     0.29655   0.29231   0.05055   0.00000  Uiso   1.00
H80    H     0.26401   0.28632   0.48883   0.00000  Uiso   1.00
H81    H     0.19478   0.33866   0.00697   0.00000  Uiso   1.00
H82    H     0.22901   0.34920   0.06586   0.00000  Uiso   1.00
C83    C     0.22166   0.17762   0.47707   0.00000  Uiso   1.00
C84    C     0.27274   0.19211   0.00712   0.00000  Uiso   1.00
C85    C     0.30274   0.15247   0.03046   0.00000  Uiso   1.00
H86    H     0.27955   0.13481   0.05508   0.00000  Uiso   1.00
H87    H     0.31242   0.12921   0.00189   0.00000  Uiso   1.00
H88    H     0.00593   0.16409   0.05220   0.00000  Uiso   1.00
H89    H     0.29704   0.20945   0.48320   0.00000  Uiso   1.00
H90    H     0.26504   0.21497   0.03670   0.00000  Uiso   1.00
H91    H     0.19632   0.16190   0.00106   0.00000  Uiso   1.00
H92    H     0.23014   0.15142   0.45094   0.00000  Uiso   1.00
H93    H     0.11932   0.19302   0.11696   0.00000  Uiso   1.00
H94    H     0.11896   0.30670   0.37042   0.00000  Uiso   1.00
C95    C     0.50016   0.16503   0.24991   0.00000  Uiso   1.00
C96    C     0.50031   0.33518   0.25018   0.00000  Uiso   1.00
C97    C     0.52667   0.28441   0.05771   0.00000  Uiso   1.00
C98    C     0.52705   0.21586   0.44942   0.00000  Uiso   1.00
C99    C     0.52595   0.28255   0.10877   0.00000  Uiso   1.00
C100   C     0.52623   0.21766   0.39815   0.00000  Uiso   1.00
C101   C     0.47383   0.21834   0.10057   0.00000  Uiso   1.00
C102   C     0.47362   0.28150   0.39245   0.00000  Uiso   1.00
C103   C     0.47387   0.21813   0.04978   0.00000  Uiso   1.00
C104   C     0.47362   0.28171   0.44325   0.00000  Uiso   1.00
C105   C     0.50089   0.25075   0.02739   0.00000  Uiso   1.00
C106   C     0.50091   0.24930   0.47285   0.00000  Uiso   1.00
C107   C     0.40119   0.24999   0.23751   0.00000  Uiso   1.00
C108   C     0.59881   0.25000   0.26249   0.00000  Uiso   1.00
C109   C     0.34589   0.25000   0.23060   0.00000  Uiso   1.00
C110   C     0.65411   0.25000   0.26939   0.00000  Uiso   1.00
C111   C     0.46898   0.04729   0.27410   0.00000  Uiso   1.00
C112   C     0.48950   0.45333   0.20874   0.00000  Uiso   1.00
C113   C     0.46780   0.09320   0.27459   0.00000  Uiso   1.00
C114   C     0.48828   0.40741   0.20781   0.00000  Uiso   1.00
C115   C     0.50159   0.11700   0.24973   0.00000  Uiso   1.00
C116   C     0.50166   0.38360   0.25094   0.00000  Uiso   1.00
C117   C     0.53688   0.09495   0.22457   0.00000  Uiso   1.00
C118   C     0.51619   0.40619   0.29511   0.00000  Uiso   1.00
C119   C     0.54006   0.04865   0.22520   0.00000  Uiso   1.00
C120   C     0.51829   0.45253   0.29669   0.00000  Uiso   1.00
C121   C     0.50566   0.02470   0.25087   0.00000  Uiso   1.00
C122   C     0.50548   0.47618   0.25242   0.00000  Uiso   1.00
Cu123  Cu    0.50000   0.25000   0.29822   0.00000  Uiso   1.00
Cu124  Cu    0.50000   0.25001   0.20179   0.00000  Uiso   1.00
H125   H     0.65912   0.25000   0.19343   0.00000  Uiso   1.00
H126   H     0.34088   0.25000   0.30656   0.00000  Uiso   1.00
H127   H     0.43981   0.11015   0.29344   0.00000  Uiso   1.00
H128   H     0.47618   0.39057   0.17347   0.00000  Uiso   1.00
H129   H     0.54624   0.30747   0.13230   0.00000  Uiso   1.00
H130   H     0.54674   0.19290   0.38003   0.00000  Uiso   1.00
H131   H     0.45249   0.19262   0.02791   0.00000  Uiso   1.00
H132   H     0.45203   0.30707   0.45942   0.00000  Uiso   1.00
N133   N     0.50000   0.25001   0.12935   0.00000  Uiso   1.00
N134   N     0.50000   0.24999   0.37066   0.00000  Uiso   1.00
O135   O     0.50000   0.18573   0.29072   0.00000  Uiso   1.00
O136   O     0.50000   0.31428   0.20929   0.00000  Uiso   1.00
O137   O     0.50000   0.18573   0.20928   0.00000  Uiso   1.00
O138   O     0.50000   0.31427   0.29072   0.00000  Uiso   1.00
O139   O     0.42495   0.25000   0.28132   0.00000  Uiso   1.00
O140   O     0.57505   0.25001   0.21868   0.00000  Uiso   1.00
O141   O     0.42495   0.25000   0.19989   0.00000  Uiso   1.00
O142   O     0.57505   0.25000   0.30012   0.00000  Uiso   1.00
H143   H     0.44119   0.02923   0.29202   0.00000  Uiso   1.00
H144   H     0.47768   0.47124   0.17517   0.00000  Uiso   1.00
H145   H     0.56282   0.11411   0.20549   0.00000  Uiso   1.00
H146   H     0.52634   0.38758   0.32848   0.00000  Uiso   1.00
C147   C     0.58016   0.02654   0.19831   0.00000  Uiso   1.00
C148   C     0.62526   0.00740   0.23348   0.00000  Uiso   1.00
C149   C     0.33510   0.49074   0.20622   0.00000  Uiso   1.00
H150   H     0.65360   0.46459   0.17954   0.00000  Uiso   1.00
H151   H     0.35113   0.01845   0.18670   0.00000  Uiso   1.00
H152   H     0.36672   0.47655   0.23262   0.00000  Uiso   1.00
H153   H     0.64132   0.03334   0.25998   0.00000  Uiso   1.00
H154   H     0.61153   0.47920   0.25378   0.00000  Uiso   1.00
H155   H     0.56211   0.00025   0.17352   0.00000  Uiso   1.00
H156   H     0.59602   0.05106   0.17442   0.00000  Uiso   1.00
C157   C     0.53291   0.47499   0.34600   0.00000  Uiso   1.00
C158   C     0.58613   0.49722   0.35087   0.00000  Uiso   1.00
C159   C     0.60152   0.01619   0.40205   0.00000  Uiso   1.00
H160   H     0.57289   0.04132   0.41032   0.00000  Uiso   1.00
H161   H     0.60388   0.48939   0.42966   0.00000  Uiso   1.00
H162   H     0.63997   0.03233   0.40434   0.00000  Uiso   1.00
H163   H     0.61566   0.47260   0.34333   0.00000  Uiso   1.00
H164   H     0.58559   0.02479   0.32450   0.00000  Uiso   1.00
H165   H     0.50308   0.49951   0.35258   0.00000  Uiso   1.00
H166   H     0.53359   0.45022   0.37574   0.00000  Uiso   1.00
C167   C     0.55393   0.32307   0.03740   0.00000  Uiso   1.00
C168   C     0.60497   0.30929   0.02036   0.00000  Uiso   1.00
C169   C     0.63398   0.34937   0.00452   0.00000  Uiso   1.00
H170   H     0.61010   0.36674   0.47399   0.00000  Uiso   1.00
H171   H     0.64370   0.37272   0.03557   0.00000  Uiso   1.00
H172   H     0.33712   0.33827   0.49196   0.00000  Uiso   1.00
H173   H     0.62988   0.29231   0.05055   0.00000  Uiso   1.00
H174   H     0.59735   0.28632   0.48883   0.00000  Uiso   1.00
H175   H     0.52812   0.33866   0.00697   0.00000  Uiso   1.00
H176   H     0.56234   0.34920   0.06586   0.00000  Uiso   1.00
C177   C     0.55499   0.17762   0.47707   0.00000  Uiso   1.00
C178   C     0.60607   0.19211   0.00712   0.00000  Uiso   1.00
C179   C     0.63607   0.15247   0.03046   0.00000  Uiso   1.00
H180   H     0.61289   0.13481   0.05508   0.00000  Uiso   1.00
H181   H     0.64575   0.12921   0.00189   0.00000  Uiso   1.00
H182   H     0.33926   0.16409   0.05220   0.00000  Uiso   1.00
H183   H     0.63037   0.20945   0.48320   0.00000  Uiso   1.00
H184   H     0.59838   0.21497   0.03670   0.00000  Uiso   1.00
H185   H     0.52965   0.16190   0.00106   0.00000  Uiso   1.00
H186   H     0.56347   0.15142   0.45094   0.00000  Uiso   1.00
H187   H     0.45265   0.19302   0.11696   0.00000  Uiso   1.00
H188   H     0.45229   0.30670   0.37042   0.00000  Uiso   1.00
C189   C     0.83350   0.16503   0.24991   0.00000  Uiso   1.00
C190   C     0.83364   0.33518   0.25018   0.00000  Uiso   1.00
C191   C     0.86000   0.28441   0.05771   0.00000  Uiso   1.00
C192   C     0.86038   0.21586   0.44942   0.00000  Uiso   1.00
C193   C     0.85928   0.28255   0.10877   0.00000  Uiso   1.00
C194   C     0.85957   0.21766   0.39815   0.00000  Uiso   1.00
C195   C     0.80716   0.21834   0.10057   0.00000  Uiso   1.00
C196   C     0.80695   0.28150   0.39245   0.00000  Uiso   1.00
C197   C     0.80720   0.21813   0.04978   0.00000  Uiso   1.00
C198   C     0.80696   0.28171   0.44325   0.00000  Uiso   1.00
C199   C     0.83422   0.25075   0.02739   0.00000  Uiso   1.00
C200   C     0.83424   0.24930   0.47285   0.00000  Uiso   1.00
C201   C     0.73452   0.24999   0.23751   0.00000  Uiso   1.00
C202   C     0.93214   0.25000   0.26249   0.00000  Uiso   1.00
C203   C     0.67922   0.25000   0.23060   0.00000  Uiso   1.00
C204   C     0.98744   0.25000   0.26939   0.00000  Uiso   1.00
C205   C     0.80231   0.04729   0.27410   0.00000  Uiso   1.00
C206   C     0.82283   0.45333   0.20874   0.00000  Uiso   1.00
C207   C     0.80113   0.09320   0.27459   0.00000  Uiso   1.00
C208   C     0.82161   0.40741   0.20781   0.00000  Uiso   1.00
C209   C     0.83492   0.11700   0.24973   0.00000  Uiso   1.00
C210   C     0.83499   0.38360   0.25094   0.00000  Uiso   1.00
C211   C     0.87021   0.09495   0.22457   0.00000  Uiso   1.00
C212   C     0.84952   0.40619   0.29511   0.00000  Uiso   1.00
C213   C     0.87339   0.04865   0.22520   0.00000  Uiso   1.00
C214   C     0.85163   0.45253   0.29669   0.00000  Uiso   1.00
C215   C     0.83899   0.02470   0.25087   0.00000  Uiso   1.00
C216   C     0.83881   0.47618   0.25242   0.00000  Uiso   1.00
Cu217  Cu    0.83333   0.25000   0.29822   0.00000  Uiso   1.00
Cu218  Cu    0.83333   0.25001   0.20179   0.00000  Uiso   1.00
H219   H     0.99245   0.25000   0.19343   0.00000  Uiso   1.00
H220   H     0.67421   0.25000   0.30656   0.00000  Uiso   1.00
H221   H     0.77314   0.11015   0.29344   0.00000  Uiso   1.00
H222   H     0.80951   0.39057   0.17347   0.00000  Uiso   1.00
H223   H     0.87957   0.30747   0.13230   0.00000  Uiso   1.00
H224   H     0.88008   0.19290   0.38003   0.00000  Uiso   1.00
H225   H     0.78582   0.19262   0.02791   0.00000  Uiso   1.00
H226   H     0.78537   0.30707   0.45942   0.00000  Uiso   1.00
N227   N     0.83333   0.25001   0.12935   0.00000  Uiso   1.00
N228   N     0.83333   0.24999   0.37066   0.00000  Uiso   1.00
O229   O     0.83334   0.18573   0.29072   0.00000  Uiso   1.00
O230   O     0.83333   0.31428   0.20929   0.00000  Uiso   1.00
O231   O     0.83334   0.18573   0.20928   0.00000  Uiso   1.00
O232   O     0.83333   0.31427   0.29072   0.00000  Uiso   1.00
O233   O     0.75828   0.25000   0.28132   0.00000  Uiso   1.00
O234   O     0.90839   0.25001   0.21868   0.00000  Uiso   1.00
O235   O     0.75828   0.25000   0.19989   0.00000  Uiso   1.00
O236   O     0.90839   0.25000   0.30012   0.00000  Uiso   1.00
H237   H     0.77452   0.02923   0.29202   0.00000  Uiso   1.00
H238   H     0.81102   0.47124   0.17517   0.00000  Uiso   1.00
H239   H     0.89616   0.11411   0.20549   0.00000  Uiso   1.00
H240   H     0.85968   0.38758   0.32848   0.00000  Uiso   1.00
C241   C     0.91349   0.02654   0.19831   0.00000  Uiso   1.00
C242   C     0.95859   0.00740   0.23348   0.00000  Uiso   1.00
C243   C     0.66843   0.49074   0.20622   0.00000  Uiso   1.00
H244   H     0.98693   0.46459   0.17954   0.00000  Uiso   1.00
H245   H     0.68447   0.01845   0.18670   0.00000  Uiso   1.00
H246   H     0.70005   0.47655   0.23262   0.00000  Uiso   1.00
H247   H     0.97465   0.03334   0.25998   0.00000  Uiso   1.00
H248   H     0.94486   0.47920   0.25378   0.00000  Uiso   1.00
H249   H     0.89545   0.00025   0.17352   0.00000  Uiso   1.00
H250   H     0.92935   0.05106   0.17442   0.00000  Uiso   1.00
C251   C     0.86624   0.47499   0.34600   0.00000  Uiso   1.00
C252   C     0.91947   0.49722   0.35087   0.00000  Uiso   1.00
C253   C     0.93485   0.01619   0.40205   0.00000  Uiso   1.00
H254   H     0.90623   0.04132   0.41032   0.00000  Uiso   1.00
H255   H     0.93721   0.48939   0.42966   0.00000  Uiso   1.00
H256   H     0.97330   0.03233   0.40434   0.00000  Uiso   1.00
H257   H     0.94900   0.47260   0.34333   0.00000  Uiso   1.00
H258   H     0.91893   0.02479   0.32450   0.00000  Uiso   1.00
H259   H     0.83642   0.49951   0.35258   0.00000  Uiso   1.00
H260   H     0.86692   0.45022   0.37574   0.00000  Uiso   1.00
C261   C     0.88726   0.32307   0.03740   0.00000  Uiso   1.00
C262   C     0.93830   0.30929   0.02036   0.00000  Uiso   1.00
C263   C     0.96732   0.34937   0.00452   0.00000  Uiso   1.00
H264   H     0.94343   0.36674   0.47399   0.00000  Uiso   1.00
H265   H     0.97703   0.37272   0.03557   0.00000  Uiso   1.00
H266   H     0.67045   0.33827   0.49196   0.00000  Uiso   1.00
H267   H     0.96322   0.29231   0.05055   0.00000  Uiso   1.00
H268   H     0.93068   0.28632   0.48883   0.00000  Uiso   1.00
H269   H     0.86145   0.33866   0.00697   0.00000  Uiso   1.00
H270   H     0.89568   0.34920   0.06586   0.00000  Uiso   1.00
C271   C     0.88832   0.17762   0.47707   0.00000  Uiso   1.00
C272   C     0.93940   0.19211   0.00712   0.00000  Uiso   1.00
C273   C     0.96940   0.15247   0.03046   0.00000  Uiso   1.00
H274   H     0.94622   0.13481   0.05508   0.00000  Uiso   1.00
H275   H     0.97909   0.12921   0.00189   0.00000  Uiso   1.00
H276   H     0.67259   0.16409   0.05220   0.00000  Uiso   1.00
H277   H     0.96370   0.20945   0.48320   0.00000  Uiso   1.00
H278   H     0.93171   0.21497   0.03670   0.00000  Uiso   1.00
H279   H     0.86299   0.16190   0.00106   0.00000  Uiso   1.00
H280   H     0.89681   0.15142   0.45094   0.00000  Uiso   1.00
H281   H     0.78598   0.19302   0.11696   0.00000  Uiso   1.00
H282   H     0.78563   0.30670   0.37042   0.00000  Uiso   1.00
C283   C     0.16683   0.66503   0.24991   0.00000  Uiso   1.00
C284   C     0.16698   0.83518   0.25018   0.00000  Uiso   1.00
C285   C     0.19334   0.78441   0.05771   0.00000  Uiso   1.00
C286   C     0.19371   0.71586   0.44942   0.00000  Uiso   1.00
C287   C     0.19261   0.78255   0.10877   0.00000  Uiso   1.00
C288   C     0.19290   0.71766   0.39815   0.00000  Uiso   1.00
C289   C     0.14049   0.71834   0.10057   0.00000  Uiso   1.00
C290   C     0.14028   0.78150   0.39245   0.00000  Uiso   1.00
C291   C     0.14053   0.71813   0.04978   0.00000  Uiso   1.00
C292   C     0.14029   0.78171   0.44325   0.00000  Uiso   1.00
C293   C     0.16756   0.75075   0.02739   0.00000  Uiso   1.00
C294   C     0.16757   0.74930   0.47285   0.00000  Uiso   1.00
C295   C     0.06785   0.74999   0.23751   0.00000  Uiso   1.00
C296   C     0.26548   0.75000   0.26249   0.00000  Uiso   1.00
C297   C     0.01255   0.75000   0.23060   0.00000  Uiso   1.00
C298   C     0.32077   0.75000   0.26939   0.00000  Uiso   1.00
C299   C     0.13565   0.54729   0.27410   0.00000  Uiso   1.00
C300   C     0.15616   0.95333   0.20874   0.00000  Uiso   1.00
C301   C     0.13447   0.59320   0.27459   0.00000  Uiso   1.00
C302   C     0.15494   0.90741   0.20781   0.00000  Uiso   1.00
C303   C     0.16826   0.61700   0.24973   0.00000  Uiso   1.00
C304   C     0.16832   0.88360   0.25094   0.00000  Uiso   1.00
C305   C     0.20354   0.59495   0.22457   0.00000  Uiso   1.00
C306   C     0.18285   0.90619   0.29511   0.00000  Uiso   1.00
C307   C     0.20673   0.54865   0.22520   0.00000  Uiso   1.00
C308   C     0.18496   0.95253   0.29669   0.00000  Uiso   1.00
C309   C     0.17232   0.52470   0.25087   0.00000  Uiso   1.00
C310   C     0.17214   0.97618   0.25242   0.00000  Uiso   1.00
Cu311  Cu    0.16667   0.75000   0.29822   0.00000  Uiso   1.00
Cu312  Cu    0.16667   0.75001   0.20179   0.00000  Uiso   1.00
H313   H     0.32578   0.75000   0.19343   0.00000  Uiso   1.00
H314   H     0.00755   0.75000   0.30656   0.00000  Uiso   1.00
H315   H     0.10648   0.61015   0.29344   0.00000  Uiso   1.00
H316   H     0.14284   0.89057   0.17347   0.00000  Uiso   1.00
H317   H     0.21291   0.80747   0.13230   0.00000  Uiso   1.00
H318   H     0.21341   0.69290   0.38003   0.00000  Uiso   1.00
H319   H     0.11915   0.69262   0.02791   0.00000  Uiso   1.00
H320   H     0.11870   0.80707   0.45942   0.00000  Uiso   1.00
N321   N     0.16667   0.75001   0.12935   0.00000  Uiso   1.00
N322   N     0.16667   0.74999   0.37066   0.00000  Uiso   1.00
O323   O     0.16667   0.68573   0.29072   0.00000  Uiso   1.00
O324   O     0.16666   0.81428   0.20929   0.00000  Uiso   1.00
O325   O     0.16667   0.68573   0.20928   0.00000  Uiso   1.00
O326   O     0.16666   0.81427   0.29072   0.00000  Uiso   1.00
O327   O     0.09161   0.75000   0.28132   0.00000  Uiso   1.00
O328   O     0.24172   0.75001   0.21868   0.00000  Uiso   1.00
O329   O     0.09161   0.75000   0.19989   0.00000  Uiso   1.00
O330   O     0.24172   0.75000   0.30012   0.00000  Uiso   1.00
H331   H     0.10785   0.52923   0.29202   0.00000  Uiso   1.00
H332   H     0.14435   0.97124   0.17517   0.00000  Uiso   1.00
H333   H     0.22949   0.61411   0.20549   0.00000  Uiso   1.00
H334   H     0.19301   0.88758   0.32848   0.00000  Uiso   1.00
C335   C     0.24683   0.52654   0.19831   0.00000  Uiso   1.00
C336   C     0.29192   0.50740   0.23348   0.00000  Uiso   1.00
C337   C     0.00176   0.99074   0.20622   0.00000  Uiso   1.00
H338   H     0.32026   0.96459   0.17954   0.00000  Uiso   1.00
H339   H     0.01780   0.51845   0.18670   0.00000  Uiso   1.00
H340   H     0.03338   0.97655   0.23262   0.00000  Uiso   1.00
H341   H     0.30799   0.53334   0.25998   0.00000  Uiso   1.00
H342   H     0.27820   0.97920   0.25378   0.00000  Uiso   1.00
H343   H     0.22878   0.50025   0.17352   0.00000  Uiso   1.00
H344   H     0.26269   0.55106   0.17442   0.00000  Uiso   1.00
C345   C     0.19957   0.97499   0.34600   0.00000  Uiso   1.00
C346   C     0.25280   0.99722   0.35087   0.00000  Uiso   1.00
C347   C     0.26819   0.51619   0.40205   0.00000  Uiso   1.00
H348   H     0.23956   0.54132   0.41032   0.00000  Uiso   1.00
H349   H     0.27054   0.98939   0.42966   0.00000  Uiso   1.00
H350   H     0.30664   0.53233   0.40434   0.00000  Uiso   1.00
H351   H     0.28233   0.97260   0.34333   0.00000  Uiso   1.00
H352   H     0.25226   0.52479   0.32450   0.00000  Uiso   1.00
H353   H     0.16975   0.99951   0.35258   0.00000  Uiso   1.00
H354   H     0.20025   0.95022   0.37574   0.00000  Uiso   1.00
C355   C     0.22059   0.82307   0.03740   0.00000  Uiso   1.00
C356   C     0.27163   0.80929   0.02036   0.00000  Uiso   1.00
C357   C     0.30065   0.84937   0.00452   0.00000  Uiso   1.00
H358   H     0.27677   0.86674   0.47399   0.00000  Uiso   1.00
H359   H     0.31036   0.87272   0.03557   0.00000  Uiso   1.00
H360   H     0.00378   0.83827   0.49196   0.00000  Uiso   1.00
H361   H     0.29655   0.79231   0.05055   0.00000  Uiso   1.00
H362   H     0.26401   0.78632   0.48883   0.00000  Uiso   1.00
H363   H     0.19478   0.83866   0.00697   0.00000  Uiso   1.00
H364   H     0.22901   0.84920   0.06586   0.00000  Uiso   1.00
C365   C     0.22166   0.67762   0.47707   0.00000  Uiso   1.00
C366   C     0.27274   0.69211   0.00712   0.00000  Uiso   1.00
C367   C     0.30274   0.65247   0.03046   0.00000  Uiso   1.00
H368   H     0.27955   0.63481   0.05508   0.00000  Uiso   1.00
H369   H     0.31242   0.62921   0.00189   0.00000  Uiso   1.00
H370   H     0.00593   0.66409   0.05220   0.00000  Uiso   1.00
H371   H     0.29704   0.70945   0.48320   0.00000  Uiso   1.00
H372   H     0.26504   0.71497   0.03670   0.00000  Uiso   1.00
H373   H     0.19632   0.66190   0.00106   0.00000  Uiso   1.00
H374   H     0.23014   0.65142   0.45094   0.00000  Uiso   1.00
H375   H     0.11932   0.69302   0.11696   0.00000  Uiso   1.00
H376   H     0.11896   0.80670   0.37042   0.00000  Uiso   1.00
C377   C     0.50016   0.66503   0.24991   0.00000  Uiso   1.00
C378   C     0.50031   0.83518   0.25018   0.00000  Uiso   1.00
C379   C     0.52667   0.78441   0.05771   0.00000  Uiso   1.00
C380   C     0.52705   0.71586   0.44942   0.00000  Uiso   1.00
C381   C     0.52595   0.78255   0.10877   0.00000  Uiso   1.00
C382   C     0.52623   0.71766   0.39815   0.00000  Uiso   1.00
C383   C     0.47383   0.71834   0.10057   0.00000  Uiso   1.00
C384   C     0.47362   0.78150   0.39245   0.00000  Uiso   1.00
C385   C     0.47387   0.71813   0.04978   0.00000  Uiso   1.00
C386   C     0.47362   0.78171   0.44325   0.00000  Uiso   1.00
C387   C     0.50089   0.75075   0.02739   0.00000  Uiso   1.00
C388   C     0.50091   0.74930   0.47285   0.00000  Uiso   1.00
C389   C     0.40119   0.74999   0.23751   0.00000  Uiso   1.00
C390   C     0.59881   0.75000   0.26249   0.00000  Uiso   1.00
C391   C     0.34589   0.75000   0.23060   0.00000  Uiso   1.00
C392   C     0.65411   0.75000   0.26939   0.00000  Uiso   1.00
C393   C     0.46898   0.54729   0.27410   0.00000  Uiso   1.00
C394   C     0.48950   0.95333   0.20874   0.00000  Uiso   1.00
C395   C     0.46780   0.59320   0.27459   0.00000  Uiso   1.00
C396   C     0.48828   0.90741   0.20781   0.00000  Uiso   1.00
C397   C     0.50159   0.61700   0.24973   0.00000  Uiso   1.00
C398   C     0.50166   0.88360   0.25094   0.00000  Uiso   1.00
C399   C     0.53688   0.59495   0.22457   0.00000  Uiso   1.00
C400   C     0.51619   0.90619   0.29511   0.00000  Uiso   1.00
C401   C     0.54006   0.54865   0.22520   0.00000  Uiso   1.00
C402   C     0.51829   0.95253   0.29669   0.00000  Uiso   1.00
C403   C     0.50566   0.52470   0.25087   0.00000  Uiso   1.00
C404   C     0.50548   0.97618   0.25242   0.00000  Uiso   1.00
Cu405  Cu    0.50000   0.75000   0.29822   0.00000  Uiso   1.00
Cu406  Cu    0.50000   0.75001   0.20179   0.00000  Uiso   1.00
H407   H     0.65912   0.75000   0.19343   0.00000  Uiso   1.00
H408   H     0.34088   0.75000   0.30656   0.00000  Uiso   1.00
H409   H     0.43981   0.61015   0.29344   0.00000  Uiso   1.00
H410   H     0.47618   0.89057   0.17347   0.00000  Uiso   1.00
H411   H     0.54624   0.80747   0.13230   0.00000  Uiso   1.00
H412   H     0.54674   0.69290   0.38003   0.00000  Uiso   1.00
H413   H     0.45249   0.69262   0.02791   0.00000  Uiso   1.00
H414   H     0.45203   0.80707   0.45942   0.00000  Uiso   1.00
N415   N     0.50000   0.75001   0.12935   0.00000  Uiso   1.00
N416   N     0.50000   0.74999   0.37066   0.00000  Uiso   1.00
O417   O     0.50000   0.68573   0.29072   0.00000  Uiso   1.00
O418   O     0.50000   0.81428   0.20929   0.00000  Uiso   1.00
O419   O     0.50000   0.68573   0.20928   0.00000  Uiso   1.00
O420   O     0.50000   0.81427   0.29072   0.00000  Uiso   1.00
O421   O     0.42495   0.75000   0.28132   0.00000  Uiso   1.00
O422   O     0.57505   0.75001   0.21868   0.00000  Uiso   1.00
O423   O     0.42495   0.75000   0.19989   0.00000  Uiso   1.00
O424   O     0.57505   0.75000   0.30012   0.00000  Uiso   1.00
H425   H     0.44119   0.52923   0.29202   0.00000  Uiso   1.00
H426   H     0.47768   0.97124   0.17517   0.00000  Uiso   1.00
H427   H     0.56282   0.61411   0.20549   0.00000  Uiso   1.00
H428   H     0.52634   0.88758   0.32848   0.00000  Uiso   1.00
C429   C     0.58016   0.52654   0.19831   0.00000  Uiso   1.00
C430   C     0.62526   0.50740   0.23348   0.00000  Uiso   1.00
C431   C     0.33510   0.99074   0.20622   0.00000  Uiso   1.00
H432   H     0.65360   0.96459   0.17954   0.00000  Uiso   1.00
H433   H     0.35113   0.51845   0.18670   0.00000  Uiso   1.00
H434   H     0.36672   0.97655   0.23262   0.00000  Uiso   1.00
H435   H     0.64132   0.53334   0.25998   0.00000  Uiso   1.00
H436   H     0.61153   0.97920   0.25378   0.00000  Uiso   1.00
H437   H     0.56211   0.50025   0.17352   0.00000  Uiso   1.00
H438   H     0.59602   0.55106   0.17442   0.00000  Uiso   1.00
C439   C     0.53291   0.97499   0.34600   0.00000  Uiso   1.00
C440   C     0.58613   0.99722   0.35087   0.00000  Uiso   1.00
C441   C     0.60152   0.51619   0.40205   0.00000  Uiso   1.00
H442   H     0.57289   0.54132   0.41032   0.00000  Uiso   1.00
H443   H     0.60388   0.98939   0.42966   0.00000  Uiso   1.00
H444   H     0.63997   0.53233   0.40434   0.00000  Uiso   1.00
H445   H     0.61566   0.97260   0.34333   0.00000  Uiso   1.00
H446   H     0.58559   0.52479   0.32450   0.00000  Uiso   1.00
H447   H     0.50308   0.99951   0.35258   0.00000  Uiso   1.00
H448   H     0.53359   0.95022   0.37574   0.00000  Uiso   1.00
C449   C     0.55393   0.82307   0.03740   0.00000  Uiso   1.00
C450   C     0.60497   0.80929   0.02036   0.00000  Uiso   1.00
C451   C     0.63398   0.84937   0.00452   0.00000  Uiso   1.00
H452   H     0.61010   0.86674   0.47399   0.00000  Uiso   1.00
H453   H     0.64370   0.87272   0.03557   0.00000  Uiso   1.00
H454   H     0.33712   0.83827   0.49196   0.00000  Uiso   1.00
H455   H     0.62988   0.79231   0.05055   0.00000  Uiso   1.00
H456   H     0.59735   0.78632   0.48883   0.00000  Uiso   1.00
H457   H     0.52812   0.83866   0.00697   0.00000  Uiso   1.00
H458   H     0.56234   0.84920   0.06586   0.00000  Uiso   1.00
C459   C     0.55499   0.67762   0.47707   0.00000  Uiso   1.00
C460   C     0.60607   0.69211   0.00712   0.00000  Uiso   1.00
C461   C     0.63607   0.65247   0.03046   0.00000  Uiso   1.00
H462   H     0.61289   0.63481   0.05508   0.00000  Uiso   1.00
H463   H     0.64575   0.62921   0.00189   0.00000  Uiso   1.00
H464   H     0.33926   0.66409   0.05220   0.00000  Uiso   1.00
H465   H     0.63037   0.70945   0.48320   0.00000  Uiso   1.00
H466   H     0.59838   0.71497   0.03670   0.00000  Uiso   1.00
H467   H     0.52965   0.66190   0.00106   0.00000  Uiso   1.00
H468   H     0.56347   0.65142   0.45094   0.00000  Uiso   1.00
H469   H     0.45265   0.69302   0.11696   0.00000  Uiso   1.00
H470   H     0.45229   0.80670   0.37042   0.00000  Uiso   1.00
C471   C     0.83350   0.66503   0.24991   0.00000  Uiso   1.00
C472   C     0.83364   0.83518   0.25018   0.00000  Uiso   1.00
C473   C     0.86000   0.78441   0.05771   0.00000  Uiso   1.00
C474   C     0.86038   0.71586   0.44942   0.00000  Uiso   1.00
C475   C     0.85928   0.78255   0.10877   0.00000  Uiso   1.00
C476   C     0.85957   0.71766   0.39815   0.00000  Uiso   1.00
C477   C     0.80716   0.71834   0.10057   0.00000  Uiso   1.00
C478   C     0.80695   0.78150   0.39245   0.00000  Uiso   1.00
C479   C     0.80720   0.71813   0.04978   0.00000  Uiso   1.00
C480   C     0.80696   0.78171   0.44325   0.00000  Uiso   1.00
C481   C     0.83422   0.75075   0.02739   0.00000  Uiso   1.00
C482   C     0.83424   0.74930   0.47285   0.00000  Uiso   1.00
C483   C     0.73452   0.74999   0.23751   0.00000  Uiso   1.00
C484   C     0.93214   0.75000   0.26249   0.00000  Uiso   1.00
C485   C     0.67922   0.75000   0.23060   0.00000  Uiso   1.00
C486   C     0.98744   0.75000   0.26939   0.00000  Uiso   1.00
C487   C     0.80231   0.54729   0.27410   0.00000  Uiso   1.00
C488   C     0.82283   0.95333   0.20874   0.00000  Uiso   1.00
C489   C     0.80113   0.59320   0.27459   0.00000  Uiso   1.00
C490   C     0.82161   0.90741   0.20781   0.00000  Uiso   1.00
C491   C     0.83492   0.61700   0.24973   0.00000  Uiso   1.00
C492   C     0.83499   0.88360   0.25094   0.00000  Uiso   1.00
C493   C     0.87021   0.59495   0.22457   0.00000  Uiso   1.00
C494   C     0.84952   0.90619   0.29511   0.00000  Uiso   1.00
C495   C     0.87339   0.54865   0.22520   0.00000  Uiso   1.00
C496   C     0.85163   0.95253   0.29669   0.00000  Uiso   1.00
C497   C     0.83899   0.52470   0.25087   0.00000  Uiso   1.00
C498   C     0.83881   0.97618   0.25242   0.00000  Uiso   1.00
Cu499  Cu    0.83333   0.75000   0.29822   0.00000  Uiso   1.00
Cu500  Cu    0.83333   0.75001   0.20179   0.00000  Uiso   1.00
H501   H     0.99245   0.75000   0.19343   0.00000  Uiso   1.00
H502   H     0.67421   0.75000   0.30656   0.00000  Uiso   1.00
H503   H     0.77314   0.61015   0.29344   0.00000  Uiso   1.00
H504   H     0.80951   0.89057   0.17347   0.00000  Uiso   1.00
H505   H     0.87957   0.80747   0.13230   0.00000  Uiso   1.00
H506   H     0.88008   0.69290   0.38003   0.00000  Uiso   1.00
H507   H     0.78582   0.69262   0.02791   0.00000  Uiso   1.00
H508   H     0.78537   0.80707   0.45942   0.00000  Uiso   1.00
N509   N     0.83333   0.75001   0.12935   0.00000  Uiso   1.00
N510   N     0.83333   0.74999   0.37066   0.00000  Uiso   1.00
O511   O     0.83334   0.68573   0.29072   0.00000  Uiso   1.00
O512   O     0.83333   0.81428   0.20929   0.00000  Uiso   1.00
O513   O     0.83334   0.68573   0.20928   0.00000  Uiso   1.00
O514   O     0.83333   0.81427   0.29072   0.00000  Uiso   1.00
O515   O     0.75828   0.75000   0.28132   0.00000  Uiso   1.00
O516   O     0.90839   0.75001   0.21868   0.00000  Uiso   1.00
O517   O     0.75828   0.75000   0.19989   0.00000  Uiso   1.00
O518   O     0.90839   0.75000   0.30012   0.00000  Uiso   1.00
H519   H     0.77452   0.52923   0.29202   0.00000  Uiso   1.00
H520   H     0.81102   0.97124   0.17517   0.00000  Uiso   1.00
H521   H     0.89616   0.61411   0.20549   0.00000  Uiso   1.00
H522   H     0.85968   0.88758   0.32848   0.00000  Uiso   1.00
C523   C     0.91349   0.52654   0.19831   0.00000  Uiso   1.00
C524   C     0.95859   0.50740   0.23348   0.00000  Uiso   1.00
C525   C     0.66843   0.99074   0.20622   0.00000  Uiso   1.00
H526   H     0.98693   0.96459   0.17954   0.00000  Uiso   1.00
H527   H     0.68447   0.51845   0.18670   0.00000  Uiso   1.00
H528   H     0.70005   0.97655   0.23262   0.00000  Uiso   1.00
H529   H     0.97465   0.53334   0.25998   0.00000  Uiso   1.00
H530   H     0.94486   0.97920   0.25378   0.00000  Uiso   1.00
H531   H     0.89545   0.50025   0.17352   0.00000  Uiso   1.00
H532   H     0.92935   0.55106   0.17442   0.00000  Uiso   1.00
C533   C     0.86624   0.97499   0.34600   0.00000  Uiso   1.00
C534   C     0.91947   0.99722   0.35087   0.00000  Uiso   1.00
C535   C     0.93485   0.51619   0.40205   0.00000  Uiso   1.00
H536   H     0.90623   0.54132   0.41032   0.00000  Uiso   1.00
H537   H     0.93721   0.98939   0.42966   0.00000  Uiso   1.00
H538   H     0.97330   0.53233   0.40434   0.00000  Uiso   1.00
H539   H     0.94900   0.97260   0.34333   0.00000  Uiso   1.00
H540   H     0.91893   0.52479   0.32450   0.00000  Uiso   1.00
H541   H     0.83642   0.99951   0.35258   0.00000  Uiso   1.00
H542   H     0.86692   0.95022   0.37574   0.00000  Uiso   1.00
C543   C     0.88726   0.82307   0.03740   0.00000  Uiso   1.00
C544   C     0.93830   0.80929   0.02036   0.00000  Uiso   1.00
C545   C     0.96732   0.84937   0.00452   0.00000  Uiso   1.00
H546   H     0.94343   0.86674   0.47399   0.00000  Uiso   1.00
H547   H     0.97703   0.87272   0.03557   0.00000  Uiso   1.00
H548   H     0.67045   0.83827   0.49196   0.00000  Uiso   1.00
H549   H     0.96322   0.79231   0.05055   0.00000  Uiso   1.00
H550   H     0.93068   0.78632   0.48883   0.00000  Uiso   1.00
H551   H     0.86145   0.83866   0.00697   0.00000  Uiso   1.00
H552   H     0.89568   0.84920   0.06586   0.00000  Uiso   1.00
C553   C     0.88832   0.67762   0.47707   0.00000  Uiso   1.00
C554   C     0.93940   0.69211   0.00712   0.00000  Uiso   1.00
C555   C     0.96940   0.65247   0.03046   0.00000  Uiso   1.00
H556   H     0.94622   0.63481   0.05508   0.00000  Uiso   1.00
H557   H     0.97909   0.62921   0.00189   0.00000  Uiso   1.00
H558   H     0.67259   0.66409   0.05220   0.00000  Uiso   1.00
H559   H     0.96370   0.70945   0.48320   0.00000  Uiso   1.00
H560   H     0.93171   0.71497   0.03670   0.00000  Uiso   1.00
H561   H     0.86299   0.66190   0.00106   0.00000  Uiso   1.00
H562   H     0.89681   0.65142   0.45094   0.00000  Uiso   1.00
H563   H     0.78598   0.69302   0.11696   0.00000  Uiso   1.00
H564   H     0.78563   0.80670   0.37042   0.00000  Uiso   1.00
C565   C     0.16683   0.16503   0.74991   0.00000  Uiso   1.00
C566   C     0.16698   0.33518   0.75018   0.00000  Uiso   1.00
C567   C     0.19334   0.28441   0.55771   0.00000  Uiso   1.00
C568   C     0.19371   0.21586   0.94942   0.00000  Uiso   1.00
C569   C     0.19261   0.28255   0.60877   0.00000  Uiso   1.00
C570   C     0.19290   0.21766   0.89815   0.00000  Uiso   1.00
C571   C     0.14049   0.21834   0.60057   0.00000  Uiso   1.00
C572   C     0.14028   0.28150   0.89245   0.00000  Uiso   1.00
C573   C     0.14053   0.21813   0.54978   0.00000  Uiso   1.00
C574   C     0.14029   0.28171   0.94325   0.00000  Uiso   1.00
C575   C     0.16756   0.25075   0.52739   0.00000  Uiso   1.00
C576   C     0.16757   0.24930   0.97285   0.00000  Uiso   1.00
C577   C     0.06785   0.24999   0.73751   0.00000  Uiso   1.00
C578   C     0.26548   0.25000   0.76249   0.00000  Uiso   1.00
C579   C     0.01255   0.25000   0.73060   0.00000  Uiso   1.00
C580   C     0.32077   0.25000   0.76939   0.00000  Uiso   1.00
C581   C     0.13565   0.04729   0.77410   0.00000  Uiso   1.00
C582   C     0.15616   0.45333   0.70874   0.00000  Uiso   1.00
C583   C     0.13447   0.09320   0.77459   0.00000  Uiso   1.00
C584   C     0.15494   0.40741   0.70781   0.00000  Uiso   1.00
C585   C     0.16826   0.11700   0.74973   0.00000  Uiso   1.00
C586   C     0.16832   0.38360   0.75094   0.00000  Uiso   1.00
C587   C     0.20354   0.09495   0.72457   0.00000  Uiso   1.00
C588   C     0.18285   0.40619   0.79511   0.00000  Uiso   1.00
C589   C     0.20673   0.04865   0.72520   0.00000  Uiso   1.00
C590   C     0.18496   0.45253   0.79669   0.00000  Uiso   1.00
C591   C     0.17232   0.02470   0.75087   0.00000  Uiso   1.00
C592   C     0.17214   0.47618   0.75242   0.00000  Uiso   1.00
Cu593  Cu    0.16667   0.25000   0.79822   0.00000  Uiso   1.00
Cu594  Cu    0.16667   0.25001   0.70179   0.00000  Uiso   1.00
H595   H     0.32578   0.25000   0.69343   0.00000  Uiso   1.00
H596   H     0.00755   0.25000   0.80656   0.00000  Uiso   1.00
H597   H     0.10648   0.11015   0.79344   0.00000  Uiso   1.00
H598   H     0.14284   0.39057   0.67347   0.00000  Uiso   1.00
H599   H     0.21291   0.30747   0.63230   0.00000  Uiso   1.00
H600   H     0.21341   0.19290   0.88003   0.00000  Uiso   1.00
H601   H     0.11915   0.19262   0.52791   0.00000  Uiso   1.00
H602   H     0.11870   0.30707   0.95942   0.00000  Uiso   1.00
N603   N     0.16667   0.25001   0.62935   0.00000  Uiso   1.00
N604   N     0.16667   0.24999   0.87066   0.00000  Uiso   1.00
O605   O     0.16667   0.18573   0.79072   0.00000  Uiso   1.00
O606   O     0.16666   0.31428   0.70929   0.00000  Uiso   1.00
O607   O     0.16667   0.18573   0.70928   0.00000  Uiso   1.00
O608   O     0.16666   0.31427   0.79072   0.00000  Uiso   1.00
O609   O     0.09161   0.25000   0.78132   0.00000  Uiso   1.00
O610   O     0.24172   0.25001   0.71868   0.00000  Uiso   1.00
O611   O     0.09161   0.25000   0.69989   0.00000  Uiso   1.00
O612   O     0.24172   0.25000   0.80012   0.00000  Uiso   1.00
H613   H     0.10785   0.02923   0.79202   0.00000  Uiso   1.00
H614   H     0.14435   0.47124   0.67517   0.00000  Uiso   1.00
H615   H     0.22949   0.11411   0.70549   0.00000  Uiso   1.00
H616   H     0.19301   0.38758   0.82848   0.00000  Uiso   1.00
C617   C     0.24683   0.02654   0.69831   0.00000  Uiso   1.00
C618   C     0.29192   0.00740   0.73348   0.00000  Uiso   1.00
C619   C     0.00176   0.49074   0.70622   0.00000  Uiso   1.00
H620   H     0.32026   0.46459   0.67954   0.00000  Uiso   1.00
H621   H     0.01780   0.01845   0.68670   0.00000  Uiso   1.00
H622   H     0.03338   0.47655   0.73262   0.00000  Uiso   1.00
H623   H     0.30799   0.03334   0.75998   0.00000  Uiso   1.00
H624   H     0.27820   0.47920   0.75378   0.00000  Uiso   1.00
H625   H     0.22878   0.00025   0.67352   0.00000  Uiso   1.00
H626   H     0.26269   0.05106   0.67442   0.00000  Uiso   1.00
C627   C     0.19957   0.47499   0.84600   0.00000  Uiso   1.00
C628   C     0.25280   0.49722   0.85087   0.00000  Uiso   1.00
C629   C     0.26819   0.01619   0.90205   0.00000  Uiso   1.00
H630   H     0.23956   0.04132   0.91032   0.00000  Uiso   1.00
H631   H     0.27054   0.48939   0.92966   0.00000  Uiso   1.00
H632   H     0.30664   0.03233   0.90434   0.00000  Uiso   1.00
H633   H     0.28233   0.47260   0.84333   0.00000  Uiso   1.00
H634   H     0.25226   0.02479   0.82450   0.00000  Uiso   1.00
H635   H     0.16975   0.49951   0.85258   0.00000  Uiso   1.00
H636   H     0.20025   0.45022   0.87574   0.00000  Uiso   1.00
C637   C     0.22059   0.32307   0.53740   0.00000  Uiso   1.00
C638   C     0.27163   0.30929   0.52036   0.00000  Uiso   1.00
C639   C     0.30065   0.34937   0.50452   0.00000  Uiso   1.00
H640   H     0.27677   0.36674   0.97399   0.00000  Uiso   1.00
H641   H     0.31036   0.37272   0.53557   0.00000  Uiso   1.00
H642   H     0.00378   0.33827   0.99196   0.00000  Uiso   1.00
H643   H     0.29655   0.29231   0.55055   0.00000  Uiso   1.00
H644   H     0.26401   0.28632   0.98883   0.00000  Uiso   1.00
H645   H     0.19478   0.33866   0.50697   0.00000  Uiso   1.00
H646   H     0.22901   0.34920   0.56586   0.00000  Uiso   1.00
C647   C     0.22166   0.17762   0.97707   0.00000  Uiso   1.00
C648   C     0.27274   0.19211   0.50712   0.00000  Uiso   1.00
C649   C     0.30274   0.15247   0.53046   0.00000  Uiso   1.00
H650   H     0.27955   0.13481   0.55508   0.00000  Uiso   1.00
H651   H     0.31242   0.12921   0.50189   0.00000  Uiso   1.00
H652   H     0.00593   0.16409   0.55220   0.00000  Uiso   1.00
H653   H     0.29704   0.20945   0.98320   0.00000  Uiso   1.00
H654   H     0.26504   0.21497   0.53670   0.00000  Uiso   1.00
H655   H     0.19632   0.16190   0.50106   0.00000  Uiso   1.00
H656   H     0.23014   0.15142   0.95094   0.00000  Uiso   1.00
H657   H     0.11932   0.19302   0.61696   0.00000  Uiso   1.00
H658   H     0.11896   0.30670   0.87042   0.00000  Uiso   1.00
C659   C     0.50016   0.16503   0.74991   0.00000  Uiso   1.00
C660   C     0.50031   0.33518   0.75018   0.00000  Uiso   1.00
C661   C     0.52667   0.28441   0.55771   0.00000  Uiso   1.00
C662   C     0.52705   0.21586   0.94942   0.00000  Uiso   1.00
C663   C     0.52595   0.28255   0.60877   0.00000  Uiso   1.00
C664   C     0.52623   0.21766   0.89815   0.00000  Uiso   1.00
C665   C     0.47383   0.21834   0.60057   0.00000  Uiso   1.00
C666   C     0.47362   0.28150   0.89245   0.00000  Uiso   1.00
C667   C     0.47387   0.21813   0.54978   0.00000  Uiso   1.00
C668   C     0.47362   0.28171   0.94325   0.00000  Uiso   1.00
C669   C     0.50089   0.25075   0.52739   0.00000  Uiso   1.00
C670   C     0.50091   0.24930   0.97285   0.00000  Uiso   1.00
C671   C     0.40119   0.24999   0.73751   0.00000  Uiso   1.00
C672   C     0.59881   0.25000   0.76249   0.00000  Uiso   1.00
C673   C     0.34589   0.25000   0.73060   0.00000  Uiso   1.00
C674   C     0.65411   0.25000   0.76939   0.00000  Uiso   1.00
C675   C     0.46898   0.04729   0.77410   0.00000  Uiso   1.00
C676   C     0.48950   0.45333   0.70874   0.00000  Uiso   1.00
C677   C     0.46780   0.09320   0.77459   0.00000  Uiso   1.00
C678   C     0.48828   0.40741   0.70781   0.00000  Uiso   1.00
C679   C     0.50159   0.11700   0.74973   0.00000  Uiso   1.00
C680   C     0.50166   0.38360   0.75094   0.00000  Uiso   1.00
C681   C     0.53688   0.09495   0.72457   0.00000  Uiso   1.00
C682   C     0.51619   0.40619   0.79511   0.00000  Uiso   1.00
C683   C     0.54006   0.04865   0.72520   0.00000  Uiso   1.00
C684   C     0.51829   0.45253   0.79669   0.00000  Uiso   1.00
C685   C     0.50566   0.02470   0.75087   0.00000  Uiso   1.00
C686   C     0.50548   0.47618   0.75242   0.00000  Uiso   1.00
Cu687  Cu    0.50000   0.25000   0.79822   0.00000  Uiso   1.00
Cu688  Cu    0.50000   0.25001   0.70179   0.00000  Uiso   1.00
H689   H     0.65912   0.25000   0.69343   0.00000  Uiso   1.00
H690   H     0.34088   0.25000   0.80656   0.00000  Uiso   1.00
H691   H     0.43981   0.11015   0.79344   0.00000  Uiso   1.00
H692   H     0.47618   0.39057   0.67347   0.00000  Uiso   1.00
H693   H     0.54624   0.30747   0.63230   0.00000  Uiso   1.00
H694   H     0.54674   0.19290   0.88003   0.00000  Uiso   1.00
H695   H     0.45249   0.19262   0.52791   0.00000  Uiso   1.00
H696   H     0.45203   0.30707   0.95942   0.00000  Uiso   1.00
N697   N     0.50000   0.25001   0.62935   0.00000  Uiso   1.00
N698   N     0.50000   0.24999   0.87066   0.00000  Uiso   1.00
O699   O     0.50000   0.18573   0.79072   0.00000  Uiso   1.00
O700   O     0.50000   0.31428   0.70929   0.00000  Uiso   1.00
O701   O     0.50000   0.18573   0.70928   0.00000  Uiso   1.00
O702   O     0.50000   0.31427   0.79072   0.00000  Uiso   1.00
O703   O     0.42495   0.25000   0.78132   0.00000  Uiso   1.00
O704   O     0.57505   0.25001   0.71868   0.00000  Uiso   1.00
O705   O     0.42495   0.25000   0.69989   0.00000  Uiso   1.00
O706   O     0.57505   0.25000   0.80012   0.00000  Uiso   1.00
H707   H     0.44119   0.02923   0.79202   0.00000  Uiso   1.00
H708   H     0.47768   0.47124   0.67517   0.00000  Uiso   1.00
H709   H     0.56282   0.11411   0.70549   0.00000  Uiso   1.00
H710   H     0.52634   0.38758   0.82848   0.00000  Uiso   1.00
C711   C     0.58016   0.02654   0.69831   0.00000  Uiso   1.00
C712   C     0.62526   0.00740   0.73348   0.00000  Uiso   1.00
C713   C     0.33510   0.49074   0.70622   0.00000  Uiso   1.00
H714   H     0.65360   0.46459   0.67954   0.00000  Uiso   1.00
H715   H     0.35113   0.01845   0.68670   0.00000  Uiso   1.00
H716   H     0.36672   0.47655   0.73262   0.00000  Uiso   1.00
H717   H     0.64132   0.03334   0.75998   0.00000  Uiso   1.00
H718   H     0.61153   0.47920   0.75378   0.00000  Uiso   1.00
H719   H     0.56211   0.00025   0.67352   0.00000  Uiso   1.00
H720   H     0.59602   0.05106   0.67442   0.00000  Uiso   1.00
C721   C     0.53291   0.47499   0.84600   0.00000  Uiso   1.00
C722   C     0.58613   0.49722   0.85087   0.00000  Uiso   1.00
C723   C     0.60152   0.01619   0.90205   0.00000  Uiso   1.00
H724   H     0.57289   0.04132   0.91032   0.00000  Uiso   1.00
H725   H     0.60388   0.48939   0.92966   0.00000  Uiso   1.00
H726   H     0.63997   0.03233   0.90434   0.00000  Uiso   1.00
H727   H     0.61566   0.47260   0.84333   0.00000  Uiso   1.00
H728   H     0.58559   0.02479   0.82450   0.00000  Uiso   1.00
H729   H     0.50308   0.49951   0.85258   0.00000  Uiso   1.00
H730   H     0.53359   0.45022   0.87574   0.00000  Uiso   1.00
C731   C     0.55393   0.32307   0.53740   0.00000  Uiso   1.00
C732   C     0.60497   0.30929   0.52036   0.00000  Uiso   1.00
C733   C     0.63398   0.34937   0.50452   0.00000  Uiso   1.00
H734   H     0.61010   0.36674   0.97399   0.00000  Uiso   1.00
H735   H     0.64370   0.37272   0.53557   0.00000  Uiso   1.00
H736   H     0.33712   0.33827   0.99196   0.00000  Uiso   1.00
H737   H     0.62988   0.29231   0.55055   0.00000  Uiso   1.00
H738   H     0.59735   0.28632   0.98883   0.00000  Uiso   1.00
H739   H     0.52812   0.33866   0.50697   0.00000  Uiso   1.00
H740   H     0.56234   0.34920   0.56586   0.00000  Uiso   1.00
C741   C     0.55499   0.17762   0.97707   0.00000  Uiso   1.00
C742   C     0.60607   0.19211   0.50712   0.00000  Uiso   1.00
C743   C     0.63607   0.15247   0.53046   0.00000  Uiso   1.00
H744   H     0.61289   0.13481   0.55508   0.00000  Uiso   1.00
H745   H     0.64575   0.12921   0.50189   0.00000  Uiso   1.00
H746   H     0.33926   0.16409   0.55220   0.00000  Uiso   1.00
H747   H     0.63037   0.20945   0.98320   0.00000  Uiso   1.00
H748   H     0.59838   0.21497   0.53670   0.00000  Uiso   1.00
H749   H     0.52965   0.16190   0.50106   0.00000  Uiso   1.00
H750   H     0.56347   0.15142   0.95094   0.00000  Uiso   1.00
H751   H     0.45265   0.19302   0.61696   0.00000  Uiso   1.00
H752   H     0.45229   0.30670   0.87042   0.00000  Uiso   1.00
C753   C     0.83350   0.16503   0.74991   0.00000  Uiso   1.00
C754   C     0.83364   0.33518   0.75018   0.00000  Uiso   1.00
C755   C     0.86000   0.28441   0.55771   0.00000  Uiso   1.00
C756   C     0.86038   0.21586   0.94942   0.00000  Uiso   1.00
C757   C     0.85928   0.28255   0.60877   0.00000  Uiso   1.00
C758   C     0.85957   0.21766   0.89815   0.00000  Uiso   1.00
C759   C     0.80716   0.21834   0.60057   0.00000  Uiso   1.00
C760   C     0.80695   0.28150   0.89245   0.00000  Uiso   1.00
C761   C     0.80720   0.21813   0.54978   0.00000  Uiso   1.00
C762   C     0.80696   0.28171   0.94325   0.00000  Uiso   1.00
C763   C     0.83422   0.25075   0.52739   0.00000  Uiso   1.00
C764   C     0.83424   0.24930   0.97285   0.00000  Uiso   1.00
C765   C     0.73452   0.24999   0.73751   0.00000  Uiso   1.00
C766   C     0.93214   0.25000   0.76249   0.00000  Uiso   1.00
C767   C     0.67922   0.25000   0.73060   0.00000  Uiso   1.00
C768   C     0.98744   0.25000   0.76939   0.00000  Uiso   1.00
C769   C     0.80231   0.04729   0.77410   0.00000  Uiso   1.00
C770   C     0.82283   0.45333   0.70874   0.00000  Uiso   1.00
C771   C     0.80113   0.09320   0.77459   0.00000  Uiso   1.00
C772   C     0.82161   0.40741   0.70781   0.00000  Uiso   1.00
C773   C     0.83492   0.11700   0.74973   0.00000  Uiso   1.00
C774   C     0.83499   0.38360   0.75094   0.00000  Uiso   1.00
C775   C     0.87021   0.09495   0.72457   0.00000  Uiso   1.00
C776   C     0.84952   0.40619   0.79511   0.00000  Uiso   1.00
C777   C     0.87339   0.04865   0.72520   0.00000  Uiso   1.00
C778   C     0.85163   0.45253   0.79669   0.00000  Uiso   1.00
C779   C     0.83899   0.02470   0.75087   0.00000  Uiso   1.00
C780   C     0.83881   0.47618   0.75242   0.00000  Uiso   1.00
Cu781  Cu    0.83333   0.25000   0.79822   0.00000  Uiso   1.00
Cu782  Cu    0.83333   0.25001   0.70179   0.00000  Uiso   1.00
H783   H     0.99245   0.25000   0.69343   0.00000  Uiso   1.00
H784   H     0.67421   0.25000   0.80656   0.00000  Uiso   1.00
H785   H     0.77314   0.11015   0.79344   0.00000  Uiso   1.00
H786   H     0.80951   0.39057   0.67347   0.00000  Uiso   1.00
H787   H     0.87957   0.30747   0.63230   0.00000  Uiso   1.00
H788   H     0.88008   0.19290   0.88003   0.00000  Uiso   1.00
H789   H     0.78582   0.19262   0.52791   0.00000  Uiso   1.00
H790   H     0.78537   0.30707   0.95942   0.00000  Uiso   1.00
N791   N     0.83333   0.25001   0.62935   0.00000  Uiso   1.00
N792   N     0.83333   0.24999   0.87066   0.00000  Uiso   1.00
O793   O     0.83334   0.18573   0.79072   0.00000  Uiso   1.00
O794   O     0.83333   0.31428   0.70929   0.00000  Uiso   1.00
O795   O     0.83334   0.18573   0.70928   0.00000  Uiso   1.00
O796   O     0.83333   0.31427   0.79072   0.00000  Uiso   1.00
O797   O     0.75828   0.25000   0.78132   0.00000  Uiso   1.00
O798   O     0.90839   0.25001   0.71868   0.00000  Uiso   1.00
O799   O     0.75828   0.25000   0.69989   0.00000  Uiso   1.00
O800   O     0.90839   0.25000   0.80012   0.00000  Uiso   1.00
H801   H     0.77452   0.02923   0.79202   0.00000  Uiso   1.00
H802   H     0.81102   0.47124   0.67517   0.00000  Uiso   1.00
H803   H     0.89616   0.11411   0.70549   0.00000  Uiso   1.00
H804   H     0.85968   0.38758   0.82848   0.00000  Uiso   1.00
C805   C     0.91349   0.02654   0.69831   0.00000  Uiso   1.00
C806   C     0.95859   0.00740   0.73348   0.00000  Uiso   1.00
C807   C     0.66843   0.49074   0.70622   0.00000  Uiso   1.00
H808   H     0.98693   0.46459   0.67954   0.00000  Uiso   1.00
H809   H     0.68447   0.01845   0.68670   0.00000  Uiso   1.00
H810   H     0.70005   0.47655   0.73262   0.00000  Uiso   1.00
H811   H     0.97465   0.03334   0.75998   0.00000  Uiso   1.00
H812   H     0.94486   0.47920   0.75378   0.00000  Uiso   1.00
H813   H     0.89545   0.00025   0.67352   0.00000  Uiso   1.00
H814   H     0.92935   0.05106   0.67442   0.00000  Uiso   1.00
C815   C     0.86624   0.47499   0.84600   0.00000  Uiso   1.00
C816   C     0.91947   0.49722   0.85087   0.00000  Uiso   1.00
C817   C     0.93485   0.01619   0.90205   0.00000  Uiso   1.00
H818   H     0.90623   0.04132   0.91032   0.00000  Uiso   1.00
H819   H     0.93721   0.48939   0.92966   0.00000  Uiso   1.00
H820   H     0.97330   0.03233   0.90434   0.00000  Uiso   1.00
H821   H     0.94900   0.47260   0.84333   0.00000  Uiso   1.00
H822   H     0.91893   0.02479   0.82450   0.00000  Uiso   1.00
H823   H     0.83642   0.49951   0.85258   0.00000  Uiso   1.00
H824   H     0.86692   0.45022   0.87574   0.00000  Uiso   1.00
C825   C     0.88726   0.32307   0.53740   0.00000  Uiso   1.00
C826   C     0.93830   0.30929   0.52036   0.00000  Uiso   1.00
C827   C     0.96732   0.34937   0.50452   0.00000  Uiso   1.00
H828   H     0.94343   0.36674   0.97399   0.00000  Uiso   1.00
H829   H     0.97703   0.37272   0.53557   0.00000  Uiso   1.00
H830   H     0.67045   0.33827   0.99196   0.00000  Uiso   1.00
H831   H     0.96322   0.29231   0.55055   0.00000  Uiso   1.00
H832   H     0.93068   0.28632   0.98883   0.00000  Uiso   1.00
H833   H     0.86145   0.33866   0.50697   0.00000  Uiso   1.00
H834   H     0.89568   0.34920   0.56586   0.00000  Uiso   1.00
C835   C     0.88832   0.17762   0.97707   0.00000  Uiso   1.00
C836   C     0.93940   0.19211   0.50712   0.00000  Uiso   1.00
C837   C     0.96940   0.15247   0.53046   0.00000  Uiso   1.00
H838   H     0.94622   0.13481   0.55508   0.00000  Uiso   1.00
H839   H     0.97909   0.12921   0.50189   0.00000  Uiso   1.00
H840   H     0.67259   0.16409   0.55220   0.00000  Uiso   1.00
H841   H     0.96370   0.20945   0.98320   0.00000  Uiso   1.00
H842   H     0.93171   0.21497   0.53670   0.00000  Uiso   1.00
H843   H     0.86299   0.16190   0.50106   0.00000  Uiso   1.00
H844   H     0.89681   0.15142   0.95094   0.00000  Uiso   1.00
H845   H     0.78598   0.19302   0.61696   0.00000  Uiso   1.00
H846   H     0.78563   0.30670   0.87042   0.00000  Uiso   1.00
C847   C     0.16683   0.66503   0.74991   0.00000  Uiso   1.00
C848   C     0.16698   0.83518   0.75018   0.00000  Uiso   1.00
C849   C     0.19334   0.78441   0.55771   0.00000  Uiso   1.00
C850   C     0.19371   0.71586   0.94942   0.00000  Uiso   1.00
C851   C     0.19261   0.78255   0.60877   0.00000  Uiso   1.00
C852   C     0.19290   0.71766   0.89815   0.00000  Uiso   1.00
C853   C     0.14049   0.71834   0.60057   0.00000  Uiso   1.00
C854   C     0.14028   0.78150   0.89245   0.00000  Uiso   1.00
C855   C     0.14053   0.71813   0.54978   0.00000  Uiso   1.00
C856   C     0.14029   0.78171   0.94325   0.00000  Uiso   1.00
C857   C     0.16756   0.75075   0.52739   0.00000  Uiso   1.00
C858   C     0.16757   0.74930   0.97285   0.00000  Uiso   1.00
C859   C     0.06785   0.74999   0.73751   0.00000  Uiso   1.00
C860   C     0.26548   0.75000   0.76249   0.00000  Uiso   1.00
C861   C     0.01255   0.75000   0.73060   0.00000  Uiso   1.00
C862   C     0.32077   0.75000   0.76939   0.00000  Uiso   1.00
C863   C     0.13565   0.54729   0.77410   0.00000  Uiso   1.00
C864   C     0.15616   0.95333   0.70874   0.00000  Uiso   1.00
C865   C     0.13447   0.59320   0.77459   0.00000  Uiso   1.00
C866   C     0.15494   0.90741   0.70781   0.00000  Uiso   1.00
C867   C     0.16826   0.61700   0.74973   0.00000  Uiso   1.00
C868   C     0.16832   0.88360   0.75094   0.00000  Uiso   1.00
C869   C     0.20354   0.59495   0.72457   0.00000  Uiso   1.00
C870   C     0.18285   0.90619   0.79511   0.00000  Uiso   1.00
C871   C     0.20673   0.54865   0.72520   0.00000  Uiso   1.00
C872   C     0.18496   0.95253   0.79669   0.00000  Uiso   1.00
C873   C     0.17232   0.52470   0.75087   0.00000  Uiso   1.00
C874   C     0.17214   0.97618   0.75242   0.00000  Uiso   1.00
Cu875  Cu    0.16667   0.75000   0.79822   0.00000  Uiso   1.00
Cu876  Cu    0.16667   0.75001   0.70179   0.00000  Uiso   1.00
H877   H     0.32578   0.75000   0.69343   0.00000  Uiso   1.00
H878   H     0.00755   0.75000   0.80656   0.00000  Uiso   1.00
H879   H     0.10648   0.61015   0.79344   0.00000  Uiso   1.00
H880   H     0.14284   0.89057   0.67347   0.00000  Uiso   1.00
H881   H     0.21291   0.80747   0.63230   0.00000  Uiso   1.00
H882   H     0.21341   0.69290   0.88003   0.00000  Uiso   1.00
H883   H     0.11915   0.69262   0.52791   0.00000  Uiso   1.00
H884   H     0.11870   0.80707   0.95942   0.00000  Uiso   1.00
N885   N     0.16667   0.75001   0.62935   0.00000  Uiso   1.00
N886   N     0.16667   0.74999   0.87066   0.00000  Uiso   1.00
O887   O     0.16667   0.68573   0.79072   0.00000  Uiso   1.00
O888   O     0.16666   0.81428   0.70929   0.00000  Uiso   1.00
O889   O     0.16667   0.68573   0.70928   0.00000  Uiso   1.00
O890   O     0.16666   0.81427   0.79072   0.00000  Uiso   1.00
O891   O     0.09161   0.75000   0.78132   0.00000  Uiso   1.00
O892   O     0.24172   0.75001   0.71868   0.00000  Uiso   1.00
O893   O     0.09161   0.75000   0.69989   0.00000  Uiso   1.00
O894   O     0.24172   0.75000   0.80012   0.00000  Uiso   1.00
H895   H     0.10785   0.52923   0.79202   0.00000  Uiso   1.00
H896   H     0.14435   0.97124   0.67517   0.00000  Uiso   1.00
H897   H     0.22949   0.61411   0.70549   0.00000  Uiso   1.00
H898   H     0.19301   0.88758   0.82848   0.00000  Uiso   1.00
C899   C     0.24683   0.52654   0.69831   0.00000  Uiso   1.00
C900   C     0.29192   0.50740   0.73348   0.00000  Uiso   1.00
C901   C     0.00176   0.99074   0.70622   0.00000  Uiso   1.00
H902   H     0.32026   0.96459   0.67954   0.00000  Uiso   1.00
H903   H     0.01780   0.51845   0.68670   0.00000  Uiso   1.00
H904   H     0.03338   0.97655   0.73262   0.00000  Uiso   1.00
H905   H     0.30799   0.53334   0.75998   0.00000  Uiso   1.00
H906   H     0.27820   0.97920   0.75378   0.00000  Uiso   1.00
H907   H     0.22878   0.50025   0.67352   0.00000  Uiso   1.00
H908   H     0.26269   0.55106   0.67442   0.00000  Uiso   1.00
C909   C     0.19957   0.97499   0.84600   0.00000  Uiso   1.00
C910   C     0.25280   0.99722   0.85087   0.00000  Uiso   1.00
C911   C     0.26819   0.51619   0.90205   0.00000  Uiso   1.00
H912   H     0.23956   0.54132   0.91032   0.00000  Uiso   1.00
H913   H     0.27054   0.98939   0.92966   0.00000  Uiso   1.00
H914   H     0.30664   0.53233   0.90434   0.00000  Uiso   1.00
H915   H     0.28233   0.97260   0.84333   0.00000  Uiso   1.00
H916   H     0.25226   0.52479   0.82450   0.00000  Uiso   1.00
H917   H     0.16975   0.99951   0.85258   0.00000  Uiso   1.00
H918   H     0.20025   0.95022   0.87574   0.00000  Uiso   1.00
C919   C     0.22059   0.82307   0.53740   0.00000  Uiso   1.00
C920   C     0.27163   0.80929   0.52036   0.00000  Uiso   1.00
C921   C     0.30065   0.84937   0.50452   0.00000  Uiso   1.00
H922   H     0.27677   0.86674   0.97399   0.00000  Uiso   1.00
H923   H     0.31036   0.87272   0.53557   0.00000  Uiso   1.00
H924   H     0.00378   0.83827   0.99196   0.00000  Uiso   1.00
H925   H     0.29655   0.79231   0.55055   0.00000  Uiso   1.00
H926   H     0.26401   0.78632   0.98883   0.00000  Uiso   1.00
H927   H     0.19478   0.83866   0.50697   0.00000  Uiso   1.00
H928   H     0.22901   0.84920   0.56586   0.00000  Uiso   1.00
C929   C     0.22166   0.67762   0.97707   0.00000  Uiso   1.00
C930   C     0.27274   0.69211   0.50712   0.00000  Uiso   1.00
C931   C     0.30274   0.65247   0.53046   0.00000  Uiso   1.00
H932   H     0.27955   0.63481   0.55508   0.00000  Uiso   1.00
H933   H     0.31242   0.62921   0.50189   0.00000  Uiso   1.00
H934   H     0.00593   0.66409   0.55220   0.00000  Uiso   1.00
H935   H     0.29704   0.70945   0.98320   0.00000  Uiso   1.00
H936   H     0.26504   0.71497   0.53670   0.00000  Uiso   1.00
H937   H     0.19632   0.66190   0.50106   0.00000  Uiso   1.00
H938   H     0.23014   0.65142   0.95094   0.00000  Uiso   1.00
H939   H     0.11932   0.69302   0.61696   0.00000  Uiso   1.00
H940   H     0.11896   0.80670   0.87042   0.00000  Uiso   1.00
C941   C     0.50016   0.66503   0.74991   0.00000  Uiso   1.00
C942   C     0.50031   0.83518   0.75018   0.00000  Uiso   1.00
C943   C     0.52667   0.78441   0.55771   0.00000  Uiso   1.00
C944   C     0.52705   0.71586   0.94942   0.00000  Uiso   1.00
C945   C     0.52595   0.78255   0.60877   0.00000  Uiso   1.00
C946   C     0.52623   0.71766   0.89815   0.00000  Uiso   1.00
C947   C     0.47383   0.71834   0.60057   0.00000  Uiso   1.00
C948   C     0.47362   0.78150   0.89245   0.00000  Uiso   1.00
C949   C     0.47387   0.71813   0.54978   0.00000  Uiso   1.00
C950   C     0.47362   0.78171   0.94325   0.00000  Uiso   1.00
C951   C     0.50089   0.75075   0.52739   0.00000  Uiso   1.00
C952   C     0.50091   0.74930   0.97285   0.00000  Uiso   1.00
C953   C     0.40119   0.74999   0.73751   0.00000  Uiso   1.00
C954   C     0.59881   0.75000   0.76249   0.00000  Uiso   1.00
C955   C     0.34589   0.75000   0.73060   0.00000  Uiso   1.00
C956   C     0.65411   0.75000   0.76939   0.00000  Uiso   1.00
C957   C     0.46898   0.54729   0.77410   0.00000  Uiso   1.00
C958   C     0.48950   0.95333   0.70874   0.00000  Uiso   1.00
C959   C     0.46780   0.59320   0.77459   0.00000  Uiso   1.00
C960   C     0.48828   0.90741   0.70781   0.00000  Uiso   1.00
C961   C     0.50159   0.61700   0.74973   0.00000  Uiso   1.00
C962   C     0.50166   0.88360   0.75094   0.00000  Uiso   1.00
C963   C     0.53688   0.59495   0.72457   0.00000  Uiso   1.00
C964   C     0.51619   0.90619   0.79511   0.00000  Uiso   1.00
C965   C     0.54006   0.54865   0.72520   0.00000  Uiso   1.00
C966   C     0.51829   0.95253   0.79669   0.00000  Uiso   1.00
C967   C     0.50566   0.52470   0.75087   0.00000  Uiso   1.00
C968   C     0.50548   0.97618   0.75242   0.00000  Uiso   1.00
Cu969  Cu    0.50000   0.75000   0.79822   0.00000  Uiso   1.00
Cu970  Cu    0.50000   0.75001   0.70179   0.00000  Uiso   1.00
H971   H     0.65912   0.75000   0.69343   0.00000  Uiso   1.00
H972   H     0.34088   0.75000   0.80656   0.00000  Uiso   1.00
H973   H     0.43981   0.61015   0.79344   0.00000  Uiso   1.00
H974   H     0.47618   0.89057   0.67347   0.00000  Uiso   1.00
H975   H     0.54624   0.80747   0.63230   0.00000  Uiso   1.00
H976   H     0.54674   0.69290   0.88003   0.00000  Uiso   1.00
H977   H     0.45249   0.69262   0.52791   0.00000  Uiso   1.00
H978   H     0.45203   0.80707   0.95942   0.00000  Uiso   1.00
N979   N     0.50000   0.75001   0.62935   0.00000  Uiso   1.00
N980   N     0.50000   0.74999   0.87066   0.00000  Uiso   1.00
O981   O     0.50000   0.68573   0.79072   0.00000  Uiso   1.00
O982   O     0.50000   0.81428   0.70929   0.00000  Uiso   1.00
O983   O     0.50000   0.68573   0.70928   0.00000  Uiso   1.00
O984   O     0.50000   0.81427   0.79072   0.00000  Uiso   1.00
O985   O     0.42495   0.75000   0.78132   0.00000  Uiso   1.00
O986   O     0.57505   0.75001   0.71868   0.00000  Uiso   1.00
O987   O     0.42495   0.75000   0.69989   0.00000  Uiso   1.00
O988   O     0.57505   0.75000   0.80012   0.00000  Uiso   1.00
H989   H     0.44119   0.52923   0.79202   0.00000  Uiso   1.00
H990   H     0.47768   0.97124   0.67517   0.00000  Uiso   1.00
H991   H     0.56282   0.61411   0.70549   0.00000  Uiso   1.00
H992   H     0.52634   0.88758   0.82848   0.00000  Uiso   1.00
C993   C     0.58016   0.52654   0.69831   0.00000  Uiso   1.00
C994   C     0.62526   0.50740   0.73348   0.00000  Uiso   1.00
C995   C     0.33510   0.99074   0.70622   0.00000  Uiso   1.00
H996   H     0.65360   0.96459   0.67954   0.00000  Uiso   1.00
H997   H     0.35113   0.51845   0.68670   0.00000  Uiso   1.00
H998   H     0.36672   0.97655   0.73262   0.00000  Uiso   1.00
H999   H     0.64132   0.53334   0.75998   0.00000  Uiso   1.00
H1000  H     0.61153   0.97920   0.75378   0.00000  Uiso   1.00
H1001  H     0.56211   0.50025   0.67352   0.00000  Uiso   1.00
H1002  H     0.59602   0.55106   0.67442   0.00000  Uiso   1.00
C1003  C     0.53291   0.97499   0.84600   0.00000  Uiso   1.00
C1004  C     0.58613   0.99722   0.85087   0.00000  Uiso   1.00
C1005  C     0.60152   0.51619   0.90205   0.00000  Uiso   1.00
H1006  H     0.57289   0.54132   0.91032   0.00000  Uiso   1.00
H1007  H     0.60388   0.98939   0.92966   0.00000  Uiso   1.00
H1008  H     0.63997   0.53233   0.90434   0.00000  Uiso   1.00
H1009  H     0.61566   0.97260   0.84333   0.00000  Uiso   1.00
H1010  H     0.58559   0.52479   0.82450   0.00000  Uiso   1.00
H1011  H     0.50308   0.99951   0.85258   0.00000  Uiso   1.00
H1012  H     0.53359   0.95022   0.87574   0.00000  Uiso   1.00
C1013  C     0.55393   0.82307   0.53740   0.00000  Uiso   1.00
C1014  C     0.60497   0.80929   0.52036   0.00000  Uiso   1.00
C1015  C     0.63398   0.84937   0.50452   0.00000  Uiso   1.00
H1016  H     0.61010   0.86674   0.97399   0.00000  Uiso   1.00
H1017  H     0.64370   0.87272   0.53557   0.00000  Uiso   1.00
H1018  H     0.33712   0.83827   0.99196   0.00000  Uiso   1.00
H1019  H     0.62988   0.79231   0.55055   0.00000  Uiso   1.00
H1020  H     0.59735   0.78632   0.98883   0.00000  Uiso   1.00
H1021  H     0.52812   0.83866   0.50697   0.00000  Uiso   1.00
H1022  H     0.56234   0.84920   0.56586   0.00000  Uiso   1.00
C1023  C     0.55499   0.67762   0.97707   0.00000  Uiso   1.00
C1024  C     0.60607   0.69211   0.50712   0.00000  Uiso   1.00
C1025  C     0.63607   0.65247   0.53046   0.00000  Uiso   1.00
H1026  H     0.61289   0.63481   0.55508   0.00000  Uiso   1.00
H1027  H     0.64575   0.62921   0.50189   0.00000  Uiso   1.00
H1028  H     0.33926   0.66409   0.55220   0.00000  Uiso   1.00
H1029  H     0.63037   0.70945   0.98320   0.00000  Uiso   1.00
H1030  H     0.59838   0.71497   0.53670   0.00000  Uiso   1.00
H1031  H     0.52965   0.66190   0.50106   0.00000  Uiso   1.00
H1032  H     0.56347   0.65142   0.95094   0.00000  Uiso   1.00
H1033  H     0.45265   0.69302   0.61696   0.00000  Uiso   1.00
H1034  H     0.45229   0.80670   0.87042   0.00000  Uiso   1.00
C1035  C     0.83350   0.66503   0.74991   0.00000  Uiso   1.00
C1036  C     0.83364   0.83518   0.75018   0.00000  Uiso   1.00
C1037  C     0.86000   0.78441   0.55771   0.00000  Uiso   1.00
C1038  C     0.86038   0.71586   0.94942   0.00000  Uiso   1.00
C1039  C     0.85928   0.78255   0.60877   0.00000  Uiso   1.00
C1040  C     0.85957   0.71766   0.89815   0.00000  Uiso   1.00
C1041  C     0.80716   0.71834   0.60057   0.00000  Uiso   1.00
C1042  C     0.80695   0.78150   0.89245   0.00000  Uiso   1.00
C1043  C     0.80720   0.71813   0.54978   0.00000  Uiso   1.00
C1044  C     0.80696   0.78171   0.94325   0.00000  Uiso   1.00
C1045  C     0.83422   0.75075   0.52739   0.00000  Uiso   1.00
C1046  C     0.83424   0.74930   0.97285   0.00000  Uiso   1.00
C1047  C     0.73452   0.74999   0.73751   0.00000  Uiso   1.00
C1048  C     0.93214   0.75000   0.76249   0.00000  Uiso   1.00
C1049  C     0.67922   0.75000   0.73060   0.00000  Uiso   1.00
C1050  C     0.98744   0.75000   0.76939   0.00000  Uiso   1.00
C1051  C     0.80231   0.54729   0.77410   0.00000  Uiso   1.00
C1052  C     0.82283   0.95333   0.70874   0.00000  Uiso   1.00
C1053  C     0.80113   0.59320   0.77459   0.00000  Uiso   1.00
C1054  C     0.82161   0.90741   0.70781   0.00000  Uiso   1.00
C1055  C     0.83492   0.61700   0.74973   0.00000  Uiso   1.00
C1056  C     0.83499   0.88360   0.75094   0.00000  Uiso   1.00
C1057  C     0.87021   0.59495   0.72457   0.00000  Uiso   1.00
C1058  C     0.84952   0.90619   0.79511   0.00000  Uiso   1.00
C1059  C     0.87339   0.54865   0.72520   0.00000  Uiso   1.00
C1060  C     0.85163   0.95253   0.79669   0.00000  Uiso   1.00
C1061  C     0.83899   0.52470   0.75087   0.00000  Uiso   1.00
C1062  C     0.83881   0.97618   0.75242   0.00000  Uiso   1.00
Cu1063 Cu    0.83333   0.75000   0.79822   0.00000  Uiso   1.00
Cu1064 Cu    0.83333   0.75001   0.70179   0.00000  Uiso   1.00
H1065  H     0.99245   0.75000   0.69343   0.00000  Uiso   1.00
H1066  H     0.67421   0.75000   0.80656   0.00000  Uiso   1.00
H1067  H     0.77314   0.61015   0.79344   0.00000  Uiso   1.00
H1068  H     0.80951   0.89057   0.67347   0.00000  Uiso   1.00
H1069  H     0.87957   0.80747   0.63230   0.00000  Uiso   1.00
H1070  H     0.88008   0.69290   0.88003   0.00000  Uiso   1.00
H1071  H     0.78582   0.69262   0.52791   0.00000  Uiso   1.00
H1072  H     0.78537   0.80707   0.95942   0.00000  Uiso   1.00
N1073  N     0.83333   0.75001   0.62935   0.00000  Uiso   1.00
N1074  N     0.83333   0.74999   0.87066   0.00000  Uiso   1.00
O1075  O     0.83334   0.68573   0.79072   0.00000  Uiso   1.00
O1076  O     0.83333   0.81428   0.70929   0.00000  Uiso   1.00
O1077  O     0.83334   0.68573   0.70928   0.00000  Uiso   1.00
O1078  O     0.83333   0.81427   0.79072   0.00000  Uiso   1.00
O1079  O     0.75828   0.75000   0.78132   0.00000  Uiso   1.00
O1080  O     0.90839   0.75001   0.71868   0.00000  Uiso   1.00
O1081  O     0.75828   0.75000   0.69989   0.00000  Uiso   1.00
O1082  O     0.90839   0.75000   0.80012   0.00000  Uiso   1.00
H1083  H     0.77452   0.52923   0.79202   0.00000  Uiso   1.00
H1084  H     0.81102   0.97124   0.67517   0.00000  Uiso   1.00
H1085  H     0.89616   0.61411   0.70549   0.00000  Uiso   1.00
H1086  H     0.85968   0.88758   0.82848   0.00000  Uiso   1.00
C1087  C     0.91349   0.52654   0.69831   0.00000  Uiso   1.00
C1088  C     0.95859   0.50740   0.73348   0.00000  Uiso   1.00
C1089  C     0.66843   0.99074   0.70622   0.00000  Uiso   1.00
H1090  H     0.98693   0.96459   0.67954   0.00000  Uiso   1.00
H1091  H     0.68447   0.51845   0.68670   0.00000  Uiso   1.00
H1092  H     0.70005   0.97655   0.73262   0.00000  Uiso   1.00
H1093  H     0.97465   0.53334   0.75998   0.00000  Uiso   1.00
H1094  H     0.94486   0.97920   0.75378   0.00000  Uiso   1.00
H1095  H     0.89545   0.50025   0.67352   0.00000  Uiso   1.00
H1096  H     0.92935   0.55106   0.67442   0.00000  Uiso   1.00
C1097  C     0.86624   0.97499   0.84600   0.00000  Uiso   1.00
C1098  C     0.91947   0.99722   0.85087   0.00000  Uiso   1.00
C1099  C     0.93485   0.51619   0.90205   0.00000  Uiso   1.00
H1100  H     0.90623   0.54132   0.91032   0.00000  Uiso   1.00
H1101  H     0.93721   0.98939   0.92966   0.00000  Uiso   1.00
H1102  H     0.97330   0.53233   0.90434   0.00000  Uiso   1.00
H1103  H     0.94900   0.97260   0.84333   0.00000  Uiso   1.00
H1104  H     0.91893   0.52479   0.82450   0.00000  Uiso   1.00
H1105  H     0.83642   0.99951   0.85258   0.00000  Uiso   1.00
H1106  H     0.86692   0.95022   0.87574   0.00000  Uiso   1.00
C1107  C     0.88726   0.82307   0.53740   0.00000  Uiso   1.00
C1108  C     0.93830   0.80929   0.52036   0.00000  Uiso   1.00
C1109  C     0.96732   0.84937   0.50452   0.00000  Uiso   1.00
H1110  H     0.94343   0.86674   0.97399   0.00000  Uiso   1.00
H1111  H     0.97703   0.87272   0.53557   0.00000  Uiso   1.00
H1112  H     0.67045   0.83827   0.99196   0.00000  Uiso   1.00
H1113  H     0.96322   0.79231   0.55055   0.00000  Uiso   1.00
H1114  H     0.93068   0.78632   0.98883   0.00000  Uiso   1.00
H1115  H     0.86145   0.83866   0.50697   0.00000  Uiso   1.00
H1116  H     0.89568   0.84920   0.56586   0.00000  Uiso   1.00
C1117  C     0.88832   0.67762   0.97707   0.00000  Uiso   1.00
C1118  C     0.93940   0.69211   0.50712   0.00000  Uiso   1.00
C1119  C     0.96940   0.65247   0.53046   0.00000  Uiso   1.00
H1120  H     0.94622   0.63481   0.55508   0.00000  Uiso   1.00
H1121  H     0.97909   0.62921   0.50189   0.00000  Uiso   1.00
H1122  H     0.67259   0.66409   0.55220   0.00000  Uiso   1.00
H1123  H     0.96370   0.70945   0.98320   0.00000  Uiso   1.00
H1124  H     0.93171   0.71497   0.53670   0.00000  Uiso   1.00
H1125  H     0.86299   0.66190   0.50106   0.00000  Uiso   1.00
H1126  H     0.89681   0.65142   0.95094   0.00000  Uiso   1.00
H1127  H     0.78598   0.69302   0.61696   0.00000  Uiso   1.00
H1128  H     0.78563   0.80670   0.87042   0.00000  Uiso   1.00
loop_
_geom_bond_atom_site_label_1
_geom_bond_atom_site_label_2
_geom_bond_distance
_geom_bond_site_symmetry_2
_ccdc_geom_bond_type
C1     C21     1.450   .     S
C1     O43     1.288   .     A
C1     O41     1.289   .     A
C2     O44     1.291   .     A
C2     C22     1.462   .     S
C2     O42     1.293   .     A
C3     C5      1.417   .     A
C3     C73     1.518   .     S
C3     C11     1.423   .     A
C4     C12     1.423   .     A
C4     C6      1.417   .     A
C4     C83     1.518   .     S
C5     N39     1.364   .     A
C5     H35     1.082   .     S
C6     N40     1.364   .     A
C6     H36     1.082   .     S
C7     H93     1.082   .     S
C7     C9      1.406   .     A
C7     N39     1.363   .     A
C8     H94     1.082   .     S
C8     C10     1.406   .     A
C8     N40     1.363   .     A
C9     C11     1.407   .     A
C9     H37     1.083   .     S
C10    C12     1.407   .     A
C10    H38     1.083   .     S
C11    C576    1.510   1_554 S
C12    C575    1.510   .     S
C13    O47     1.285   .     A
C13    C15     1.431   .     S
C13    O45     1.282   .     A
C14    O46     1.282   .     A
C14    O48     1.285   .     A
C14    C16     1.431   .     S
C15    C204    1.335   1_455 S
C15    H219    1.087   1_455 S
C16    C109    1.335   .     S
C16    H126    1.087   .     S
C17    C27     1.402   .     A
C17    H49     1.084   .     S
C17    C19     1.386   .     A
C18    C28     1.401   .     A
C18    H50     1.084   .     S
C18    C20     1.387   .     A
C19    C21     1.394   .     A
C19    H33     1.084   .     S
C20    H34     1.083   .     S
C20    C22     1.398   .     A
C21    C23     1.398   .     A
C22    C24     1.402   .     A
C23    H51     1.084   .     S
C23    C25     1.401   .     A
C24    H52     1.084   .     S
C24    C26     1.400   .     A
C25    C53     1.521   .     S
C25    C27     1.421   .     A
C26    C63     1.521   .     S
C26    C28     1.420   .     A
C27    C310    1.466   1_545 S
C28    C309    1.466   .     S
Cu29   O48     1.955   .     S
Cu29   O45     1.952   .     S
Cu29   Cu30    2.669   .     S
Cu29   O44     1.952   .     S
Cu29   O41     1.951   .     S
Cu29   N40     2.005   .     S
Cu30   O47     1.955   .     S
Cu30   O43     1.952   .     S
Cu30   O46     1.952   .     S
Cu30   N39     2.005   .     S
Cu30   O42     1.951   .     S
H31    C109    1.087   .     S
H32    C204    1.087   1_455 S
C53    H61     1.108   .     S
C53    C54     1.534   .     S
C53    H62     1.113   .     S
C54    H59     1.112   .     S
C54    C431    1.527   1_545 S
C54    H342    1.109   1_545 S
C55    H58     1.111   .     S
C55    C524    1.527   1_455 S
C55    H244    1.111   1_455 S
C55    H339    1.111   .     S
H56    C149    1.111   .     S
H57    C337    1.111   1_545 S
H60    C336    1.109   .     S
C63    H71     1.108   .     S
C63    C64     1.533   .     S
C63    H72     1.113   .     S
C64    H69     1.112   .     S
C64    C347    1.526   .     S
C64    H352    1.108   .     S
C65    H68     1.110   .     S
C65    H66     1.111   .     S
C65    C346    1.526   1_545 S
C65    H349    1.111   1_545 S
H67    C347    1.111   .     S
H70    C346    1.108   1_545 S
C73    C74     1.533   .     S
C73    H81     1.109   .     S
C73    H82     1.113   .     S
C74    C75     1.526   .     S
C74    H79     1.112   .     S
C74    H644    1.108   1_554 S
C75    H77     1.111   .     S
C75    H640    1.111   1_554 S
C75    H736    1.111   1_554 S
H76    C639    1.111   .     S
H78    C827    1.111   1_455 S
H80    C638    1.108   .     S
C83    H92     1.113   .     S
C83    C648    1.533   .     S
C83    H655    1.109   .     S
C84    H90     1.108   .     S
C84    C85     1.526   .     S
C84    C647    1.533   1_554 S
C84    H653    1.112   1_554 S
C85    H86     1.111   .     S
C85    H87     1.111   .     S
C85    H182    1.111   .     S
H88    C273    1.111   1_455 S
H89    C648    1.112   .     S
H91    C647    1.109   1_554 S
C95    C115    1.450   .     S
C95    O137    1.288   .     A
C95    O135    1.289   .     A
C96    O138    1.291   .     A
C96    C116    1.462   .     S
C96    O136    1.293   .     A
C97    C99     1.417   .     A
C97    C167    1.518   .     S
C97    C105    1.423   .     A
C98    C106    1.423   .     A
C98    C100    1.417   .     A
C98    C177    1.518   .     S
C99    N133    1.364   .     A
C99    H129    1.082   .     S
C100   N134    1.364   .     A
C100   H130    1.082   .     S
C101   H187    1.082   .     S
C101   C103    1.406   .     A
C101   N133    1.363   .     A
C102   H188    1.082   .     S
C102   C104    1.406   .     A
C102   N134    1.363   .     A
C103   C105    1.407   .     A
C103   H131    1.083   .     S
C104   C106    1.407   .     A
C104   H132    1.083   .     S
C105   C670    1.510   1_554 S
C106   C669    1.510   .     S
C107   O141    1.285   .     A
C107   C109    1.431   .     S
C107   O139    1.282   .     A
C108   O140    1.282   .     A
C108   O142    1.285   .     A
C108   C110    1.431   .     S
C110   C203    1.335   .     S
C110   H220    1.087   .     S
C111   C121    1.402   .     A
C111   H143    1.084   .     S
C111   C113    1.386   .     A
C112   C122    1.401   .     A
C112   H144    1.084   .     S
C112   C114    1.387   .     A
C113   C115    1.394   .     A
C113   H127    1.084   .     S
C114   H128    1.083   .     S
C114   C116    1.398   .     A
C115   C117    1.398   .     A
C116   C118    1.402   .     A
C117   H145    1.084   .     S
C117   C119    1.401   .     A
C118   H146    1.084   .     S
C118   C120    1.400   .     A
C119   C147    1.521   .     S
C119   C121    1.421   .     A
C120   C157    1.521   .     S
C120   C122    1.420   .     A
C121   C404    1.466   1_545 S
C122   C403    1.466   .     S
Cu123  O142    1.955   .     S
Cu123  O139    1.952   .     S
Cu123  Cu124   2.669   .     S
Cu123  O138    1.952   .     S
Cu123  O135    1.951   .     S
Cu123  N134    2.005   .     S
Cu124  O141    1.955   .     S
Cu124  O137    1.952   .     S
Cu124  O140    1.952   .     S
Cu124  N133    2.005   .     S
Cu124  O136    1.951   .     S
H125   C203    1.087   .     S
C147   H155    1.108   .     S
C147   C148    1.534   .     S
C147   H156    1.113   .     S
C148   H153    1.112   .     S
C148   C525    1.527   1_545 S
C148   H436    1.109   1_545 S
C149   H152    1.111   .     S
C149   C336    1.527   .     S
C149   H433    1.111   .     S
H150   C243    1.111   .     S
H151   C431    1.111   1_545 S
H154   C430    1.109   .     S
C157   H165    1.108   .     S
C157   C158    1.533   .     S
C157   H166    1.113   .     S
C158   H163    1.112   .     S
C158   C441    1.526   .     S
C158   H446    1.108   .     S
C159   H162    1.110   .     S
C159   H160    1.111   .     S
C159   C440    1.526   1_545 S
C159   H443    1.111   1_545 S
H161   C441    1.111   .     S
H164   C440    1.108   1_545 S
C167   C168    1.533   .     S
C167   H175    1.109   .     S
C167   H176    1.113   .     S
C168   C169    1.526   .     S
C168   H173    1.112   .     S
C168   H738    1.108   1_554 S
C169   H171    1.111   .     S
C169   H734    1.111   1_554 S
C169   H830    1.111   1_554 S
H170   C733    1.111   .     S
H172   C639    1.111   .     S
H174   C732    1.108   .     S
C177   H186    1.113   .     S
C177   C742    1.533   .     S
C177   H749    1.109   .     S
C178   H184    1.108   .     S
C178   C179    1.526   .     S
C178   C741    1.533   1_554 S
C178   H747    1.112   1_554 S
C179   H180    1.111   .     S
C179   H181    1.111   .     S
C179   H276    1.111   .     S
H183   C742    1.112   .     S
H185   C741    1.109   1_554 S
C189   C209    1.450   .     S
C189   O231    1.288   .     A
C189   O229    1.289   .     A
C190   O232    1.291   .     A
C190   C210    1.462   .     S
C190   O230    1.293   .     A
C191   C193    1.417   .     A
C191   C261    1.518   .     S
C191   C199    1.423   .     A
C192   C200    1.423   .     A
C192   C194    1.417   .     A
C192   C271    1.518   .     S
C193   N227    1.364   .     A
C193   H223    1.082   .     S
C194   N228    1.364   .     A
C194   H224    1.082   .     S
C195   H281    1.082   .     S
C195   C197    1.406   .     A
C195   N227    1.363   .     A
C196   H282    1.082   .     S
C196   C198    1.406   .     A
C196   N228    1.363   .     A
C197   C199    1.407   .     A
C197   H225    1.083   .     S
C198   C200    1.407   .     A
C198   H226    1.083   .     S
C199   C764    1.510   1_554 S
C200   C763    1.510   .     S
C201   O235    1.285   .     A
C201   C203    1.431   .     S
C201   O233    1.282   .     A
C202   O234    1.282   .     A
C202   O236    1.285   .     A
C202   C204    1.431   .     S
C204   C15     1.335   1_655 S
C204   H32     1.087   1_655 S
C205   C215    1.402   .     A
C205   H237    1.084   .     S
C205   C207    1.386   .     A
C206   C216    1.401   .     A
C206   H238    1.084   .     S
C206   C208    1.387   .     A
C207   C209    1.394   .     A
C207   H221    1.084   .     S
C208   H222    1.083   .     S
C208   C210    1.398   .     A
C209   C211    1.398   .     A
C210   C212    1.402   .     A
C211   H239    1.084   .     S
C211   C213    1.401   .     A
C212   H240    1.084   .     S
C212   C214    1.400   .     A
C213   C241    1.521   .     S
C213   C215    1.421   .     A
C214   C251    1.521   .     S
C214   C216    1.420   .     A
C215   C498    1.466   1_545 S
C216   C497    1.466   .     S
Cu217  O236    1.955   .     S
Cu217  O233    1.952   .     S
Cu217  Cu218   2.669   .     S
Cu217  O232    1.952   .     S
Cu217  O229    1.951   .     S
Cu217  N228    2.005   .     S
Cu218  O235    1.955   .     S
Cu218  O231    1.952   .     S
Cu218  O234    1.952   .     S
Cu218  N227    2.005   .     S
Cu218  O230    1.951   .     S
H219   C15     1.087   1_655 S
C241   H249    1.108   .     S
C241   C242    1.534   .     S
C241   H250    1.113   .     S
C242   H247    1.112   .     S
C242   C337    1.527   1_645 S
C242   H530    1.109   1_545 S
C243   H246    1.111   .     S
C243   C430    1.527   .     S
C243   H527    1.111   .     S
H244   C55     1.111   1_655 S
H245   C525    1.111   1_545 S
H248   C524    1.109   .     S
C251   H259    1.108   .     S
C251   C252    1.533   .     S
C251   H260    1.113   .     S
C252   H257    1.112   .     S
C252   C535    1.526   .     S
C252   H540    1.108   .     S
C253   H256    1.110   .     S
C253   H254    1.111   .     S
C253   C534    1.526   1_545 S
C253   H537    1.111   1_545 S
H255   C535    1.111   .     S
H258   C534    1.108   1_545 S
C261   C262    1.533   .     S
C261   H269    1.109   .     S
C261   H270    1.113   .     S
C262   C263    1.526   .     S
C262   H267    1.112   .     S
C262   H832    1.108   1_554 S
C263   H265    1.111   .     S
C263   H828    1.111   1_554 S
C263   H642    1.111   1_654 S
H264   C827    1.111   .     S
H266   C733    1.111   .     S
H268   C826    1.108   .     S
C271   H280    1.113   .     S
C271   C836    1.533   .     S
C271   H843    1.109   .     S
C272   H278    1.108   .     S
C272   C273    1.526   .     S
C272   C835    1.533   1_554 S
C272   H841    1.112   1_554 S
C273   H274    1.111   .     S
C273   H275    1.111   .     S
C273   H88     1.111   1_655 S
H277   C836    1.112   .     S
H279   C835    1.109   1_554 S
C283   C303    1.450   .     S
C283   O325    1.288   .     A
C283   O323    1.289   .     A
C284   O326    1.291   .     A
C284   C304    1.462   .     S
C284   O324    1.293   .     A
C285   C287    1.417   .     A
C285   C355    1.518   .     S
C285   C293    1.423   .     A
C286   C294    1.423   .     A
C286   C288    1.417   .     A
C286   C365    1.518   .     S
C287   N321    1.364   .     A
C287   H317    1.082   .     S
C288   N322    1.364   .     A
C288   H318    1.082   .     S
C289   H375    1.082   .     S
C289   C291    1.406   .     A
C289   N321    1.363   .     A
C290   H376    1.082   .     S
C290   C292    1.406   .     A
C290   N322    1.363   .     A
C291   C293    1.407   .     A
C291   H319    1.083   .     S
C292   C294    1.407   .     A
C292   H320    1.083   .     S
C293   C858    1.510   1_554 S
C294   C857    1.510   .     S
C295   O329    1.285   .     A
C295   C297    1.431   .     S
C295   O327    1.282   .     A
C296   O328    1.282   .     A
C296   O330    1.285   .     A
C296   C298    1.431   .     S
C297   C486    1.335   1_455 S
C297   H501    1.087   1_455 S
C298   C391    1.335   .     S
C298   H408    1.087   .     S
C299   C309    1.402   .     A
C299   H331    1.084   .     S
C299   C301    1.386   .     A
C300   C310    1.401   .     A
C300   H332    1.084   .     S
C300   C302    1.387   .     A
C301   C303    1.394   .     A
C301   H315    1.084   .     S
C302   H316    1.083   .     S
C302   C304    1.398   .     A
C303   C305    1.398   .     A
C304   C306    1.402   .     A
C305   H333    1.084   .     S
C305   C307    1.401   .     A
C306   H334    1.084   .     S
C306   C308    1.400   .     A
C307   C335    1.521   .     S
C307   C309    1.421   .     A
C308   C345    1.521   .     S
C308   C310    1.420   .     A
C310   C27     1.466   1_565 S
Cu311  O330    1.955   .     S
Cu311  O327    1.952   .     S
Cu311  Cu312   2.669   .     S
Cu311  O326    1.952   .     S
Cu311  O323    1.951   .     S
Cu311  N322    2.005   .     S
Cu312  O329    1.955   .     S
Cu312  O325    1.952   .     S
Cu312  O328    1.952   .     S
Cu312  N321    2.005   .     S
Cu312  O324    1.951   .     S
H313   C391    1.087   .     S
H314   C486    1.087   1_455 S
C335   H343    1.108   .     S
C335   C336    1.534   .     S
C335   H344    1.113   .     S
C336   H341    1.112   .     S
C337   H340    1.111   .     S
C337   C242    1.527   1_465 S
C337   H526    1.111   1_455 S
C337   H57     1.111   1_565 S
H338   C431    1.111   .     S
H342   C54     1.109   1_565 S
C345   H353    1.108   .     S
C345   C346    1.533   .     S
C345   H354    1.113   .     S
C346   H351    1.112   .     S
C346   C65     1.526   1_565 S
C346   H70     1.108   1_565 S
C347   H350    1.110   .     S
C347   H348    1.111   .     S
H349   C65     1.111   1_565 S
C355   C356    1.533   .     S
C355   H363    1.109   .     S
C355   H364    1.113   .     S
C356   C357    1.526   .     S
C356   H361    1.112   .     S
C356   H926    1.108   1_554 S
C357   H359    1.111   .     S
C357   H922    1.111   1_554 S
C357   H1018   1.111   1_554 S
H358   C921    1.111   .     S
H360   C1109   1.111   1_455 S
H362   C920    1.108   .     S
C365   H374    1.113   .     S
C365   C930    1.533   .     S
C365   H937    1.109   .     S
C366   H372    1.108   .     S
C366   C367    1.526   .     S
C366   C929    1.533   1_554 S
C366   H935    1.112   1_554 S
C367   H368    1.111   .     S
C367   H369    1.111   .     S
C367   H464    1.111   .     S
H370   C555    1.111   1_455 S
H371   C930    1.112   .     S
H373   C929    1.109   1_554 S
C377   C397    1.450   .     S
C377   O419    1.288   .     A
C377   O417    1.289   .     A
C378   O420    1.291   .     A
C378   C398    1.462   .     S
C378   O418    1.293   .     A
C379   C381    1.417   .     A
C379   C449    1.518   .     S
C379   C387    1.423   .     A
C380   C388    1.423   .     A
C380   C382    1.417   .     A
C380   C459    1.518   .     S
C381   N415    1.364   .     A
C381   H411    1.082   .     S
C382   N416    1.364   .     A
C382   H412    1.082   .     S
C383   H469    1.082   .     S
C383   C385    1.406   .     A
C383   N415    1.363   .     A
C384   H470    1.082   .     S
C384   C386    1.406   .     A
C384   N416    1.363   .     A
C385   C387    1.407   .     A
C385   H413    1.083   .     S
C386   C388    1.407   .     A
C386   H414    1.083   .     S
C387   C952    1.510   1_554 S
C388   C951    1.510   .     S
C389   O423    1.285   .     A
C389   C391    1.431   .     S
C389   O421    1.282   .     A
C390   O422    1.282   .     A
C390   O424    1.285   .     A
C390   C392    1.431   .     S
C392   C485    1.335   .     S
C392   H502    1.087   .     S
C393   C403    1.402   .     A
C393   H425    1.084   .     S
C393   C395    1.386   .     A
C394   C404    1.401   .     A
C394   H426    1.084   .     S
C394   C396    1.387   .     A
C395   C397    1.394   .     A
C395   H409    1.084   .     S
C396   H410    1.083   .     S
C396   C398    1.398   .     A
C397   C399    1.398   .     A
C398   C400    1.402   .     A
C399   H427    1.084   .     S
C399   C401    1.401   .     A
C400   H428    1.084   .     S
C400   C402    1.400   .     A
C401   C429    1.521   .     S
C401   C403    1.421   .     A
C402   C439    1.521   .     S
C402   C404    1.420   .     A
C404   C121    1.466   1_565 S
Cu405  O424    1.955   .     S
Cu405  O421    1.952   .     S
Cu405  Cu406   2.669   .     S
Cu405  O420    1.952   .     S
Cu405  O417    1.951   .     S
Cu405  N416    2.005   .     S
Cu406  O423    1.955   .     S
Cu406  O419    1.952   .     S
Cu406  O422    1.952   .     S
Cu406  N415    2.005   .     S
Cu406  O418    1.951   .     S
H407   C485    1.087   .     S
C429   H437    1.108   .     S
C429   C430    1.534   .     S
C429   H438    1.113   .     S
C430   H435    1.112   .     S
C431   H434    1.111   .     S
C431   C54     1.527   1_565 S
C431   H151    1.111   1_565 S
H432   C525    1.111   .     S
H436   C148    1.109   1_565 S
C439   H447    1.108   .     S
C439   C440    1.533   .     S
C439   H448    1.113   .     S
C440   H445    1.112   .     S
C440   C159    1.526   1_565 S
C440   H164    1.108   1_565 S
C441   H444    1.110   .     S
C441   H442    1.111   .     S
H443   C159    1.111   1_565 S
C449   C450    1.533   .     S
C449   H457    1.109   .     S
C449   H458    1.113   .     S
C450   C451    1.526   .     S
C450   H455    1.112   .     S
C450   H1020   1.108   1_554 S
C451   H453    1.111   .     S
C451   H1016   1.111   1_554 S
C451   H1112   1.111   1_554 S
H452   C1015   1.111   .     S
H454   C921    1.111   .     S
H456   C1014   1.108   .     S
C459   H468    1.113   .     S
C459   C1024   1.533   .     S
C459   H1031   1.109   .     S
C460   H466    1.108   .     S
C460   C461    1.526   .     S
C460   C1023   1.533   1_554 S
C460   H1029   1.112   1_554 S
C461   H462    1.111   .     S
C461   H463    1.111   .     S
C461   H558    1.111   .     S
H465   C1024   1.112   .     S
H467   C1023   1.109   1_554 S
C471   C491    1.450   .     S
C471   O513    1.288   .     A
C471   O511    1.289   .     A
C472   O514    1.291   .     A
C472   C492    1.462   .     S
C472   O512    1.293   .     A
C473   C475    1.417   .     A
C473   C543    1.518   .     S
C473   C481    1.423   .     A
C474   C482    1.423   .     A
C474   C476    1.417   .     A
C474   C553    1.518   .     S
C475   N509    1.364   .     A
C475   H505    1.082   .     S
C476   N510    1.364   .     A
C476   H506    1.082   .     S
C477   H563    1.082   .     S
C477   C479    1.406   .     A
C477   N509    1.363   .     A
C478   H564    1.082   .     S
C478   C480    1.406   .     A
C478   N510    1.363   .     A
C479   C481    1.407   .     A
C479   H507    1.083   .     S
C480   C482    1.407   .     A
C480   H508    1.083   .     S
C481   C1046   1.510   1_554 S
C482   C1045   1.510   .     S
C483   O517    1.285   .     A
C483   C485    1.431   .     S
C483   O515    1.282   .     A
C484   O516    1.282   .     A
C484   O518    1.285   .     A
C484   C486    1.431   .     S
C486   C297    1.335   1_655 S
C486   H314    1.087   1_655 S
C487   C497    1.402   .     A
C487   H519    1.084   .     S
C487   C489    1.386   .     A
C488   C498    1.401   .     A
C488   H520    1.084   .     S
C488   C490    1.387   .     A
C489   C491    1.394   .     A
C489   H503    1.084   .     S
C490   H504    1.083   .     S
C490   C492    1.398   .     A
C491   C493    1.398   .     A
C492   C494    1.402   .     A
C493   H521    1.084   .     S
C493   C495    1.401   .     A
C494   H522    1.084   .     S
C494   C496    1.400   .     A
C495   C523    1.521   .     S
C495   C497    1.421   .     A
C496   C533    1.521   .     S
C496   C498    1.420   .     A
C498   C215    1.466   1_565 S
Cu499  O518    1.955   .     S
Cu499  O515    1.952   .     S
Cu499  Cu500   2.669   .     S
Cu499  O514    1.952   .     S
Cu499  O511    1.951   .     S
Cu499  N510    2.005   .     S
Cu500  O517    1.955   .     S
Cu500  O513    1.952   .     S
Cu500  O516    1.952   .     S
Cu500  N509    2.005   .     S
Cu500  O512    1.951   .     S
H501   C297    1.087   1_655 S
C523   H531    1.108   .     S
C523   C524    1.534   .     S
C523   H532    1.113   .     S
C524   H529    1.112   .     S
C524   C55     1.527   1_655 S
C525   H528    1.111   .     S
C525   C148    1.527   1_565 S
C525   H245    1.111   1_565 S
H526   C337    1.111   1_655 S
H530   C242    1.109   1_565 S
C533   H541    1.108   .     S
C533   C534    1.533   .     S
C533   H542    1.113   .     S
C534   H539    1.112   .     S
C534   C253    1.526   1_565 S
C534   H258    1.108   1_565 S
C535   H538    1.110   .     S
C535   H536    1.111   .     S
H537   C253    1.111   1_565 S
C543   C544    1.533   .     S
C543   H551    1.109   .     S
C543   H552    1.113   .     S
C544   C545    1.526   .     S
C544   H549    1.112   .     S
C544   H1114   1.108   1_554 S
C545   H547    1.111   .     S
C545   H1110   1.111   1_554 S
C545   H924    1.111   1_654 S
H546   C1109   1.111   .     S
H548   C1015   1.111   .     S
H550   C1108   1.108   .     S
C553   H562    1.113   .     S
C553   C1118   1.533   .     S
C553   H1125   1.109   .     S
C554   H560    1.108   .     S
C554   C555    1.526   .     S
C554   C1117   1.533   1_554 S
C554   H1123   1.112   1_554 S
C555   H556    1.111   .     S
C555   H557    1.111   .     S
C555   H370    1.111   1_655 S
H559   C1118   1.112   .     S
H561   C1117   1.109   1_554 S
C565   C585    1.450   .     S
C565   O607    1.288   .     A
C565   O605    1.289   .     A
C566   O608    1.291   .     A
C566   C586    1.462   .     S
C566   O606    1.293   .     A
C567   C569    1.417   .     A
C567   C637    1.518   .     S
C567   C575    1.423   .     A
C568   C576    1.423   .     A
C568   C570    1.417   .     A
C568   C647    1.518   .     S
C569   N603    1.364   .     A
C569   H599    1.082   .     S
C570   N604    1.364   .     A
C570   H600    1.082   .     S
C571   H657    1.082   .     S
C571   C573    1.406   .     A
C571   N603    1.363   .     A
C572   H658    1.082   .     S
C572   C574    1.406   .     A
C572   N604    1.363   .     A
C573   C575    1.407   .     A
C573   H601    1.083   .     S
C574   C576    1.407   .     A
C574   H602    1.083   .     S
C576   C11     1.510   1_556 S
C577   O611    1.285   .     A
C577   C579    1.431   .     S
C577   O609    1.282   .     A
C578   O610    1.282   .     A
C578   O612    1.285   .     A
C578   C580    1.431   .     S
C579   C768    1.335   1_455 S
C579   H783    1.087   1_455 S
C580   C673    1.335   .     S
C580   H690    1.087   .     S
C581   C591    1.402   .     A
C581   H613    1.084   .     S
C581   C583    1.386   .     A
C582   C592    1.401   .     A
C582   H614    1.084   .     S
C582   C584    1.387   .     A
C583   C585    1.394   .     A
C583   H597    1.084   .     S
C584   H598    1.083   .     S
C584   C586    1.398   .     A
C585   C587    1.398   .     A
C586   C588    1.402   .     A
C587   H615    1.084   .     S
C587   C589    1.401   .     A
C588   H616    1.084   .     S
C588   C590    1.400   .     A
C589   C617    1.521   .     S
C589   C591    1.421   .     A
C590   C627    1.521   .     S
C590   C592    1.420   .     A
C591   C874    1.466   1_545 S
C592   C873    1.466   .     S
Cu593  O612    1.955   .     S
Cu593  O609    1.952   .     S
Cu593  Cu594   2.669   .     S
Cu593  O608    1.952   .     S
Cu593  O605    1.951   .     S
Cu593  N604    2.005   .     S
Cu594  O611    1.955   .     S
Cu594  O607    1.952   .     S
Cu594  O610    1.952   .     S
Cu594  N603    2.005   .     S
Cu594  O606    1.951   .     S
H595   C673    1.087   .     S
H596   C768    1.087   1_455 S
C617   H625    1.108   .     S
C617   C618    1.534   .     S
C617   H626    1.113   .     S
C618   H623    1.112   .     S
C618   C995    1.527   1_545 S
C618   H906    1.109   1_545 S
C619   H622    1.111   .     S
C619   C1088   1.527   1_455 S
C619   H808    1.111   1_455 S
C619   H903    1.111   .     S
H620   C713    1.111   .     S
H621   C901    1.111   1_545 S
H624   C900    1.109   .     S
C627   H635    1.108   .     S
C627   C628    1.533   .     S
C627   H636    1.113   .     S
C628   H633    1.112   .     S
C628   C911    1.526   .     S
C628   H916    1.108   .     S
C629   H632    1.110   .     S
C629   H630    1.111   .     S
C629   C910    1.526   1_545 S
C629   H913    1.111   1_545 S
H631   C911    1.111   .     S
H634   C910    1.108   1_545 S
C637   C638    1.533   .     S
C637   H645    1.109   .     S
C637   H646    1.113   .     S
C638   C639    1.526   .     S
C638   H643    1.112   .     S
C639   H641    1.111   .     S
H640   C75     1.111   1_556 S
H642   C263    1.111   1_456 S
H644   C74     1.108   1_556 S
C647   H656    1.113   .     S
C647   C84     1.533   1_556 S
C647   H91     1.109   1_556 S
C648   H654    1.108   .     S
C648   C649    1.526   .     S
C649   H650    1.111   .     S
C649   H651    1.111   .     S
C649   H746    1.111   .     S
H652   C837    1.111   1_455 S
H653   C84     1.112   1_556 S
C659   C679    1.450   .     S
C659   O701    1.288   .     A
C659   O699    1.289   .     A
C660   O702    1.291   .     A
C660   C680    1.462   .     S
C660   O700    1.293   .     A
C661   C663    1.417   .     A
C661   C731    1.518   .     S
C661   C669    1.423   .     A
C662   C670    1.423   .     A
C662   C664    1.417   .     A
C662   C741    1.518   .     S
C663   N697    1.364   .     A
C663   H693    1.082   .     S
C664   N698    1.364   .     A
C664   H694    1.082   .     S
C665   H751    1.082   .     S
C665   C667    1.406   .     A
C665   N697    1.363   .     A
C666   H752    1.082   .     S
C666   C668    1.406   .     A
C666   N698    1.363   .     A
C667   C669    1.407   .     A
C667   H695    1.083   .     S
C668   C670    1.407   .     A
C668   H696    1.083   .     S
C670   C105    1.510   1_556 S
C671   O705    1.285   .     A
C671   C673    1.431   .     S
C671   O703    1.282   .     A
C672   O704    1.282   .     A
C672   O706    1.285   .     A
C672   C674    1.431   .     S
C674   C767    1.335   .     S
C674   H784    1.087   .     S
C675   C685    1.402   .     A
C675   H707    1.084   .     S
C675   C677    1.386   .     A
C676   C686    1.401   .     A
C676   H708    1.084   .     S
C676   C678    1.387   .     A
C677   C679    1.394   .     A
C677   H691    1.084   .     S
C678   H692    1.083   .     S
C678   C680    1.398   .     A
C679   C681    1.398   .     A
C680   C682    1.402   .     A
C681   H709    1.084   .     S
C681   C683    1.401   .     A
C682   H710    1.084   .     S
C682   C684    1.400   .     A
C683   C711    1.521   .     S
C683   C685    1.421   .     A
C684   C721    1.521   .     S
C684   C686    1.420   .     A
C685   C968    1.466   1_545 S
C686   C967    1.466   .     S
Cu687  O706    1.955   .     S
Cu687  O703    1.952   .     S
Cu687  Cu688   2.669   .     S
Cu687  O702    1.952   .     S
Cu687  O699    1.951   .     S
Cu687  N698    2.005   .     S
Cu688  O705    1.955   .     S
Cu688  O701    1.952   .     S
Cu688  O704    1.952   .     S
Cu688  N697    2.005   .     S
Cu688  O700    1.951   .     S
H689   C767    1.087   .     S
C711   H719    1.108   .     S
C711   C712    1.534   .     S
C711   H720    1.113   .     S
C712   H717    1.112   .     S
C712   C1089   1.527   1_545 S
C712   H1000   1.109   1_545 S
C713   H716    1.111   .     S
C713   C900    1.527   .     S
C713   H997    1.111   .     S
H714   C807    1.111   .     S
H715   C995    1.111   1_545 S
H718   C994    1.109   .     S
C721   H729    1.108   .     S
C721   C722    1.533   .     S
C721   H730    1.113   .     S
C722   H727    1.112   .     S
C722   C1005   1.526   .     S
C722   H1010   1.108   .     S
C723   H726    1.110   .     S
C723   H724    1.111   .     S
C723   C1004   1.526   1_545 S
C723   H1007   1.111   1_545 S
H725   C1005   1.111   .     S
H728   C1004   1.108   1_545 S
C731   C732    1.533   .     S
C731   H739    1.109   .     S
C731   H740    1.113   .     S
C732   C733    1.526   .     S
C732   H737    1.112   .     S
C733   H735    1.111   .     S
H734   C169    1.111   1_556 S
H736   C75     1.111   1_556 S
H738   C168    1.108   1_556 S
C741   H750    1.113   .     S
C741   C178    1.533   1_556 S
C741   H185    1.109   1_556 S
C742   H748    1.108   .     S
C742   C743    1.526   .     S
C743   H744    1.111   .     S
C743   H745    1.111   .     S
C743   H840    1.111   .     S
H747   C178    1.112   1_556 S
C753   C773    1.450   .     S
C753   O795    1.288   .     A
C753   O793    1.289   .     A
C754   O796    1.291   .     A
C754   C774    1.462   .     S
C754   O794    1.293   .     A
C755   C757    1.417   .     A
C755   C825    1.518   .     S
C755   C763    1.423   .     A
C756   C764    1.423   .     A
C756   C758    1.417   .     A
C756   C835    1.518   .     S
C757   N791    1.364   .     A
C757   H787    1.082   .     S
C758   N792    1.364   .     A
C758   H788    1.082   .     S
C759   H845    1.082   .     S
C759   C761    1.406   .     A
C759   N791    1.363   .     A
C760   H846    1.082   .     S
C760   C762    1.406   .     A
C760   N792    1.363   .     A
C761   C763    1.407   .     A
C761   H789    1.083   .     S
C762   C764    1.407   .     A
C762   H790    1.083   .     S
C764   C199    1.510   1_556 S
C765   O799    1.285   .     A
C765   C767    1.431   .     S
C765   O797    1.282   .     A
C766   O798    1.282   .     A
C766   O800    1.285   .     A
C766   C768    1.431   .     S
C768   C579    1.335   1_655 S
C768   H596    1.087   1_655 S
C769   C779    1.402   .     A
C769   H801    1.084   .     S
C769   C771    1.386   .     A
C770   C780    1.401   .     A
C770   H802    1.084   .     S
C770   C772    1.387   .     A
C771   C773    1.394   .     A
C771   H785    1.084   .     S
C772   H786    1.083   .     S
C772   C774    1.398   .     A
C773   C775    1.398   .     A
C774   C776    1.402   .     A
C775   H803    1.084   .     S
C775   C777    1.401   .     A
C776   H804    1.084   .     S
C776   C778    1.400   .     A
C777   C805    1.521   .     S
C777   C779    1.421   .     A
C778   C815    1.521   .     S
C778   C780    1.420   .     A
C779   C1062   1.466   1_545 S
C780   C1061   1.466   .     S
Cu781  O800    1.955   .     S
Cu781  O797    1.952   .     S
Cu781  Cu782   2.669   .     S
Cu781  O796    1.952   .     S
Cu781  O793    1.951   .     S
Cu781  N792    2.005   .     S
Cu782  O799    1.955   .     S
Cu782  O795    1.952   .     S
Cu782  O798    1.952   .     S
Cu782  N791    2.005   .     S
Cu782  O794    1.951   .     S
H783   C579    1.087   1_655 S
C805   H813    1.108   .     S
C805   C806    1.534   .     S
C805   H814    1.113   .     S
C806   H811    1.112   .     S
C806   C901    1.527   1_645 S
C806   H1094   1.109   1_545 S
C807   H810    1.111   .     S
C807   C994    1.527   .     S
C807   H1091   1.111   .     S
H808   C619    1.111   1_655 S
H809   C1089   1.111   1_545 S
H812   C1088   1.109   .     S
C815   H823    1.108   .     S
C815   C816    1.533   .     S
C815   H824    1.113   .     S
C816   H821    1.112   .     S
C816   C1099   1.526   .     S
C816   H1104   1.108   .     S
C817   H820    1.110   .     S
C817   H818    1.111   .     S
C817   C1098   1.526   1_545 S
C817   H1101   1.111   1_545 S
H819   C1099   1.111   .     S
H822   C1098   1.108   1_545 S
C825   C826    1.533   .     S
C825   H833    1.109   .     S
C825   H834    1.113   .     S
C826   C827    1.526   .     S
C826   H831    1.112   .     S
C827   H829    1.111   .     S
C827   H78     1.111   1_655 S
H828   C263    1.111   1_556 S
H830   C169    1.111   1_556 S
H832   C262    1.108   1_556 S
C835   H844    1.113   .     S
C835   C272    1.533   1_556 S
C835   H279    1.109   1_556 S
C836   H842    1.108   .     S
C836   C837    1.526   .     S
C837   H838    1.111   .     S
C837   H839    1.111   .     S
C837   H652    1.111   1_655 S
H841   C272    1.112   1_556 S
C847   C867    1.450   .     S
C847   O889    1.288   .     A
C847   O887    1.289   .     A
C848   O890    1.291   .     A
C848   C868    1.462   .     S
C848   O888    1.293   .     A
C849   C851    1.417   .     A
C849   C919    1.518   .     S
C849   C857    1.423   .     A
C850   C858    1.423   .     A
C850   C852    1.417   .     A
C850   C929    1.518   .     S
C851   N885    1.364   .     A
C851   H881    1.082   .     S
C852   N886    1.364   .     A
C852   H882    1.082   .     S
C853   H939    1.082   .     S
C853   C855    1.406   .     A
C853   N885    1.363   .     A
C854   H940    1.082   .     S
C854   C856    1.406   .     A
C854   N886    1.363   .     A
C855   C857    1.407   .     A
C855   H883    1.083   .     S
C856   C858    1.407   .     A
C856   H884    1.083   .     S
C858   C293    1.510   1_556 S
C859   O893    1.285   .     A
C859   C861    1.431   .     S
C859   O891    1.282   .     A
C860   O892    1.282   .     A
C860   O894    1.285   .     A
C860   C862    1.431   .     S
C861   C1050   1.335   1_455 S
C861   H1065   1.087   1_455 S
C862   C955    1.335   .     S
C862   H972    1.087   .     S
C863   C873    1.402   .     A
C863   H895    1.084   .     S
C863   C865    1.386   .     A
C864   C874    1.401   .     A
C864   H896    1.084   .     S
C864   C866    1.387   .     A
C865   C867    1.394   .     A
C865   H879    1.084   .     S
C866   H880    1.083   .     S
C866   C868    1.398   .     A
C867   C869    1.398   .     A
C868   C870    1.402   .     A
C869   H897    1.084   .     S
C869   C871    1.401   .     A
C870   H898    1.084   .     S
C870   C872    1.400   .     A
C871   C899    1.521   .     S
C871   C873    1.421   .     A
C872   C909    1.521   .     S
C872   C874    1.420   .     A
C874   C591    1.466   1_565 S
Cu875  O894    1.955   .     S
Cu875  O891    1.952   .     S
Cu875  Cu876   2.669   .     S
Cu875  O890    1.952   .     S
Cu875  O887    1.951   .     S
Cu875  N886    2.005   .     S
Cu876  O893    1.955   .     S
Cu876  O889    1.952   .     S
Cu876  O892    1.952   .     S
Cu876  N885    2.005   .     S
Cu876  O888    1.951   .     S
H877   C955    1.087   .     S
H878   C1050   1.087   1_455 S
C899   H907    1.108   .     S
C899   C900    1.534   .     S
C899   H908    1.113   .     S
C900   H905    1.112   .     S
C901   H904    1.111   .     S
C901   C806    1.527   1_465 S
C901   H1090   1.111   1_455 S
C901   H621    1.111   1_565 S
H902   C995    1.111   .     S
H906   C618    1.109   1_565 S
C909   H917    1.108   .     S
C909   C910    1.533   .     S
C909   H918    1.113   .     S
C910   H915    1.112   .     S
C910   C629    1.526   1_565 S
C910   H634    1.108   1_565 S
C911   H914    1.110   .     S
C911   H912    1.111   .     S
H913   C629    1.111   1_565 S
C919   C920    1.533   .     S
C919   H927    1.109   .     S
C919   H928    1.113   .     S
C920   C921    1.526   .     S
C920   H925    1.112   .     S
C921   H923    1.111   .     S
H922   C357    1.111   1_556 S
H924   C545    1.111   1_456 S
H926   C356    1.108   1_556 S
C929   H938    1.113   .     S
C929   C366    1.533   1_556 S
C929   H373    1.109   1_556 S
C930   H936    1.108   .     S
C930   C931    1.526   .     S
C931   H932    1.111   .     S
C931   H933    1.111   .     S
C931   H1028   1.111   .     S
H934   C1119   1.111   1_455 S
H935   C366    1.112   1_556 S
C941   C961    1.450   .     S
C941   O983    1.288   .     A
C941   O981    1.289   .     A
C942   O984    1.291   .     A
C942   C962    1.462   .     S
C942   O982    1.293   .     A
C943   C945    1.417   .     A
C943   C1013   1.518   .     S
C943   C951    1.423   .     A
C944   C952    1.423   .     A
C944   C946    1.417   .     A
C944   C1023   1.518   .     S
C945   N979    1.364   .     A
C945   H975    1.082   .     S
C946   N980    1.364   .     A
C946   H976    1.082   .     S
C947   H1033   1.082   .     S
C947   C949    1.406   .     A
C947   N979    1.363   .     A
C948   H1034   1.082   .     S
C948   C950    1.406   .     A
C948   N980    1.363   .     A
C949   C951    1.407   .     A
C949   H977    1.083   .     S
C950   C952    1.407   .     A
C950   H978    1.083   .     S
C952   C387    1.510   1_556 S
C953   O987    1.285   .     A
C953   C955    1.431   .     S
C953   O985    1.282   .     A
C954   O986    1.282   .     A
C954   O988    1.285   .     A
C954   C956    1.431   .     S
C956   C1049   1.335   .     S
C956   H1066   1.087   .     S
C957   C967    1.402   .     A
C957   H989    1.084   .     S
C957   C959    1.386   .     A
C958   C968    1.401   .     A
C958   H990    1.084   .     S
C958   C960    1.387   .     A
C959   C961    1.394   .     A
C959   H973    1.084   .     S
C960   H974    1.083   .     S
C960   C962    1.398   .     A
C961   C963    1.398   .     A
C962   C964    1.402   .     A
C963   H991    1.084   .     S
C963   C965    1.401   .     A
C964   H992    1.084   .     S
C964   C966    1.400   .     A
C965   C993    1.521   .     S
C965   C967    1.421   .     A
C966   C1003   1.521   .     S
C966   C968    1.420   .     A
C968   C685    1.466   1_565 S
Cu969  O988    1.955   .     S
Cu969  O985    1.952   .     S
Cu969  Cu970   2.669   .     S
Cu969  O984    1.952   .     S
Cu969  O981    1.951   .     S
Cu969  N980    2.005   .     S
Cu970  O987    1.955   .     S
Cu970  O983    1.952   .     S
Cu970  O986    1.952   .     S
Cu970  N979    2.005   .     S
Cu970  O982    1.951   .     S
H971   C1049   1.087   .     S
C993   H1001   1.108   .     S
C993   C994    1.534   .     S
C993   H1002   1.113   .     S
C994   H999    1.112   .     S
C995   H998    1.111   .     S
C995   C618    1.527   1_565 S
C995   H715    1.111   1_565 S
H996   C1089   1.111   .     S
H1000  C712    1.109   1_565 S
C1003  H1011   1.108   .     S
C1003  C1004   1.533   .     S
C1003  H1012   1.113   .     S
C1004  H1009   1.112   .     S
C1004  C723    1.526   1_565 S
C1004  H728    1.108   1_565 S
C1005  H1008   1.110   .     S
C1005  H1006   1.111   .     S
H1007  C723    1.111   1_565 S
C1013  C1014   1.533   .     S
C1013  H1021   1.109   .     S
C1013  H1022   1.113   .     S
C1014  C1015   1.526   .     S
C1014  H1019   1.112   .     S
C1015  H1017   1.111   .     S
H1016  C451    1.111   1_556 S
H1018  C357    1.111   1_556 S
H1020  C450    1.108   1_556 S
C1023  H1032   1.113   .     S
C1023  C460    1.533   1_556 S
C1023  H467    1.109   1_556 S
C1024  H1030   1.108   .     S
C1024  C1025   1.526   .     S
C1025  H1026   1.111   .     S
C1025  H1027   1.111   .     S
C1025  H1122   1.111   .     S
H1029  C460    1.112   1_556 S
C1035  C1055   1.450   .     S
C1035  O1077   1.288   .     A
C1035  O1075   1.289   .     A
C1036  O1078   1.291   .     A
C1036  C1056   1.462   .     S
C1036  O1076   1.293   .     A
C1037  C1039   1.417   .     A
C1037  C1107   1.518   .     S
C1037  C1045   1.423   .     A
C1038  C1046   1.423   .     A
C1038  C1040   1.417   .     A
C1038  C1117   1.518   .     S
C1039  N1073   1.364   .     A
C1039  H1069   1.082   .     S
C1040  N1074   1.364   .     A
C1040  H1070   1.082   .     S
C1041  H1127   1.082   .     S
C1041  C1043   1.406   .     A
C1041  N1073   1.363   .     A
C1042  H1128   1.082   .     S
C1042  C1044   1.406   .     A
C1042  N1074   1.363   .     A
C1043  C1045   1.407   .     A
C1043  H1071   1.083   .     S
C1044  C1046   1.407   .     A
C1044  H1072   1.083   .     S
C1046  C481    1.510   1_556 S
C1047  O1081   1.285   .     A
C1047  C1049   1.431   .     S
C1047  O1079   1.282   .     A
C1048  O1080   1.282   .     A
C1048  O1082   1.285   .     A
C1048  C1050   1.431   .     S
C1050  C861    1.335   1_655 S
C1050  H878    1.087   1_655 S
C1051  C1061   1.402   .     A
C1051  H1083   1.084   .     S
C1051  C1053   1.386   .     A
C1052  C1062   1.401   .     A
C1052  H1084   1.084   .     S
C1052  C1054   1.387   .     A
C1053  C1055   1.394   .     A
C1053  H1067   1.084   .     S
C1054  H1068   1.083   .     S
C1054  C1056   1.398   .     A
C1055  C1057   1.398   .     A
C1056  C1058   1.402   .     A
C1057  H1085   1.084   .     S
C1057  C1059   1.401   .     A
C1058  H1086   1.084   .     S
C1058  C1060   1.400   .     A
C1059  C1087   1.521   .     S
C1059  C1061   1.421   .     A
C1060  C1097   1.521   .     S
C1060  C1062   1.420   .     A
C1062  C779    1.466   1_565 S
Cu1063 O1082   1.955   .     S
Cu1063 O1079   1.952   .     S
Cu1063 Cu1064  2.669   .     S
Cu1063 O1078   1.952   .     S
Cu1063 O1075   1.951   .     S
Cu1063 N1074   2.005   .     S
Cu1064 O1081   1.955   .     S
Cu1064 O1077   1.952   .     S
Cu1064 O1080   1.952   .     S
Cu1064 N1073   2.005   .     S
Cu1064 O1076   1.951   .     S
H1065  C861    1.087   1_655 S
C1087  H1095   1.108   .     S
C1087  C1088   1.534   .     S
C1087  H1096   1.113   .     S
C1088  H1093   1.112   .     S
C1088  C619    1.527   1_655 S
C1089  H1092   1.111   .     S
C1089  C712    1.527   1_565 S
C1089  H809    1.111   1_565 S
H1090  C901    1.111   1_655 S
H1094  C806    1.109   1_565 S
C1097  H1105   1.108   .     S
C1097  C1098   1.533   .     S
C1097  H1106   1.113   .     S
C1098  H1103   1.112   .     S
C1098  C817    1.526   1_565 S
C1098  H822    1.108   1_565 S
C1099  H1102   1.110   .     S
C1099  H1100   1.111   .     S
H1101  C817    1.111   1_565 S
C1107  C1108   1.533   .     S
C1107  H1115   1.109   .     S
C1107  H1116   1.113   .     S
C1108  C1109   1.526   .     S
C1108  H1113   1.112   .     S
C1109  H1111   1.111   .     S
C1109  H360    1.111   1_655 S
H1110  C545    1.111   1_556 S
H1112  C451    1.111   1_556 S
H1114  C544    1.108   1_556 S
C1117  H1126   1.113   .     S
C1117  C554    1.533   1_556 S
C1117  H561    1.109   1_556 S
C1118  H1124   1.108   .     S
C1118  C1119   1.526   .     S
C1119  H1120   1.111   .     S
C1119  H1121   1.111   .     S
C1119  H934    1.111   1_655 S
H1123  C554    1.112   1_556 S
