data_str_m2_o2_o10_pcu_sym.244
_audit_creation_date              2020-01-03
_audit_creation_method            'Materials Studio'
_symmetry_space_group_name_H-M    'P1'
_symmetry_Int_Tables_number       1
_symmetry_cell_setting            triclinic
loop_
_symmetry_equiv_pos_as_xyz
  x,y,z
_cell_length_a                    26.1502
_cell_length_b                    30.2683
_cell_length_c                    27.8389
_cell_angle_alpha                 89.9656
_cell_angle_beta                  98.0377
_cell_angle_gamma                 90.9928
loop_
_atom_site_label
_atom_site_type_symbol
_atom_site_fract_x
_atom_site_fract_y
_atom_site_fract_z
_atom_site_U_iso_or_equiv
_atom_site_adp_type
_atom_site_occupancy
C1     C     0.16657   0.16499   0.24999   0.00000  Uiso   1.00
C2     C     0.16669   0.33504   0.25000   0.00000  Uiso   1.00
C3     C     0.20533   0.27114   0.05877   0.00000  Uiso   1.00
C4     C     0.14380   0.21618   0.44346   0.00000  Uiso   1.00
C5     C     0.20402   0.27293   0.10936   0.00000  Uiso   1.00
C6     C     0.14095   0.21746   0.39229   0.00000  Uiso   1.00
C7     C     0.12806   0.22808   0.09983   0.00000  Uiso   1.00
C8     C     0.19215   0.28312   0.39839   0.00000  Uiso   1.00
C9     C     0.12386   0.23186   0.04860   0.00000  Uiso   1.00
C10    C     0.18697   0.28711   0.44826   0.00000  Uiso   1.00
C11    C     0.16463   0.25158   0.02705   0.00000  Uiso   1.00
C12    C     0.16519   0.25175   0.47246   0.00000  Uiso   1.00
C13    C     0.06793   0.24995   0.23755   0.00000  Uiso   1.00
C14    C     0.26540   0.25029   0.26244   0.00000  Uiso   1.00
C15    C     0.01259   0.24971   0.23071   0.00000  Uiso   1.00
C16    C     0.32073   0.25095   0.26921   0.00000  Uiso   1.00
C17    C     0.14769   0.04736   0.28743   0.00000  Uiso   1.00
C18    C     0.15298   0.45225   0.20640   0.00000  Uiso   1.00
C19    C     0.14813   0.09327   0.28764   0.00000  Uiso   1.00
C20    C     0.15335   0.40633   0.20641   0.00000  Uiso   1.00
C21    C     0.16648   0.11677   0.24996   0.00000  Uiso   1.00
C22    C     0.16654   0.38332   0.24998   0.00000  Uiso   1.00
C23    C     0.18474   0.09387   0.21224   0.00000  Uiso   1.00
C24    C     0.17946   0.40678   0.29353   0.00000  Uiso   1.00
C25    C     0.18490   0.04795   0.21232   0.00000  Uiso   1.00
C26    C     0.17960   0.45268   0.29346   0.00000  Uiso   1.00
C27    C     0.16624   0.02433   0.24986   0.00000  Uiso   1.00
C28    C     0.16627   0.47578   0.24990   0.00000  Uiso   1.00
Cu29   Cu    0.16667   0.25000   0.29822   0.00000  Uiso   1.00
Cu30   Cu    0.16667   0.25001   0.20178   0.00000  Uiso   1.00
H31    H     0.32586   0.24827   0.19379   0.00000  Uiso   1.00
H32    H     0.00745   0.25266   0.30607   0.00000  Uiso   1.00
H33    H     0.13229   0.02988   0.31634   0.00000  Uiso   1.00
H34    H     0.14166   0.46930   0.17248   0.00000  Uiso   1.00
H35    H     0.13343   0.11031   0.31686   0.00000  Uiso   1.00
H36    H     0.14263   0.38889   0.17245   0.00000  Uiso   1.00
H37    H     0.19971   0.11144   0.18315   0.00000  Uiso   1.00
H38    H     0.19005   0.38975   0.32756   0.00000  Uiso   1.00
H39    H     0.20026   0.03095   0.18339   0.00000  Uiso   1.00
H40    H     0.19077   0.47009   0.32738   0.00000  Uiso   1.00
H41    H     0.23829   0.28538   0.04474   0.00000  Uiso   1.00
H42    H     0.12874   0.18743   0.46016   0.00000  Uiso   1.00
N43    N     0.16667   0.25001   0.12934   0.00000  Uiso   1.00
N44    N     0.16667   0.24999   0.37066   0.00000  Uiso   1.00
O45    O     0.16667   0.18573   0.29072   0.00000  Uiso   1.00
O46    O     0.16666   0.31428   0.20929   0.00000  Uiso   1.00
O47    O     0.16667   0.18573   0.20928   0.00000  Uiso   1.00
O48    O     0.16666   0.31427   0.29072   0.00000  Uiso   1.00
O49    O     0.09161   0.25000   0.28132   0.00000  Uiso   1.00
O50    O     0.24172   0.25001   0.21868   0.00000  Uiso   1.00
O51    O     0.09161   0.25000   0.19989   0.00000  Uiso   1.00
O52    O     0.24172   0.25000   0.30011   0.00000  Uiso   1.00
O53    O     0.24232   0.29537   0.13958   0.00000  Uiso   1.00
C54    C     0.24331   0.34044   0.12660   0.00000  Uiso   1.00
H55    H     0.26472   0.35928   0.15743   0.00000  Uiso   1.00
H56    H     0.20385   0.35446   0.11921   0.00000  Uiso   1.00
H57    H     0.26422   0.34545   0.09488   0.00000  Uiso   1.00
O58    O     0.11526   0.18439   0.36370   0.00000  Uiso   1.00
C59    C     0.06360   0.18013   0.37269   0.00000  Uiso   1.00
H60    H     0.04075   0.16327   0.34117   0.00000  Uiso   1.00
H61    H     0.04556   0.21273   0.37689   0.00000  Uiso   1.00
H62    H     0.06112   0.15922   0.40510   0.00000  Uiso   1.00
O63    O     0.09047   0.20523   0.12046   0.00000  Uiso   1.00
C64    C     0.09534   0.15949   0.11275   0.00000  Uiso   1.00
H65    H     0.07421   0.14130   0.13870   0.00000  Uiso   1.00
H66    H     0.13625   0.14868   0.11932   0.00000  Uiso   1.00
H67    H     0.07747   0.14990   0.07561   0.00000  Uiso   1.00
O68    O     0.21883   0.31529   0.37633   0.00000  Uiso   1.00
C69    C     0.27229   0.31104   0.39150   0.00000  Uiso   1.00
H70    H     0.28514   0.27633   0.38908   0.00000  Uiso   1.00
H71    H     0.28337   0.32404   0.42885   0.00000  Uiso   1.00
H72    H     0.29341   0.33116   0.36709   0.00000  Uiso   1.00
O73    O     0.07929   0.21613   0.02080   0.00000  Uiso   1.00
C74    C     0.04691   0.25188   0.00506   0.00000  Uiso   1.00
H75    H     0.05349   0.26198   0.46797   0.00000  Uiso   1.00
H76    H     0.05361   0.28159   0.02915   0.00000  Uiso   1.00
C77    C     0.32366   0.23774   0.00410   0.00000  Uiso   1.00
H78    H     0.31686   0.22813   0.04127   0.00000  Uiso   1.00
H79    H     0.29891   0.26628   0.49247   0.00000  Uiso   1.00
C80    C     0.30802   0.19929   0.46937   0.00000  Uiso   1.00
H81    H     0.31355   0.20853   0.43187   0.00000  Uiso   1.00
H82    H     0.26656   0.19086   0.46967   0.00000  Uiso   1.00
H83    H     0.33122   0.16970   0.48066   0.00000  Uiso   1.00
O84    O     0.20422   0.32563   0.47250   0.00000  Uiso   1.00
C85    C     0.16168   0.35270   0.47768   0.00000  Uiso   1.00
H86    H     0.17315   0.37417   0.00988   0.00000  Uiso   1.00
H87    H     0.12674   0.33360   0.48509   0.00000  Uiso   1.00
C88    C     0.14847   0.38218   0.43298   0.00000  Uiso   1.00
H89    H     0.18368   0.40073   0.42585   0.00000  Uiso   1.00
H90    H     0.13454   0.36142   0.40076   0.00000  Uiso   1.00
C91    C     0.10649   0.41489   0.44025   0.00000  Uiso   1.00
H92    H     0.07064   0.39695   0.44664   0.00000  Uiso   1.00
H93    H     0.09774   0.43556   0.40724   0.00000  Uiso   1.00
H94    H     0.11966   0.43687   0.47165   0.00000  Uiso   1.00
C95    C     0.49991   0.16499   0.24999   0.00000  Uiso   1.00
C96    C     0.50003   0.33504   0.25000   0.00000  Uiso   1.00
C97    C     0.53866   0.27114   0.05877   0.00000  Uiso   1.00
C98    C     0.47713   0.21618   0.44346   0.00000  Uiso   1.00
C99    C     0.53735   0.27293   0.10936   0.00000  Uiso   1.00
C100   C     0.47428   0.21746   0.39229   0.00000  Uiso   1.00
C101   C     0.46140   0.22808   0.09983   0.00000  Uiso   1.00
C102   C     0.52548   0.28312   0.39839   0.00000  Uiso   1.00
C103   C     0.45720   0.23186   0.04860   0.00000  Uiso   1.00
C104   C     0.52031   0.28711   0.44826   0.00000  Uiso   1.00
C105   C     0.49796   0.25158   0.02705   0.00000  Uiso   1.00
C106   C     0.49853   0.25175   0.47246   0.00000  Uiso   1.00
C107   C     0.40126   0.24995   0.23755   0.00000  Uiso   1.00
C108   C     0.59874   0.25029   0.26244   0.00000  Uiso   1.00
C109   C     0.34592   0.24971   0.23071   0.00000  Uiso   1.00
C110   C     0.65406   0.25095   0.26921   0.00000  Uiso   1.00
C111   C     0.48103   0.04736   0.28743   0.00000  Uiso   1.00
C112   C     0.48631   0.45225   0.20640   0.00000  Uiso   1.00
C113   C     0.48147   0.09327   0.28764   0.00000  Uiso   1.00
C114   C     0.48668   0.40633   0.20641   0.00000  Uiso   1.00
C115   C     0.49981   0.11677   0.24996   0.00000  Uiso   1.00
C116   C     0.49988   0.38332   0.24998   0.00000  Uiso   1.00
C117   C     0.51808   0.09387   0.21224   0.00000  Uiso   1.00
C118   C     0.51279   0.40678   0.29353   0.00000  Uiso   1.00
C119   C     0.51823   0.04795   0.21232   0.00000  Uiso   1.00
C120   C     0.51293   0.45268   0.29346   0.00000  Uiso   1.00
C121   C     0.49958   0.02433   0.24986   0.00000  Uiso   1.00
C122   C     0.49960   0.47578   0.24990   0.00000  Uiso   1.00
Cu123  Cu    0.50000   0.25000   0.29822   0.00000  Uiso   1.00
Cu124  Cu    0.50000   0.25001   0.20178   0.00000  Uiso   1.00
H125   H     0.65920   0.24827   0.19379   0.00000  Uiso   1.00
H126   H     0.34078   0.25266   0.30607   0.00000  Uiso   1.00
H127   H     0.46562   0.02988   0.31634   0.00000  Uiso   1.00
H128   H     0.47499   0.46930   0.17248   0.00000  Uiso   1.00
H129   H     0.46676   0.11031   0.31686   0.00000  Uiso   1.00
H130   H     0.47597   0.38889   0.17245   0.00000  Uiso   1.00
H131   H     0.53305   0.11144   0.18315   0.00000  Uiso   1.00
H132   H     0.52338   0.38975   0.32756   0.00000  Uiso   1.00
H133   H     0.53359   0.03095   0.18339   0.00000  Uiso   1.00
H134   H     0.52410   0.47009   0.32738   0.00000  Uiso   1.00
H135   H     0.57163   0.28538   0.04474   0.00000  Uiso   1.00
H136   H     0.46207   0.18743   0.46016   0.00000  Uiso   1.00
N137   N     0.50000   0.25001   0.12934   0.00000  Uiso   1.00
N138   N     0.50000   0.24999   0.37066   0.00000  Uiso   1.00
O139   O     0.50000   0.18573   0.29072   0.00000  Uiso   1.00
O140   O     0.50000   0.31428   0.20929   0.00000  Uiso   1.00
O141   O     0.50000   0.18573   0.20928   0.00000  Uiso   1.00
O142   O     0.50000   0.31427   0.29072   0.00000  Uiso   1.00
O143   O     0.42495   0.25000   0.28132   0.00000  Uiso   1.00
O144   O     0.57505   0.25001   0.21868   0.00000  Uiso   1.00
O145   O     0.42495   0.25000   0.19989   0.00000  Uiso   1.00
O146   O     0.57505   0.25000   0.30011   0.00000  Uiso   1.00
O147   O     0.57566   0.29537   0.13958   0.00000  Uiso   1.00
C148   C     0.57664   0.34044   0.12660   0.00000  Uiso   1.00
H149   H     0.59805   0.35928   0.15743   0.00000  Uiso   1.00
H150   H     0.53718   0.35446   0.11921   0.00000  Uiso   1.00
H151   H     0.59756   0.34545   0.09488   0.00000  Uiso   1.00
O152   O     0.44860   0.18439   0.36370   0.00000  Uiso   1.00
C153   C     0.39693   0.18013   0.37269   0.00000  Uiso   1.00
H154   H     0.37408   0.16327   0.34117   0.00000  Uiso   1.00
H155   H     0.37889   0.21273   0.37689   0.00000  Uiso   1.00
H156   H     0.39446   0.15922   0.40510   0.00000  Uiso   1.00
O157   O     0.42380   0.20523   0.12046   0.00000  Uiso   1.00
C158   C     0.42867   0.15949   0.11275   0.00000  Uiso   1.00
H159   H     0.40754   0.14130   0.13870   0.00000  Uiso   1.00
H160   H     0.46958   0.14868   0.11932   0.00000  Uiso   1.00
H161   H     0.41081   0.14990   0.07561   0.00000  Uiso   1.00
O162   O     0.55216   0.31529   0.37633   0.00000  Uiso   1.00
C163   C     0.60563   0.31104   0.39150   0.00000  Uiso   1.00
H164   H     0.61847   0.27633   0.38908   0.00000  Uiso   1.00
H165   H     0.61670   0.32404   0.42885   0.00000  Uiso   1.00
H166   H     0.62674   0.33116   0.36709   0.00000  Uiso   1.00
O167   O     0.41263   0.21613   0.02080   0.00000  Uiso   1.00
C168   C     0.38024   0.25188   0.00506   0.00000  Uiso   1.00
H169   H     0.38682   0.26198   0.46797   0.00000  Uiso   1.00
H170   H     0.38694   0.28159   0.02915   0.00000  Uiso   1.00
C171   C     0.65700   0.23774   0.00410   0.00000  Uiso   1.00
H172   H     0.65020   0.22813   0.04127   0.00000  Uiso   1.00
H173   H     0.63224   0.26628   0.49247   0.00000  Uiso   1.00
C174   C     0.64136   0.19929   0.46937   0.00000  Uiso   1.00
H175   H     0.64689   0.20853   0.43187   0.00000  Uiso   1.00
H176   H     0.59990   0.19086   0.46967   0.00000  Uiso   1.00
H177   H     0.66455   0.16970   0.48066   0.00000  Uiso   1.00
O178   O     0.53755   0.32563   0.47250   0.00000  Uiso   1.00
C179   C     0.49501   0.35270   0.47768   0.00000  Uiso   1.00
H180   H     0.50649   0.37417   0.00988   0.00000  Uiso   1.00
H181   H     0.46007   0.33360   0.48509   0.00000  Uiso   1.00
C182   C     0.48181   0.38218   0.43298   0.00000  Uiso   1.00
H183   H     0.51702   0.40073   0.42585   0.00000  Uiso   1.00
H184   H     0.46787   0.36142   0.40076   0.00000  Uiso   1.00
C185   C     0.43982   0.41489   0.44025   0.00000  Uiso   1.00
H186   H     0.40397   0.39695   0.44664   0.00000  Uiso   1.00
H187   H     0.43107   0.43556   0.40724   0.00000  Uiso   1.00
H188   H     0.45300   0.43687   0.47165   0.00000  Uiso   1.00
C189   C     0.83324   0.16499   0.24999   0.00000  Uiso   1.00
C190   C     0.83336   0.33504   0.25000   0.00000  Uiso   1.00
C191   C     0.87199   0.27114   0.05877   0.00000  Uiso   1.00
C192   C     0.81046   0.21618   0.44346   0.00000  Uiso   1.00
C193   C     0.87068   0.27293   0.10936   0.00000  Uiso   1.00
C194   C     0.80761   0.21746   0.39229   0.00000  Uiso   1.00
C195   C     0.79473   0.22808   0.09983   0.00000  Uiso   1.00
C196   C     0.85881   0.28312   0.39839   0.00000  Uiso   1.00
C197   C     0.79053   0.23186   0.04860   0.00000  Uiso   1.00
C198   C     0.85364   0.28711   0.44826   0.00000  Uiso   1.00
C199   C     0.83129   0.25158   0.02705   0.00000  Uiso   1.00
C200   C     0.83186   0.25175   0.47246   0.00000  Uiso   1.00
C201   C     0.73459   0.24995   0.23755   0.00000  Uiso   1.00
C202   C     0.93207   0.25029   0.26244   0.00000  Uiso   1.00
C203   C     0.67925   0.24971   0.23071   0.00000  Uiso   1.00
C204   C     0.98739   0.25095   0.26921   0.00000  Uiso   1.00
C205   C     0.81436   0.04736   0.28743   0.00000  Uiso   1.00
C206   C     0.81964   0.45225   0.20640   0.00000  Uiso   1.00
C207   C     0.81480   0.09327   0.28764   0.00000  Uiso   1.00
C208   C     0.82002   0.40633   0.20641   0.00000  Uiso   1.00
C209   C     0.83314   0.11677   0.24996   0.00000  Uiso   1.00
C210   C     0.83321   0.38332   0.24998   0.00000  Uiso   1.00
C211   C     0.85141   0.09387   0.21224   0.00000  Uiso   1.00
C212   C     0.84612   0.40678   0.29353   0.00000  Uiso   1.00
C213   C     0.85156   0.04795   0.21232   0.00000  Uiso   1.00
C214   C     0.84627   0.45268   0.29346   0.00000  Uiso   1.00
C215   C     0.83291   0.02433   0.24986   0.00000  Uiso   1.00
C216   C     0.83294   0.47578   0.24990   0.00000  Uiso   1.00
Cu217  Cu    0.83333   0.25000   0.29822   0.00000  Uiso   1.00
Cu218  Cu    0.83333   0.25001   0.20178   0.00000  Uiso   1.00
H219   H     0.99253   0.24827   0.19379   0.00000  Uiso   1.00
H220   H     0.67412   0.25266   0.30607   0.00000  Uiso   1.00
H221   H     0.79896   0.02988   0.31634   0.00000  Uiso   1.00
H222   H     0.80832   0.46930   0.17248   0.00000  Uiso   1.00
H223   H     0.80009   0.11031   0.31686   0.00000  Uiso   1.00
H224   H     0.80930   0.38889   0.17245   0.00000  Uiso   1.00
H225   H     0.86638   0.11144   0.18315   0.00000  Uiso   1.00
H226   H     0.85672   0.38975   0.32756   0.00000  Uiso   1.00
H227   H     0.86693   0.03095   0.18339   0.00000  Uiso   1.00
H228   H     0.85744   0.47009   0.32738   0.00000  Uiso   1.00
H229   H     0.90496   0.28538   0.04474   0.00000  Uiso   1.00
H230   H     0.79540   0.18743   0.46016   0.00000  Uiso   1.00
N231   N     0.83333   0.25001   0.12934   0.00000  Uiso   1.00
N232   N     0.83333   0.24999   0.37066   0.00000  Uiso   1.00
O233   O     0.83334   0.18573   0.29072   0.00000  Uiso   1.00
O234   O     0.83333   0.31428   0.20929   0.00000  Uiso   1.00
O235   O     0.83334   0.18573   0.20928   0.00000  Uiso   1.00
O236   O     0.83333   0.31427   0.29072   0.00000  Uiso   1.00
O237   O     0.75828   0.25000   0.28132   0.00000  Uiso   1.00
O238   O     0.90839   0.25001   0.21868   0.00000  Uiso   1.00
O239   O     0.75828   0.25000   0.19989   0.00000  Uiso   1.00
O240   O     0.90839   0.25000   0.30011   0.00000  Uiso   1.00
O241   O     0.90899   0.29537   0.13958   0.00000  Uiso   1.00
C242   C     0.90997   0.34044   0.12660   0.00000  Uiso   1.00
H243   H     0.93138   0.35928   0.15743   0.00000  Uiso   1.00
H244   H     0.87052   0.35446   0.11921   0.00000  Uiso   1.00
H245   H     0.93089   0.34545   0.09488   0.00000  Uiso   1.00
O246   O     0.78193   0.18439   0.36370   0.00000  Uiso   1.00
C247   C     0.73026   0.18013   0.37269   0.00000  Uiso   1.00
H248   H     0.70741   0.16327   0.34117   0.00000  Uiso   1.00
H249   H     0.71222   0.21273   0.37689   0.00000  Uiso   1.00
H250   H     0.72779   0.15922   0.40510   0.00000  Uiso   1.00
O251   O     0.75714   0.20523   0.12046   0.00000  Uiso   1.00
C252   C     0.76201   0.15949   0.11275   0.00000  Uiso   1.00
H253   H     0.74088   0.14130   0.13870   0.00000  Uiso   1.00
H254   H     0.80292   0.14868   0.11932   0.00000  Uiso   1.00
H255   H     0.74414   0.14990   0.07561   0.00000  Uiso   1.00
O256   O     0.88549   0.31529   0.37633   0.00000  Uiso   1.00
C257   C     0.93896   0.31104   0.39150   0.00000  Uiso   1.00
H258   H     0.95181   0.27633   0.38908   0.00000  Uiso   1.00
H259   H     0.95003   0.32404   0.42885   0.00000  Uiso   1.00
H260   H     0.96007   0.33116   0.36709   0.00000  Uiso   1.00
O261   O     0.74596   0.21613   0.02080   0.00000  Uiso   1.00
C262   C     0.71358   0.25188   0.00506   0.00000  Uiso   1.00
H263   H     0.72015   0.26198   0.46797   0.00000  Uiso   1.00
H264   H     0.72027   0.28159   0.02915   0.00000  Uiso   1.00
C265   C     0.99033   0.23774   0.00410   0.00000  Uiso   1.00
H266   H     0.98353   0.22813   0.04127   0.00000  Uiso   1.00
H267   H     0.96557   0.26628   0.49247   0.00000  Uiso   1.00
C268   C     0.97469   0.19929   0.46937   0.00000  Uiso   1.00
H269   H     0.98022   0.20853   0.43187   0.00000  Uiso   1.00
H270   H     0.93323   0.19086   0.46967   0.00000  Uiso   1.00
H271   H     0.99788   0.16970   0.48066   0.00000  Uiso   1.00
O272   O     0.87089   0.32563   0.47250   0.00000  Uiso   1.00
C273   C     0.82835   0.35270   0.47768   0.00000  Uiso   1.00
H274   H     0.83982   0.37417   0.00988   0.00000  Uiso   1.00
H275   H     0.79341   0.33360   0.48509   0.00000  Uiso   1.00
C276   C     0.81514   0.38218   0.43298   0.00000  Uiso   1.00
H277   H     0.85035   0.40073   0.42585   0.00000  Uiso   1.00
H278   H     0.80120   0.36142   0.40076   0.00000  Uiso   1.00
C279   C     0.77316   0.41489   0.44025   0.00000  Uiso   1.00
H280   H     0.73731   0.39695   0.44664   0.00000  Uiso   1.00
H281   H     0.76441   0.43556   0.40724   0.00000  Uiso   1.00
H282   H     0.78633   0.43687   0.47165   0.00000  Uiso   1.00
C283   C     0.16657   0.66499   0.24999   0.00000  Uiso   1.00
C284   C     0.16669   0.83504   0.25000   0.00000  Uiso   1.00
C285   C     0.20533   0.77114   0.05877   0.00000  Uiso   1.00
C286   C     0.14380   0.71618   0.44346   0.00000  Uiso   1.00
C287   C     0.20402   0.77293   0.10936   0.00000  Uiso   1.00
C288   C     0.14095   0.71746   0.39229   0.00000  Uiso   1.00
C289   C     0.12806   0.72808   0.09983   0.00000  Uiso   1.00
C290   C     0.19215   0.78312   0.39839   0.00000  Uiso   1.00
C291   C     0.12386   0.73186   0.04860   0.00000  Uiso   1.00
C292   C     0.18697   0.78711   0.44826   0.00000  Uiso   1.00
C293   C     0.16463   0.75158   0.02705   0.00000  Uiso   1.00
C294   C     0.16519   0.75175   0.47246   0.00000  Uiso   1.00
C295   C     0.06793   0.74995   0.23755   0.00000  Uiso   1.00
C296   C     0.26540   0.75029   0.26244   0.00000  Uiso   1.00
C297   C     0.01259   0.74971   0.23071   0.00000  Uiso   1.00
C298   C     0.32073   0.75095   0.26921   0.00000  Uiso   1.00
C299   C     0.14769   0.54736   0.28743   0.00000  Uiso   1.00
C300   C     0.15298   0.95225   0.20640   0.00000  Uiso   1.00
C301   C     0.14813   0.59327   0.28764   0.00000  Uiso   1.00
C302   C     0.15335   0.90633   0.20641   0.00000  Uiso   1.00
C303   C     0.16648   0.61677   0.24996   0.00000  Uiso   1.00
C304   C     0.16654   0.88332   0.24998   0.00000  Uiso   1.00
C305   C     0.18474   0.59387   0.21224   0.00000  Uiso   1.00
C306   C     0.17946   0.90678   0.29353   0.00000  Uiso   1.00
C307   C     0.18490   0.54795   0.21232   0.00000  Uiso   1.00
C308   C     0.17960   0.95268   0.29346   0.00000  Uiso   1.00
C309   C     0.16624   0.52433   0.24986   0.00000  Uiso   1.00
C310   C     0.16627   0.97578   0.24990   0.00000  Uiso   1.00
Cu311  Cu    0.16667   0.75000   0.29822   0.00000  Uiso   1.00
Cu312  Cu    0.16667   0.75001   0.20178   0.00000  Uiso   1.00
H313   H     0.32586   0.74827   0.19379   0.00000  Uiso   1.00
H314   H     0.00745   0.75266   0.30607   0.00000  Uiso   1.00
H315   H     0.13229   0.52988   0.31634   0.00000  Uiso   1.00
H316   H     0.14166   0.96930   0.17248   0.00000  Uiso   1.00
H317   H     0.13343   0.61031   0.31686   0.00000  Uiso   1.00
H318   H     0.14263   0.88889   0.17245   0.00000  Uiso   1.00
H319   H     0.19971   0.61144   0.18315   0.00000  Uiso   1.00
H320   H     0.19005   0.88975   0.32756   0.00000  Uiso   1.00
H321   H     0.20026   0.53095   0.18339   0.00000  Uiso   1.00
H322   H     0.19077   0.97009   0.32738   0.00000  Uiso   1.00
H323   H     0.23829   0.78538   0.04474   0.00000  Uiso   1.00
H324   H     0.12874   0.68743   0.46016   0.00000  Uiso   1.00
N325   N     0.16667   0.75001   0.12934   0.00000  Uiso   1.00
N326   N     0.16667   0.74999   0.37066   0.00000  Uiso   1.00
O327   O     0.16667   0.68573   0.29072   0.00000  Uiso   1.00
O328   O     0.16666   0.81428   0.20929   0.00000  Uiso   1.00
O329   O     0.16667   0.68573   0.20928   0.00000  Uiso   1.00
O330   O     0.16666   0.81427   0.29072   0.00000  Uiso   1.00
O331   O     0.09161   0.75000   0.28132   0.00000  Uiso   1.00
O332   O     0.24172   0.75001   0.21868   0.00000  Uiso   1.00
O333   O     0.09161   0.75000   0.19989   0.00000  Uiso   1.00
O334   O     0.24172   0.75000   0.30011   0.00000  Uiso   1.00
O335   O     0.24232   0.79537   0.13958   0.00000  Uiso   1.00
C336   C     0.24331   0.84044   0.12660   0.00000  Uiso   1.00
H337   H     0.26472   0.85928   0.15743   0.00000  Uiso   1.00
H338   H     0.20385   0.85446   0.11921   0.00000  Uiso   1.00
H339   H     0.26422   0.84545   0.09488   0.00000  Uiso   1.00
O340   O     0.11526   0.68439   0.36370   0.00000  Uiso   1.00
C341   C     0.06360   0.68013   0.37269   0.00000  Uiso   1.00
H342   H     0.04075   0.66327   0.34117   0.00000  Uiso   1.00
H343   H     0.04556   0.71273   0.37689   0.00000  Uiso   1.00
H344   H     0.06112   0.65922   0.40510   0.00000  Uiso   1.00
O345   O     0.09047   0.70523   0.12046   0.00000  Uiso   1.00
C346   C     0.09534   0.65949   0.11275   0.00000  Uiso   1.00
H347   H     0.07421   0.64130   0.13870   0.00000  Uiso   1.00
H348   H     0.13625   0.64868   0.11932   0.00000  Uiso   1.00
H349   H     0.07747   0.64990   0.07561   0.00000  Uiso   1.00
O350   O     0.21883   0.81529   0.37633   0.00000  Uiso   1.00
C351   C     0.27229   0.81104   0.39150   0.00000  Uiso   1.00
H352   H     0.28514   0.77633   0.38908   0.00000  Uiso   1.00
H353   H     0.28337   0.82404   0.42885   0.00000  Uiso   1.00
H354   H     0.29341   0.83116   0.36709   0.00000  Uiso   1.00
O355   O     0.07929   0.71613   0.02080   0.00000  Uiso   1.00
C356   C     0.04691   0.75188   0.00506   0.00000  Uiso   1.00
H357   H     0.05349   0.76198   0.46797   0.00000  Uiso   1.00
H358   H     0.05361   0.78159   0.02915   0.00000  Uiso   1.00
C359   C     0.32366   0.73774   0.00410   0.00000  Uiso   1.00
H360   H     0.31686   0.72813   0.04127   0.00000  Uiso   1.00
H361   H     0.29891   0.76628   0.49247   0.00000  Uiso   1.00
C362   C     0.30802   0.69929   0.46937   0.00000  Uiso   1.00
H363   H     0.31355   0.70853   0.43187   0.00000  Uiso   1.00
H364   H     0.26656   0.69086   0.46967   0.00000  Uiso   1.00
H365   H     0.33122   0.66970   0.48066   0.00000  Uiso   1.00
O366   O     0.20422   0.82563   0.47250   0.00000  Uiso   1.00
C367   C     0.16168   0.85270   0.47768   0.00000  Uiso   1.00
H368   H     0.17315   0.87417   0.00988   0.00000  Uiso   1.00
H369   H     0.12674   0.83360   0.48509   0.00000  Uiso   1.00
C370   C     0.14847   0.88218   0.43298   0.00000  Uiso   1.00
H371   H     0.18368   0.90073   0.42585   0.00000  Uiso   1.00
H372   H     0.13454   0.86142   0.40076   0.00000  Uiso   1.00
C373   C     0.10649   0.91489   0.44025   0.00000  Uiso   1.00
H374   H     0.07064   0.89695   0.44664   0.00000  Uiso   1.00
H375   H     0.09774   0.93556   0.40724   0.00000  Uiso   1.00
H376   H     0.11966   0.93687   0.47165   0.00000  Uiso   1.00
C377   C     0.49991   0.66499   0.24999   0.00000  Uiso   1.00
C378   C     0.50003   0.83504   0.25000   0.00000  Uiso   1.00
C379   C     0.53866   0.77114   0.05877   0.00000  Uiso   1.00
C380   C     0.47713   0.71618   0.44346   0.00000  Uiso   1.00
C381   C     0.53735   0.77293   0.10936   0.00000  Uiso   1.00
C382   C     0.47428   0.71746   0.39229   0.00000  Uiso   1.00
C383   C     0.46140   0.72808   0.09983   0.00000  Uiso   1.00
C384   C     0.52548   0.78312   0.39839   0.00000  Uiso   1.00
C385   C     0.45720   0.73186   0.04860   0.00000  Uiso   1.00
C386   C     0.52031   0.78711   0.44826   0.00000  Uiso   1.00
C387   C     0.49796   0.75158   0.02705   0.00000  Uiso   1.00
C388   C     0.49853   0.75175   0.47246   0.00000  Uiso   1.00
C389   C     0.40126   0.74995   0.23755   0.00000  Uiso   1.00
C390   C     0.59874   0.75029   0.26244   0.00000  Uiso   1.00
C391   C     0.34592   0.74971   0.23071   0.00000  Uiso   1.00
C392   C     0.65406   0.75095   0.26921   0.00000  Uiso   1.00
C393   C     0.48103   0.54736   0.28743   0.00000  Uiso   1.00
C394   C     0.48631   0.95225   0.20640   0.00000  Uiso   1.00
C395   C     0.48147   0.59327   0.28764   0.00000  Uiso   1.00
C396   C     0.48668   0.90633   0.20641   0.00000  Uiso   1.00
C397   C     0.49981   0.61677   0.24996   0.00000  Uiso   1.00
C398   C     0.49988   0.88332   0.24998   0.00000  Uiso   1.00
C399   C     0.51808   0.59387   0.21224   0.00000  Uiso   1.00
C400   C     0.51279   0.90678   0.29353   0.00000  Uiso   1.00
C401   C     0.51823   0.54795   0.21232   0.00000  Uiso   1.00
C402   C     0.51293   0.95268   0.29346   0.00000  Uiso   1.00
C403   C     0.49958   0.52433   0.24986   0.00000  Uiso   1.00
C404   C     0.49960   0.97578   0.24990   0.00000  Uiso   1.00
Cu405  Cu    0.50000   0.75000   0.29822   0.00000  Uiso   1.00
Cu406  Cu    0.50000   0.75001   0.20178   0.00000  Uiso   1.00
H407   H     0.65920   0.74827   0.19379   0.00000  Uiso   1.00
H408   H     0.34078   0.75266   0.30607   0.00000  Uiso   1.00
H409   H     0.46562   0.52988   0.31634   0.00000  Uiso   1.00
H410   H     0.47499   0.96930   0.17248   0.00000  Uiso   1.00
H411   H     0.46676   0.61031   0.31686   0.00000  Uiso   1.00
H412   H     0.47597   0.88889   0.17245   0.00000  Uiso   1.00
H413   H     0.53305   0.61144   0.18315   0.00000  Uiso   1.00
H414   H     0.52338   0.88975   0.32756   0.00000  Uiso   1.00
H415   H     0.53359   0.53095   0.18339   0.00000  Uiso   1.00
H416   H     0.52410   0.97009   0.32738   0.00000  Uiso   1.00
H417   H     0.57163   0.78538   0.04474   0.00000  Uiso   1.00
H418   H     0.46207   0.68743   0.46016   0.00000  Uiso   1.00
N419   N     0.50000   0.75001   0.12934   0.00000  Uiso   1.00
N420   N     0.50000   0.74999   0.37066   0.00000  Uiso   1.00
O421   O     0.50000   0.68573   0.29072   0.00000  Uiso   1.00
O422   O     0.50000   0.81428   0.20929   0.00000  Uiso   1.00
O423   O     0.50000   0.68573   0.20928   0.00000  Uiso   1.00
O424   O     0.50000   0.81427   0.29072   0.00000  Uiso   1.00
O425   O     0.42495   0.75000   0.28132   0.00000  Uiso   1.00
O426   O     0.57505   0.75001   0.21868   0.00000  Uiso   1.00
O427   O     0.42495   0.75000   0.19989   0.00000  Uiso   1.00
O428   O     0.57505   0.75000   0.30011   0.00000  Uiso   1.00
O429   O     0.57566   0.79537   0.13958   0.00000  Uiso   1.00
C430   C     0.57664   0.84044   0.12660   0.00000  Uiso   1.00
H431   H     0.59805   0.85928   0.15743   0.00000  Uiso   1.00
H432   H     0.53718   0.85446   0.11921   0.00000  Uiso   1.00
H433   H     0.59756   0.84545   0.09488   0.00000  Uiso   1.00
O434   O     0.44860   0.68439   0.36370   0.00000  Uiso   1.00
C435   C     0.39693   0.68013   0.37269   0.00000  Uiso   1.00
H436   H     0.37408   0.66327   0.34117   0.00000  Uiso   1.00
H437   H     0.37889   0.71273   0.37689   0.00000  Uiso   1.00
H438   H     0.39446   0.65922   0.40510   0.00000  Uiso   1.00
O439   O     0.42380   0.70523   0.12046   0.00000  Uiso   1.00
C440   C     0.42867   0.65949   0.11275   0.00000  Uiso   1.00
H441   H     0.40754   0.64130   0.13870   0.00000  Uiso   1.00
H442   H     0.46958   0.64868   0.11932   0.00000  Uiso   1.00
H443   H     0.41081   0.64990   0.07561   0.00000  Uiso   1.00
O444   O     0.55216   0.81529   0.37633   0.00000  Uiso   1.00
C445   C     0.60563   0.81104   0.39150   0.00000  Uiso   1.00
H446   H     0.61847   0.77633   0.38908   0.00000  Uiso   1.00
H447   H     0.61670   0.82404   0.42885   0.00000  Uiso   1.00
H448   H     0.62674   0.83116   0.36709   0.00000  Uiso   1.00
O449   O     0.41263   0.71613   0.02080   0.00000  Uiso   1.00
C450   C     0.38024   0.75188   0.00506   0.00000  Uiso   1.00
H451   H     0.38682   0.76198   0.46797   0.00000  Uiso   1.00
H452   H     0.38694   0.78159   0.02915   0.00000  Uiso   1.00
C453   C     0.65700   0.73774   0.00410   0.00000  Uiso   1.00
H454   H     0.65020   0.72813   0.04127   0.00000  Uiso   1.00
H455   H     0.63224   0.76628   0.49247   0.00000  Uiso   1.00
C456   C     0.64136   0.69929   0.46937   0.00000  Uiso   1.00
H457   H     0.64689   0.70853   0.43187   0.00000  Uiso   1.00
H458   H     0.59990   0.69086   0.46967   0.00000  Uiso   1.00
H459   H     0.66455   0.66970   0.48066   0.00000  Uiso   1.00
O460   O     0.53755   0.82563   0.47250   0.00000  Uiso   1.00
C461   C     0.49501   0.85270   0.47768   0.00000  Uiso   1.00
H462   H     0.50649   0.87417   0.00988   0.00000  Uiso   1.00
H463   H     0.46007   0.83360   0.48509   0.00000  Uiso   1.00
C464   C     0.48181   0.88218   0.43298   0.00000  Uiso   1.00
H465   H     0.51702   0.90073   0.42585   0.00000  Uiso   1.00
H466   H     0.46787   0.86142   0.40076   0.00000  Uiso   1.00
C467   C     0.43982   0.91489   0.44025   0.00000  Uiso   1.00
H468   H     0.40397   0.89695   0.44664   0.00000  Uiso   1.00
H469   H     0.43107   0.93556   0.40724   0.00000  Uiso   1.00
H470   H     0.45300   0.93687   0.47165   0.00000  Uiso   1.00
C471   C     0.83324   0.66499   0.24999   0.00000  Uiso   1.00
C472   C     0.83336   0.83504   0.25000   0.00000  Uiso   1.00
C473   C     0.87199   0.77114   0.05877   0.00000  Uiso   1.00
C474   C     0.81046   0.71618   0.44346   0.00000  Uiso   1.00
C475   C     0.87068   0.77293   0.10936   0.00000  Uiso   1.00
C476   C     0.80761   0.71746   0.39229   0.00000  Uiso   1.00
C477   C     0.79473   0.72808   0.09983   0.00000  Uiso   1.00
C478   C     0.85881   0.78312   0.39839   0.00000  Uiso   1.00
C479   C     0.79053   0.73186   0.04860   0.00000  Uiso   1.00
C480   C     0.85364   0.78711   0.44826   0.00000  Uiso   1.00
C481   C     0.83129   0.75158   0.02705   0.00000  Uiso   1.00
C482   C     0.83186   0.75175   0.47246   0.00000  Uiso   1.00
C483   C     0.73459   0.74995   0.23755   0.00000  Uiso   1.00
C484   C     0.93207   0.75029   0.26244   0.00000  Uiso   1.00
C485   C     0.67925   0.74971   0.23071   0.00000  Uiso   1.00
C486   C     0.98739   0.75095   0.26921   0.00000  Uiso   1.00
C487   C     0.81436   0.54736   0.28743   0.00000  Uiso   1.00
C488   C     0.81964   0.95225   0.20640   0.00000  Uiso   1.00
C489   C     0.81480   0.59327   0.28764   0.00000  Uiso   1.00
C490   C     0.82002   0.90633   0.20641   0.00000  Uiso   1.00
C491   C     0.83314   0.61677   0.24996   0.00000  Uiso   1.00
C492   C     0.83321   0.88332   0.24998   0.00000  Uiso   1.00
C493   C     0.85141   0.59387   0.21224   0.00000  Uiso   1.00
C494   C     0.84612   0.90678   0.29353   0.00000  Uiso   1.00
C495   C     0.85156   0.54795   0.21232   0.00000  Uiso   1.00
C496   C     0.84627   0.95268   0.29346   0.00000  Uiso   1.00
C497   C     0.83291   0.52433   0.24986   0.00000  Uiso   1.00
C498   C     0.83294   0.97578   0.24990   0.00000  Uiso   1.00
Cu499  Cu    0.83333   0.75000   0.29822   0.00000  Uiso   1.00
Cu500  Cu    0.83333   0.75001   0.20178   0.00000  Uiso   1.00
H501   H     0.99253   0.74827   0.19379   0.00000  Uiso   1.00
H502   H     0.67412   0.75266   0.30607   0.00000  Uiso   1.00
H503   H     0.79896   0.52988   0.31634   0.00000  Uiso   1.00
H504   H     0.80832   0.96930   0.17248   0.00000  Uiso   1.00
H505   H     0.80009   0.61031   0.31686   0.00000  Uiso   1.00
H506   H     0.80930   0.88889   0.17245   0.00000  Uiso   1.00
H507   H     0.86638   0.61144   0.18315   0.00000  Uiso   1.00
H508   H     0.85672   0.88975   0.32756   0.00000  Uiso   1.00
H509   H     0.86693   0.53095   0.18339   0.00000  Uiso   1.00
H510   H     0.85744   0.97009   0.32738   0.00000  Uiso   1.00
H511   H     0.90496   0.78538   0.04474   0.00000  Uiso   1.00
H512   H     0.79540   0.68743   0.46016   0.00000  Uiso   1.00
N513   N     0.83333   0.75001   0.12934   0.00000  Uiso   1.00
N514   N     0.83333   0.74999   0.37066   0.00000  Uiso   1.00
O515   O     0.83334   0.68573   0.29072   0.00000  Uiso   1.00
O516   O     0.83333   0.81428   0.20929   0.00000  Uiso   1.00
O517   O     0.83334   0.68573   0.20928   0.00000  Uiso   1.00
O518   O     0.83333   0.81427   0.29072   0.00000  Uiso   1.00
O519   O     0.75828   0.75000   0.28132   0.00000  Uiso   1.00
O520   O     0.90839   0.75001   0.21868   0.00000  Uiso   1.00
O521   O     0.75828   0.75000   0.19989   0.00000  Uiso   1.00
O522   O     0.90839   0.75000   0.30011   0.00000  Uiso   1.00
O523   O     0.90899   0.79537   0.13958   0.00000  Uiso   1.00
C524   C     0.90997   0.84044   0.12660   0.00000  Uiso   1.00
H525   H     0.93138   0.85928   0.15743   0.00000  Uiso   1.00
H526   H     0.87052   0.85446   0.11921   0.00000  Uiso   1.00
H527   H     0.93089   0.84545   0.09488   0.00000  Uiso   1.00
O528   O     0.78193   0.68439   0.36370   0.00000  Uiso   1.00
C529   C     0.73026   0.68013   0.37269   0.00000  Uiso   1.00
H530   H     0.70741   0.66327   0.34117   0.00000  Uiso   1.00
H531   H     0.71222   0.71273   0.37689   0.00000  Uiso   1.00
H532   H     0.72779   0.65922   0.40510   0.00000  Uiso   1.00
O533   O     0.75714   0.70523   0.12046   0.00000  Uiso   1.00
C534   C     0.76201   0.65949   0.11275   0.00000  Uiso   1.00
H535   H     0.74088   0.64130   0.13870   0.00000  Uiso   1.00
H536   H     0.80292   0.64868   0.11932   0.00000  Uiso   1.00
H537   H     0.74414   0.64990   0.07561   0.00000  Uiso   1.00
O538   O     0.88549   0.81529   0.37633   0.00000  Uiso   1.00
C539   C     0.93896   0.81104   0.39150   0.00000  Uiso   1.00
H540   H     0.95181   0.77633   0.38908   0.00000  Uiso   1.00
H541   H     0.95003   0.82404   0.42885   0.00000  Uiso   1.00
H542   H     0.96007   0.83116   0.36709   0.00000  Uiso   1.00
O543   O     0.74596   0.71613   0.02080   0.00000  Uiso   1.00
C544   C     0.71358   0.75188   0.00506   0.00000  Uiso   1.00
H545   H     0.72015   0.76198   0.46797   0.00000  Uiso   1.00
H546   H     0.72027   0.78159   0.02915   0.00000  Uiso   1.00
C547   C     0.99033   0.73774   0.00410   0.00000  Uiso   1.00
H548   H     0.98353   0.72813   0.04127   0.00000  Uiso   1.00
H549   H     0.96557   0.76628   0.49247   0.00000  Uiso   1.00
C550   C     0.97469   0.69929   0.46937   0.00000  Uiso   1.00
H551   H     0.98022   0.70853   0.43187   0.00000  Uiso   1.00
H552   H     0.93323   0.69086   0.46967   0.00000  Uiso   1.00
H553   H     0.99788   0.66970   0.48066   0.00000  Uiso   1.00
O554   O     0.87089   0.82563   0.47250   0.00000  Uiso   1.00
C555   C     0.82835   0.85270   0.47768   0.00000  Uiso   1.00
H556   H     0.83982   0.87417   0.00988   0.00000  Uiso   1.00
H557   H     0.79341   0.83360   0.48509   0.00000  Uiso   1.00
C558   C     0.81514   0.88218   0.43298   0.00000  Uiso   1.00
H559   H     0.85035   0.90073   0.42585   0.00000  Uiso   1.00
H560   H     0.80120   0.86142   0.40076   0.00000  Uiso   1.00
C561   C     0.77316   0.91489   0.44025   0.00000  Uiso   1.00
H562   H     0.73731   0.89695   0.44664   0.00000  Uiso   1.00
H563   H     0.76441   0.93556   0.40724   0.00000  Uiso   1.00
H564   H     0.78633   0.93687   0.47165   0.00000  Uiso   1.00
C565   C     0.16657   0.16499   0.74999   0.00000  Uiso   1.00
C566   C     0.16669   0.33504   0.75000   0.00000  Uiso   1.00
C567   C     0.20533   0.27114   0.55877   0.00000  Uiso   1.00
C568   C     0.14380   0.21618   0.94346   0.00000  Uiso   1.00
C569   C     0.20402   0.27293   0.60936   0.00000  Uiso   1.00
C570   C     0.14095   0.21746   0.89229   0.00000  Uiso   1.00
C571   C     0.12806   0.22808   0.59983   0.00000  Uiso   1.00
C572   C     0.19215   0.28312   0.89839   0.00000  Uiso   1.00
C573   C     0.12386   0.23186   0.54860   0.00000  Uiso   1.00
C574   C     0.18697   0.28711   0.94826   0.00000  Uiso   1.00
C575   C     0.16463   0.25158   0.52705   0.00000  Uiso   1.00
C576   C     0.16519   0.25175   0.97246   0.00000  Uiso   1.00
C577   C     0.06793   0.24995   0.73755   0.00000  Uiso   1.00
C578   C     0.26540   0.25029   0.76244   0.00000  Uiso   1.00
C579   C     0.01259   0.24971   0.73071   0.00000  Uiso   1.00
C580   C     0.32073   0.25095   0.76921   0.00000  Uiso   1.00
C581   C     0.14769   0.04736   0.78743   0.00000  Uiso   1.00
C582   C     0.15298   0.45225   0.70640   0.00000  Uiso   1.00
C583   C     0.14813   0.09327   0.78764   0.00000  Uiso   1.00
C584   C     0.15335   0.40633   0.70641   0.00000  Uiso   1.00
C585   C     0.16648   0.11677   0.74996   0.00000  Uiso   1.00
C586   C     0.16654   0.38332   0.74998   0.00000  Uiso   1.00
C587   C     0.18474   0.09387   0.71224   0.00000  Uiso   1.00
C588   C     0.17946   0.40678   0.79353   0.00000  Uiso   1.00
C589   C     0.18490   0.04795   0.71232   0.00000  Uiso   1.00
C590   C     0.17960   0.45268   0.79346   0.00000  Uiso   1.00
C591   C     0.16624   0.02433   0.74986   0.00000  Uiso   1.00
C592   C     0.16627   0.47578   0.74990   0.00000  Uiso   1.00
Cu593  Cu    0.16667   0.25000   0.79822   0.00000  Uiso   1.00
Cu594  Cu    0.16667   0.25001   0.70178   0.00000  Uiso   1.00
H595   H     0.32586   0.24827   0.69379   0.00000  Uiso   1.00
H596   H     0.00745   0.25266   0.80607   0.00000  Uiso   1.00
H597   H     0.13229   0.02988   0.81634   0.00000  Uiso   1.00
H598   H     0.14166   0.46930   0.67248   0.00000  Uiso   1.00
H599   H     0.13343   0.11031   0.81686   0.00000  Uiso   1.00
H600   H     0.14263   0.38889   0.67245   0.00000  Uiso   1.00
H601   H     0.19971   0.11144   0.68315   0.00000  Uiso   1.00
H602   H     0.19005   0.38975   0.82756   0.00000  Uiso   1.00
H603   H     0.20026   0.03095   0.68339   0.00000  Uiso   1.00
H604   H     0.19077   0.47009   0.82738   0.00000  Uiso   1.00
H605   H     0.23829   0.28538   0.54474   0.00000  Uiso   1.00
H606   H     0.12874   0.18743   0.96016   0.00000  Uiso   1.00
N607   N     0.16667   0.25001   0.62934   0.00000  Uiso   1.00
N608   N     0.16667   0.24999   0.87066   0.00000  Uiso   1.00
O609   O     0.16667   0.18573   0.79072   0.00000  Uiso   1.00
O610   O     0.16666   0.31428   0.70929   0.00000  Uiso   1.00
O611   O     0.16667   0.18573   0.70928   0.00000  Uiso   1.00
O612   O     0.16666   0.31427   0.79072   0.00000  Uiso   1.00
O613   O     0.09161   0.25000   0.78132   0.00000  Uiso   1.00
O614   O     0.24172   0.25001   0.71868   0.00000  Uiso   1.00
O615   O     0.09161   0.25000   0.69989   0.00000  Uiso   1.00
O616   O     0.24172   0.25000   0.80011   0.00000  Uiso   1.00
O617   O     0.24232   0.29537   0.63958   0.00000  Uiso   1.00
C618   C     0.24331   0.34044   0.62660   0.00000  Uiso   1.00
H619   H     0.26472   0.35928   0.65743   0.00000  Uiso   1.00
H620   H     0.20385   0.35446   0.61921   0.00000  Uiso   1.00
H621   H     0.26422   0.34545   0.59488   0.00000  Uiso   1.00
O622   O     0.11526   0.18439   0.86370   0.00000  Uiso   1.00
C623   C     0.06360   0.18013   0.87269   0.00000  Uiso   1.00
H624   H     0.04075   0.16327   0.84117   0.00000  Uiso   1.00
H625   H     0.04556   0.21273   0.87689   0.00000  Uiso   1.00
H626   H     0.06112   0.15922   0.90510   0.00000  Uiso   1.00
O627   O     0.09047   0.20523   0.62046   0.00000  Uiso   1.00
C628   C     0.09534   0.15949   0.61275   0.00000  Uiso   1.00
H629   H     0.07421   0.14130   0.63870   0.00000  Uiso   1.00
H630   H     0.13625   0.14868   0.61932   0.00000  Uiso   1.00
H631   H     0.07747   0.14990   0.57561   0.00000  Uiso   1.00
O632   O     0.21883   0.31529   0.87633   0.00000  Uiso   1.00
C633   C     0.27229   0.31104   0.89150   0.00000  Uiso   1.00
H634   H     0.28514   0.27633   0.88908   0.00000  Uiso   1.00
H635   H     0.28337   0.32404   0.92885   0.00000  Uiso   1.00
H636   H     0.29341   0.33116   0.86709   0.00000  Uiso   1.00
O637   O     0.07929   0.21613   0.52080   0.00000  Uiso   1.00
C638   C     0.04691   0.25188   0.50506   0.00000  Uiso   1.00
H639   H     0.05349   0.26198   0.96797   0.00000  Uiso   1.00
H640   H     0.05361   0.28159   0.52915   0.00000  Uiso   1.00
C641   C     0.32366   0.23774   0.50410   0.00000  Uiso   1.00
H642   H     0.31686   0.22813   0.54127   0.00000  Uiso   1.00
H643   H     0.29891   0.26628   0.99247   0.00000  Uiso   1.00
C644   C     0.30802   0.19929   0.96937   0.00000  Uiso   1.00
H645   H     0.31355   0.20853   0.93187   0.00000  Uiso   1.00
H646   H     0.26656   0.19086   0.96967   0.00000  Uiso   1.00
H647   H     0.33122   0.16970   0.98066   0.00000  Uiso   1.00
O648   O     0.20422   0.32563   0.97250   0.00000  Uiso   1.00
C649   C     0.16168   0.35270   0.97768   0.00000  Uiso   1.00
H650   H     0.17315   0.37417   0.50988   0.00000  Uiso   1.00
H651   H     0.12674   0.33360   0.98509   0.00000  Uiso   1.00
C652   C     0.14847   0.38218   0.93298   0.00000  Uiso   1.00
H653   H     0.18368   0.40073   0.92585   0.00000  Uiso   1.00
H654   H     0.13454   0.36142   0.90076   0.00000  Uiso   1.00
C655   C     0.10649   0.41489   0.94025   0.00000  Uiso   1.00
H656   H     0.07064   0.39695   0.94664   0.00000  Uiso   1.00
H657   H     0.09774   0.43556   0.90724   0.00000  Uiso   1.00
H658   H     0.11966   0.43687   0.97165   0.00000  Uiso   1.00
C659   C     0.49991   0.16499   0.74999   0.00000  Uiso   1.00
C660   C     0.50003   0.33504   0.75000   0.00000  Uiso   1.00
C661   C     0.53866   0.27114   0.55877   0.00000  Uiso   1.00
C662   C     0.47713   0.21618   0.94346   0.00000  Uiso   1.00
C663   C     0.53735   0.27293   0.60936   0.00000  Uiso   1.00
C664   C     0.47428   0.21746   0.89229   0.00000  Uiso   1.00
C665   C     0.46140   0.22808   0.59983   0.00000  Uiso   1.00
C666   C     0.52548   0.28312   0.89839   0.00000  Uiso   1.00
C667   C     0.45720   0.23186   0.54860   0.00000  Uiso   1.00
C668   C     0.52031   0.28711   0.94826   0.00000  Uiso   1.00
C669   C     0.49796   0.25158   0.52705   0.00000  Uiso   1.00
C670   C     0.49853   0.25175   0.97246   0.00000  Uiso   1.00
C671   C     0.40126   0.24995   0.73755   0.00000  Uiso   1.00
C672   C     0.59874   0.25029   0.76244   0.00000  Uiso   1.00
C673   C     0.34592   0.24971   0.73071   0.00000  Uiso   1.00
C674   C     0.65406   0.25095   0.76921   0.00000  Uiso   1.00
C675   C     0.48103   0.04736   0.78743   0.00000  Uiso   1.00
C676   C     0.48631   0.45225   0.70640   0.00000  Uiso   1.00
C677   C     0.48147   0.09327   0.78764   0.00000  Uiso   1.00
C678   C     0.48668   0.40633   0.70641   0.00000  Uiso   1.00
C679   C     0.49981   0.11677   0.74996   0.00000  Uiso   1.00
C680   C     0.49988   0.38332   0.74998   0.00000  Uiso   1.00
C681   C     0.51808   0.09387   0.71224   0.00000  Uiso   1.00
C682   C     0.51279   0.40678   0.79353   0.00000  Uiso   1.00
C683   C     0.51823   0.04795   0.71232   0.00000  Uiso   1.00
C684   C     0.51293   0.45268   0.79346   0.00000  Uiso   1.00
C685   C     0.49958   0.02433   0.74986   0.00000  Uiso   1.00
C686   C     0.49960   0.47578   0.74990   0.00000  Uiso   1.00
Cu687  Cu    0.50000   0.25000   0.79822   0.00000  Uiso   1.00
Cu688  Cu    0.50000   0.25001   0.70178   0.00000  Uiso   1.00
H689   H     0.65920   0.24827   0.69379   0.00000  Uiso   1.00
H690   H     0.34078   0.25266   0.80607   0.00000  Uiso   1.00
H691   H     0.46562   0.02988   0.81634   0.00000  Uiso   1.00
H692   H     0.47499   0.46930   0.67248   0.00000  Uiso   1.00
H693   H     0.46676   0.11031   0.81686   0.00000  Uiso   1.00
H694   H     0.47597   0.38889   0.67245   0.00000  Uiso   1.00
H695   H     0.53305   0.11144   0.68315   0.00000  Uiso   1.00
H696   H     0.52338   0.38975   0.82756   0.00000  Uiso   1.00
H697   H     0.53359   0.03095   0.68339   0.00000  Uiso   1.00
H698   H     0.52410   0.47009   0.82738   0.00000  Uiso   1.00
H699   H     0.57163   0.28538   0.54474   0.00000  Uiso   1.00
H700   H     0.46207   0.18743   0.96016   0.00000  Uiso   1.00
N701   N     0.50000   0.25001   0.62934   0.00000  Uiso   1.00
N702   N     0.50000   0.24999   0.87066   0.00000  Uiso   1.00
O703   O     0.50000   0.18573   0.79072   0.00000  Uiso   1.00
O704   O     0.50000   0.31428   0.70929   0.00000  Uiso   1.00
O705   O     0.50000   0.18573   0.70928   0.00000  Uiso   1.00
O706   O     0.50000   0.31427   0.79072   0.00000  Uiso   1.00
O707   O     0.42495   0.25000   0.78132   0.00000  Uiso   1.00
O708   O     0.57505   0.25001   0.71868   0.00000  Uiso   1.00
O709   O     0.42495   0.25000   0.69989   0.00000  Uiso   1.00
O710   O     0.57505   0.25000   0.80011   0.00000  Uiso   1.00
O711   O     0.57566   0.29537   0.63958   0.00000  Uiso   1.00
C712   C     0.57664   0.34044   0.62660   0.00000  Uiso   1.00
H713   H     0.59805   0.35928   0.65743   0.00000  Uiso   1.00
H714   H     0.53718   0.35446   0.61921   0.00000  Uiso   1.00
H715   H     0.59756   0.34545   0.59488   0.00000  Uiso   1.00
O716   O     0.44860   0.18439   0.86370   0.00000  Uiso   1.00
C717   C     0.39693   0.18013   0.87269   0.00000  Uiso   1.00
H718   H     0.37408   0.16327   0.84117   0.00000  Uiso   1.00
H719   H     0.37889   0.21273   0.87689   0.00000  Uiso   1.00
H720   H     0.39446   0.15922   0.90510   0.00000  Uiso   1.00
O721   O     0.42380   0.20523   0.62046   0.00000  Uiso   1.00
C722   C     0.42867   0.15949   0.61275   0.00000  Uiso   1.00
H723   H     0.40754   0.14130   0.63870   0.00000  Uiso   1.00
H724   H     0.46958   0.14868   0.61932   0.00000  Uiso   1.00
H725   H     0.41081   0.14990   0.57561   0.00000  Uiso   1.00
O726   O     0.55216   0.31529   0.87633   0.00000  Uiso   1.00
C727   C     0.60563   0.31104   0.89150   0.00000  Uiso   1.00
H728   H     0.61847   0.27633   0.88908   0.00000  Uiso   1.00
H729   H     0.61670   0.32404   0.92885   0.00000  Uiso   1.00
H730   H     0.62674   0.33116   0.86709   0.00000  Uiso   1.00
O731   O     0.41263   0.21613   0.52080   0.00000  Uiso   1.00
C732   C     0.38024   0.25188   0.50506   0.00000  Uiso   1.00
H733   H     0.38682   0.26198   0.96797   0.00000  Uiso   1.00
H734   H     0.38694   0.28159   0.52915   0.00000  Uiso   1.00
C735   C     0.65700   0.23774   0.50410   0.00000  Uiso   1.00
H736   H     0.65020   0.22813   0.54127   0.00000  Uiso   1.00
H737   H     0.63224   0.26628   0.99247   0.00000  Uiso   1.00
C738   C     0.64136   0.19929   0.96937   0.00000  Uiso   1.00
H739   H     0.64689   0.20853   0.93187   0.00000  Uiso   1.00
H740   H     0.59990   0.19086   0.96967   0.00000  Uiso   1.00
H741   H     0.66455   0.16970   0.98066   0.00000  Uiso   1.00
O742   O     0.53755   0.32563   0.97250   0.00000  Uiso   1.00
C743   C     0.49501   0.35270   0.97768   0.00000  Uiso   1.00
H744   H     0.50649   0.37417   0.50988   0.00000  Uiso   1.00
H745   H     0.46007   0.33360   0.98509   0.00000  Uiso   1.00
C746   C     0.48181   0.38218   0.93298   0.00000  Uiso   1.00
H747   H     0.51702   0.40073   0.92585   0.00000  Uiso   1.00
H748   H     0.46787   0.36142   0.90076   0.00000  Uiso   1.00
C749   C     0.43982   0.41489   0.94025   0.00000  Uiso   1.00
H750   H     0.40397   0.39695   0.94664   0.00000  Uiso   1.00
H751   H     0.43107   0.43556   0.90724   0.00000  Uiso   1.00
H752   H     0.45300   0.43687   0.97165   0.00000  Uiso   1.00
C753   C     0.83324   0.16499   0.74999   0.00000  Uiso   1.00
C754   C     0.83336   0.33504   0.75000   0.00000  Uiso   1.00
C755   C     0.87199   0.27114   0.55877   0.00000  Uiso   1.00
C756   C     0.81046   0.21618   0.94346   0.00000  Uiso   1.00
C757   C     0.87068   0.27293   0.60936   0.00000  Uiso   1.00
C758   C     0.80761   0.21746   0.89229   0.00000  Uiso   1.00
C759   C     0.79473   0.22808   0.59983   0.00000  Uiso   1.00
C760   C     0.85881   0.28312   0.89839   0.00000  Uiso   1.00
C761   C     0.79053   0.23186   0.54860   0.00000  Uiso   1.00
C762   C     0.85364   0.28711   0.94826   0.00000  Uiso   1.00
C763   C     0.83129   0.25158   0.52705   0.00000  Uiso   1.00
C764   C     0.83186   0.25175   0.97246   0.00000  Uiso   1.00
C765   C     0.73459   0.24995   0.73755   0.00000  Uiso   1.00
C766   C     0.93207   0.25029   0.76244   0.00000  Uiso   1.00
C767   C     0.67925   0.24971   0.73071   0.00000  Uiso   1.00
C768   C     0.98739   0.25095   0.76921   0.00000  Uiso   1.00
C769   C     0.81436   0.04736   0.78743   0.00000  Uiso   1.00
C770   C     0.81964   0.45225   0.70640   0.00000  Uiso   1.00
C771   C     0.81480   0.09327   0.78764   0.00000  Uiso   1.00
C772   C     0.82002   0.40633   0.70641   0.00000  Uiso   1.00
C773   C     0.83314   0.11677   0.74996   0.00000  Uiso   1.00
C774   C     0.83321   0.38332   0.74998   0.00000  Uiso   1.00
C775   C     0.85141   0.09387   0.71224   0.00000  Uiso   1.00
C776   C     0.84612   0.40678   0.79353   0.00000  Uiso   1.00
C777   C     0.85156   0.04795   0.71232   0.00000  Uiso   1.00
C778   C     0.84627   0.45268   0.79346   0.00000  Uiso   1.00
C779   C     0.83291   0.02433   0.74986   0.00000  Uiso   1.00
C780   C     0.83294   0.47578   0.74990   0.00000  Uiso   1.00
Cu781  Cu    0.83333   0.25000   0.79822   0.00000  Uiso   1.00
Cu782  Cu    0.83333   0.25001   0.70178   0.00000  Uiso   1.00
H783   H     0.99253   0.24827   0.69379   0.00000  Uiso   1.00
H784   H     0.67412   0.25266   0.80607   0.00000  Uiso   1.00
H785   H     0.79896   0.02988   0.81634   0.00000  Uiso   1.00
H786   H     0.80832   0.46930   0.67248   0.00000  Uiso   1.00
H787   H     0.80009   0.11031   0.81686   0.00000  Uiso   1.00
H788   H     0.80930   0.38889   0.67245   0.00000  Uiso   1.00
H789   H     0.86638   0.11144   0.68315   0.00000  Uiso   1.00
H790   H     0.85672   0.38975   0.82756   0.00000  Uiso   1.00
H791   H     0.86693   0.03095   0.68339   0.00000  Uiso   1.00
H792   H     0.85744   0.47009   0.82738   0.00000  Uiso   1.00
H793   H     0.90496   0.28538   0.54474   0.00000  Uiso   1.00
H794   H     0.79540   0.18743   0.96016   0.00000  Uiso   1.00
N795   N     0.83333   0.25001   0.62934   0.00000  Uiso   1.00
N796   N     0.83333   0.24999   0.87066   0.00000  Uiso   1.00
O797   O     0.83334   0.18573   0.79072   0.00000  Uiso   1.00
O798   O     0.83333   0.31428   0.70929   0.00000  Uiso   1.00
O799   O     0.83334   0.18573   0.70928   0.00000  Uiso   1.00
O800   O     0.83333   0.31427   0.79072   0.00000  Uiso   1.00
O801   O     0.75828   0.25000   0.78132   0.00000  Uiso   1.00
O802   O     0.90839   0.25001   0.71868   0.00000  Uiso   1.00
O803   O     0.75828   0.25000   0.69989   0.00000  Uiso   1.00
O804   O     0.90839   0.25000   0.80011   0.00000  Uiso   1.00
O805   O     0.90899   0.29537   0.63958   0.00000  Uiso   1.00
C806   C     0.90997   0.34044   0.62660   0.00000  Uiso   1.00
H807   H     0.93138   0.35928   0.65743   0.00000  Uiso   1.00
H808   H     0.87052   0.35446   0.61921   0.00000  Uiso   1.00
H809   H     0.93089   0.34545   0.59488   0.00000  Uiso   1.00
O810   O     0.78193   0.18439   0.86370   0.00000  Uiso   1.00
C811   C     0.73026   0.18013   0.87269   0.00000  Uiso   1.00
H812   H     0.70741   0.16327   0.84117   0.00000  Uiso   1.00
H813   H     0.71222   0.21273   0.87689   0.00000  Uiso   1.00
H814   H     0.72779   0.15922   0.90510   0.00000  Uiso   1.00
O815   O     0.75714   0.20523   0.62046   0.00000  Uiso   1.00
C816   C     0.76201   0.15949   0.61275   0.00000  Uiso   1.00
H817   H     0.74088   0.14130   0.63870   0.00000  Uiso   1.00
H818   H     0.80292   0.14868   0.61932   0.00000  Uiso   1.00
H819   H     0.74414   0.14990   0.57561   0.00000  Uiso   1.00
O820   O     0.88549   0.31529   0.87633   0.00000  Uiso   1.00
C821   C     0.93896   0.31104   0.89150   0.00000  Uiso   1.00
H822   H     0.95181   0.27633   0.88908   0.00000  Uiso   1.00
H823   H     0.95003   0.32404   0.92885   0.00000  Uiso   1.00
H824   H     0.96007   0.33116   0.86709   0.00000  Uiso   1.00
O825   O     0.74596   0.21613   0.52080   0.00000  Uiso   1.00
C826   C     0.71358   0.25188   0.50506   0.00000  Uiso   1.00
H827   H     0.72015   0.26198   0.96797   0.00000  Uiso   1.00
H828   H     0.72027   0.28159   0.52915   0.00000  Uiso   1.00
C829   C     0.99033   0.23774   0.50410   0.00000  Uiso   1.00
H830   H     0.98353   0.22813   0.54127   0.00000  Uiso   1.00
H831   H     0.96557   0.26628   0.99247   0.00000  Uiso   1.00
C832   C     0.97469   0.19929   0.96937   0.00000  Uiso   1.00
H833   H     0.98022   0.20853   0.93187   0.00000  Uiso   1.00
H834   H     0.93323   0.19086   0.96967   0.00000  Uiso   1.00
H835   H     0.99788   0.16970   0.98066   0.00000  Uiso   1.00
O836   O     0.87089   0.32563   0.97250   0.00000  Uiso   1.00
C837   C     0.82835   0.35270   0.97768   0.00000  Uiso   1.00
H838   H     0.83982   0.37417   0.50988   0.00000  Uiso   1.00
H839   H     0.79341   0.33360   0.98509   0.00000  Uiso   1.00
C840   C     0.81514   0.38218   0.93298   0.00000  Uiso   1.00
H841   H     0.85035   0.40073   0.92585   0.00000  Uiso   1.00
H842   H     0.80120   0.36142   0.90076   0.00000  Uiso   1.00
C843   C     0.77316   0.41489   0.94025   0.00000  Uiso   1.00
H844   H     0.73731   0.39695   0.94664   0.00000  Uiso   1.00
H845   H     0.76441   0.43556   0.90724   0.00000  Uiso   1.00
H846   H     0.78633   0.43687   0.97165   0.00000  Uiso   1.00
C847   C     0.16657   0.66499   0.74999   0.00000  Uiso   1.00
C848   C     0.16669   0.83504   0.75000   0.00000  Uiso   1.00
C849   C     0.20533   0.77114   0.55877   0.00000  Uiso   1.00
C850   C     0.14380   0.71618   0.94346   0.00000  Uiso   1.00
C851   C     0.20402   0.77293   0.60936   0.00000  Uiso   1.00
C852   C     0.14095   0.71746   0.89229   0.00000  Uiso   1.00
C853   C     0.12806   0.72808   0.59983   0.00000  Uiso   1.00
C854   C     0.19215   0.78312   0.89839   0.00000  Uiso   1.00
C855   C     0.12386   0.73186   0.54860   0.00000  Uiso   1.00
C856   C     0.18697   0.78711   0.94826   0.00000  Uiso   1.00
C857   C     0.16463   0.75158   0.52705   0.00000  Uiso   1.00
C858   C     0.16519   0.75175   0.97246   0.00000  Uiso   1.00
C859   C     0.06793   0.74995   0.73755   0.00000  Uiso   1.00
C860   C     0.26540   0.75029   0.76244   0.00000  Uiso   1.00
C861   C     0.01259   0.74971   0.73071   0.00000  Uiso   1.00
C862   C     0.32073   0.75095   0.76921   0.00000  Uiso   1.00
C863   C     0.14769   0.54736   0.78743   0.00000  Uiso   1.00
C864   C     0.15298   0.95225   0.70640   0.00000  Uiso   1.00
C865   C     0.14813   0.59327   0.78764   0.00000  Uiso   1.00
C866   C     0.15335   0.90633   0.70641   0.00000  Uiso   1.00
C867   C     0.16648   0.61677   0.74996   0.00000  Uiso   1.00
C868   C     0.16654   0.88332   0.74998   0.00000  Uiso   1.00
C869   C     0.18474   0.59387   0.71224   0.00000  Uiso   1.00
C870   C     0.17946   0.90678   0.79353   0.00000  Uiso   1.00
C871   C     0.18490   0.54795   0.71232   0.00000  Uiso   1.00
C872   C     0.17960   0.95268   0.79346   0.00000  Uiso   1.00
C873   C     0.16624   0.52433   0.74986   0.00000  Uiso   1.00
C874   C     0.16627   0.97578   0.74990   0.00000  Uiso   1.00
Cu875  Cu    0.16667   0.75000   0.79822   0.00000  Uiso   1.00
Cu876  Cu    0.16667   0.75001   0.70178   0.00000  Uiso   1.00
H877   H     0.32586   0.74827   0.69379   0.00000  Uiso   1.00
H878   H     0.00745   0.75266   0.80607   0.00000  Uiso   1.00
H879   H     0.13229   0.52988   0.81634   0.00000  Uiso   1.00
H880   H     0.14166   0.96930   0.67248   0.00000  Uiso   1.00
H881   H     0.13343   0.61031   0.81686   0.00000  Uiso   1.00
H882   H     0.14263   0.88889   0.67245   0.00000  Uiso   1.00
H883   H     0.19971   0.61144   0.68315   0.00000  Uiso   1.00
H884   H     0.19005   0.88975   0.82756   0.00000  Uiso   1.00
H885   H     0.20026   0.53095   0.68339   0.00000  Uiso   1.00
H886   H     0.19077   0.97009   0.82738   0.00000  Uiso   1.00
H887   H     0.23829   0.78538   0.54474   0.00000  Uiso   1.00
H888   H     0.12874   0.68743   0.96016   0.00000  Uiso   1.00
N889   N     0.16667   0.75001   0.62934   0.00000  Uiso   1.00
N890   N     0.16667   0.74999   0.87066   0.00000  Uiso   1.00
O891   O     0.16667   0.68573   0.79072   0.00000  Uiso   1.00
O892   O     0.16666   0.81428   0.70929   0.00000  Uiso   1.00
O893   O     0.16667   0.68573   0.70928   0.00000  Uiso   1.00
O894   O     0.16666   0.81427   0.79072   0.00000  Uiso   1.00
O895   O     0.09161   0.75000   0.78132   0.00000  Uiso   1.00
O896   O     0.24172   0.75001   0.71868   0.00000  Uiso   1.00
O897   O     0.09161   0.75000   0.69989   0.00000  Uiso   1.00
O898   O     0.24172   0.75000   0.80011   0.00000  Uiso   1.00
O899   O     0.24232   0.79537   0.63958   0.00000  Uiso   1.00
C900   C     0.24331   0.84044   0.62660   0.00000  Uiso   1.00
H901   H     0.26472   0.85928   0.65743   0.00000  Uiso   1.00
H902   H     0.20385   0.85446   0.61921   0.00000  Uiso   1.00
H903   H     0.26422   0.84545   0.59488   0.00000  Uiso   1.00
O904   O     0.11526   0.68439   0.86370   0.00000  Uiso   1.00
C905   C     0.06360   0.68013   0.87269   0.00000  Uiso   1.00
H906   H     0.04075   0.66327   0.84117   0.00000  Uiso   1.00
H907   H     0.04556   0.71273   0.87689   0.00000  Uiso   1.00
H908   H     0.06112   0.65922   0.90510   0.00000  Uiso   1.00
O909   O     0.09047   0.70523   0.62046   0.00000  Uiso   1.00
C910   C     0.09534   0.65949   0.61275   0.00000  Uiso   1.00
H911   H     0.07421   0.64130   0.63870   0.00000  Uiso   1.00
H912   H     0.13625   0.64868   0.61932   0.00000  Uiso   1.00
H913   H     0.07747   0.64990   0.57561   0.00000  Uiso   1.00
O914   O     0.21883   0.81529   0.87633   0.00000  Uiso   1.00
C915   C     0.27229   0.81104   0.89150   0.00000  Uiso   1.00
H916   H     0.28514   0.77633   0.88908   0.00000  Uiso   1.00
H917   H     0.28337   0.82404   0.92885   0.00000  Uiso   1.00
H918   H     0.29341   0.83116   0.86709   0.00000  Uiso   1.00
O919   O     0.07929   0.71613   0.52080   0.00000  Uiso   1.00
C920   C     0.04691   0.75188   0.50506   0.00000  Uiso   1.00
H921   H     0.05349   0.76198   0.96797   0.00000  Uiso   1.00
H922   H     0.05361   0.78159   0.52915   0.00000  Uiso   1.00
C923   C     0.32366   0.73774   0.50410   0.00000  Uiso   1.00
H924   H     0.31686   0.72813   0.54127   0.00000  Uiso   1.00
H925   H     0.29891   0.76628   0.99247   0.00000  Uiso   1.00
C926   C     0.30802   0.69929   0.96937   0.00000  Uiso   1.00
H927   H     0.31355   0.70853   0.93187   0.00000  Uiso   1.00
H928   H     0.26656   0.69086   0.96967   0.00000  Uiso   1.00
H929   H     0.33122   0.66970   0.98066   0.00000  Uiso   1.00
O930   O     0.20422   0.82563   0.97250   0.00000  Uiso   1.00
C931   C     0.16168   0.85270   0.97768   0.00000  Uiso   1.00
H932   H     0.17315   0.87417   0.50988   0.00000  Uiso   1.00
H933   H     0.12674   0.83360   0.98509   0.00000  Uiso   1.00
C934   C     0.14847   0.88218   0.93298   0.00000  Uiso   1.00
H935   H     0.18368   0.90073   0.92585   0.00000  Uiso   1.00
H936   H     0.13454   0.86142   0.90076   0.00000  Uiso   1.00
C937   C     0.10649   0.91489   0.94025   0.00000  Uiso   1.00
H938   H     0.07064   0.89695   0.94664   0.00000  Uiso   1.00
H939   H     0.09774   0.93556   0.90724   0.00000  Uiso   1.00
H940   H     0.11966   0.93687   0.97165   0.00000  Uiso   1.00
C941   C     0.49991   0.66499   0.74999   0.00000  Uiso   1.00
C942   C     0.50003   0.83504   0.75000   0.00000  Uiso   1.00
C943   C     0.53866   0.77114   0.55877   0.00000  Uiso   1.00
C944   C     0.47713   0.71618   0.94346   0.00000  Uiso   1.00
C945   C     0.53735   0.77293   0.60936   0.00000  Uiso   1.00
C946   C     0.47428   0.71746   0.89229   0.00000  Uiso   1.00
C947   C     0.46140   0.72808   0.59983   0.00000  Uiso   1.00
C948   C     0.52548   0.78312   0.89839   0.00000  Uiso   1.00
C949   C     0.45720   0.73186   0.54860   0.00000  Uiso   1.00
C950   C     0.52031   0.78711   0.94826   0.00000  Uiso   1.00
C951   C     0.49796   0.75158   0.52705   0.00000  Uiso   1.00
C952   C     0.49853   0.75175   0.97246   0.00000  Uiso   1.00
C953   C     0.40126   0.74995   0.73755   0.00000  Uiso   1.00
C954   C     0.59874   0.75029   0.76244   0.00000  Uiso   1.00
C955   C     0.34592   0.74971   0.73071   0.00000  Uiso   1.00
C956   C     0.65406   0.75095   0.76921   0.00000  Uiso   1.00
C957   C     0.48103   0.54736   0.78743   0.00000  Uiso   1.00
C958   C     0.48631   0.95225   0.70640   0.00000  Uiso   1.00
C959   C     0.48147   0.59327   0.78764   0.00000  Uiso   1.00
C960   C     0.48668   0.90633   0.70641   0.00000  Uiso   1.00
C961   C     0.49981   0.61677   0.74996   0.00000  Uiso   1.00
C962   C     0.49988   0.88332   0.74998   0.00000  Uiso   1.00
C963   C     0.51808   0.59387   0.71224   0.00000  Uiso   1.00
C964   C     0.51279   0.90678   0.79353   0.00000  Uiso   1.00
C965   C     0.51823   0.54795   0.71232   0.00000  Uiso   1.00
C966   C     0.51293   0.95268   0.79346   0.00000  Uiso   1.00
C967   C     0.49958   0.52433   0.74986   0.00000  Uiso   1.00
C968   C     0.49960   0.97578   0.74990   0.00000  Uiso   1.00
Cu969  Cu    0.50000   0.75000   0.79822   0.00000  Uiso   1.00
Cu970  Cu    0.50000   0.75001   0.70178   0.00000  Uiso   1.00
H971   H     0.65920   0.74827   0.69379   0.00000  Uiso   1.00
H972   H     0.34078   0.75266   0.80607   0.00000  Uiso   1.00
H973   H     0.46562   0.52988   0.81634   0.00000  Uiso   1.00
H974   H     0.47499   0.96930   0.67248   0.00000  Uiso   1.00
H975   H     0.46676   0.61031   0.81686   0.00000  Uiso   1.00
H976   H     0.47597   0.88889   0.67245   0.00000  Uiso   1.00
H977   H     0.53305   0.61144   0.68315   0.00000  Uiso   1.00
H978   H     0.52338   0.88975   0.82756   0.00000  Uiso   1.00
H979   H     0.53359   0.53095   0.68339   0.00000  Uiso   1.00
H980   H     0.52410   0.97009   0.82738   0.00000  Uiso   1.00
H981   H     0.57163   0.78538   0.54474   0.00000  Uiso   1.00
H982   H     0.46207   0.68743   0.96016   0.00000  Uiso   1.00
N983   N     0.50000   0.75001   0.62934   0.00000  Uiso   1.00
N984   N     0.50000   0.74999   0.87066   0.00000  Uiso   1.00
O985   O     0.50000   0.68573   0.79072   0.00000  Uiso   1.00
O986   O     0.50000   0.81428   0.70929   0.00000  Uiso   1.00
O987   O     0.50000   0.68573   0.70928   0.00000  Uiso   1.00
O988   O     0.50000   0.81427   0.79072   0.00000  Uiso   1.00
O989   O     0.42495   0.75000   0.78132   0.00000  Uiso   1.00
O990   O     0.57505   0.75001   0.71868   0.00000  Uiso   1.00
O991   O     0.42495   0.75000   0.69989   0.00000  Uiso   1.00
O992   O     0.57505   0.75000   0.80011   0.00000  Uiso   1.00
O993   O     0.57566   0.79537   0.63958   0.00000  Uiso   1.00
C994   C     0.57664   0.84044   0.62660   0.00000  Uiso   1.00
H995   H     0.59805   0.85928   0.65743   0.00000  Uiso   1.00
H996   H     0.53718   0.85446   0.61921   0.00000  Uiso   1.00
H997   H     0.59756   0.84545   0.59488   0.00000  Uiso   1.00
O998   O     0.44860   0.68439   0.86370   0.00000  Uiso   1.00
C999   C     0.39693   0.68013   0.87269   0.00000  Uiso   1.00
H1000  H     0.37408   0.66327   0.84117   0.00000  Uiso   1.00
H1001  H     0.37889   0.71273   0.87689   0.00000  Uiso   1.00
H1002  H     0.39446   0.65922   0.90510   0.00000  Uiso   1.00
O1003  O     0.42380   0.70523   0.62046   0.00000  Uiso   1.00
C1004  C     0.42867   0.65949   0.61275   0.00000  Uiso   1.00
H1005  H     0.40754   0.64130   0.63870   0.00000  Uiso   1.00
H1006  H     0.46958   0.64868   0.61932   0.00000  Uiso   1.00
H1007  H     0.41081   0.64990   0.57561   0.00000  Uiso   1.00
O1008  O     0.55216   0.81529   0.87633   0.00000  Uiso   1.00
C1009  C     0.60563   0.81104   0.89150   0.00000  Uiso   1.00
H1010  H     0.61847   0.77633   0.88908   0.00000  Uiso   1.00
H1011  H     0.61670   0.82404   0.92885   0.00000  Uiso   1.00
H1012  H     0.62674   0.83116   0.86709   0.00000  Uiso   1.00
O1013  O     0.41263   0.71613   0.52080   0.00000  Uiso   1.00
C1014  C     0.38024   0.75188   0.50506   0.00000  Uiso   1.00
H1015  H     0.38682   0.76198   0.96797   0.00000  Uiso   1.00
H1016  H     0.38694   0.78159   0.52915   0.00000  Uiso   1.00
C1017  C     0.65700   0.73774   0.50410   0.00000  Uiso   1.00
H1018  H     0.65020   0.72813   0.54127   0.00000  Uiso   1.00
H1019  H     0.63224   0.76628   0.99247   0.00000  Uiso   1.00
C1020  C     0.64136   0.69929   0.96937   0.00000  Uiso   1.00
H1021  H     0.64689   0.70853   0.93187   0.00000  Uiso   1.00
H1022  H     0.59990   0.69086   0.96967   0.00000  Uiso   1.00
H1023  H     0.66455   0.66970   0.98066   0.00000  Uiso   1.00
O1024  O     0.53755   0.82563   0.97250   0.00000  Uiso   1.00
C1025  C     0.49501   0.85270   0.97768   0.00000  Uiso   1.00
H1026  H     0.50649   0.87417   0.50988   0.00000  Uiso   1.00
H1027  H     0.46007   0.83360   0.98509   0.00000  Uiso   1.00
C1028  C     0.48181   0.88218   0.93298   0.00000  Uiso   1.00
H1029  H     0.51702   0.90073   0.92585   0.00000  Uiso   1.00
H1030  H     0.46787   0.86142   0.90076   0.00000  Uiso   1.00
C1031  C     0.43982   0.91489   0.94025   0.00000  Uiso   1.00
H1032  H     0.40397   0.89695   0.94664   0.00000  Uiso   1.00
H1033  H     0.43107   0.93556   0.90724   0.00000  Uiso   1.00
H1034  H     0.45300   0.93687   0.97165   0.00000  Uiso   1.00
C1035  C     0.83324   0.66499   0.74999   0.00000  Uiso   1.00
C1036  C     0.83336   0.83504   0.75000   0.00000  Uiso   1.00
C1037  C     0.87199   0.77114   0.55877   0.00000  Uiso   1.00
C1038  C     0.81046   0.71618   0.94346   0.00000  Uiso   1.00
C1039  C     0.87068   0.77293   0.60936   0.00000  Uiso   1.00
C1040  C     0.80761   0.71746   0.89229   0.00000  Uiso   1.00
C1041  C     0.79473   0.72808   0.59983   0.00000  Uiso   1.00
C1042  C     0.85881   0.78312   0.89839   0.00000  Uiso   1.00
C1043  C     0.79053   0.73186   0.54860   0.00000  Uiso   1.00
C1044  C     0.85364   0.78711   0.94826   0.00000  Uiso   1.00
C1045  C     0.83129   0.75158   0.52705   0.00000  Uiso   1.00
C1046  C     0.83186   0.75175   0.97246   0.00000  Uiso   1.00
C1047  C     0.73459   0.74995   0.73755   0.00000  Uiso   1.00
C1048  C     0.93207   0.75029   0.76244   0.00000  Uiso   1.00
C1049  C     0.67925   0.74971   0.73071   0.00000  Uiso   1.00
C1050  C     0.98739   0.75095   0.76921   0.00000  Uiso   1.00
C1051  C     0.81436   0.54736   0.78743   0.00000  Uiso   1.00
C1052  C     0.81964   0.95225   0.70640   0.00000  Uiso   1.00
C1053  C     0.81480   0.59327   0.78764   0.00000  Uiso   1.00
C1054  C     0.82002   0.90633   0.70641   0.00000  Uiso   1.00
C1055  C     0.83314   0.61677   0.74996   0.00000  Uiso   1.00
C1056  C     0.83321   0.88332   0.74998   0.00000  Uiso   1.00
C1057  C     0.85141   0.59387   0.71224   0.00000  Uiso   1.00
C1058  C     0.84612   0.90678   0.79353   0.00000  Uiso   1.00
C1059  C     0.85156   0.54795   0.71232   0.00000  Uiso   1.00
C1060  C     0.84627   0.95268   0.79346   0.00000  Uiso   1.00
C1061  C     0.83291   0.52433   0.74986   0.00000  Uiso   1.00
C1062  C     0.83294   0.97578   0.74990   0.00000  Uiso   1.00
Cu1063 Cu    0.83333   0.75000   0.79822   0.00000  Uiso   1.00
Cu1064 Cu    0.83333   0.75001   0.70178   0.00000  Uiso   1.00
H1065  H     0.99253   0.74827   0.69379   0.00000  Uiso   1.00
H1066  H     0.67412   0.75266   0.80607   0.00000  Uiso   1.00
H1067  H     0.79896   0.52988   0.81634   0.00000  Uiso   1.00
H1068  H     0.80832   0.96930   0.67248   0.00000  Uiso   1.00
H1069  H     0.80009   0.61031   0.81686   0.00000  Uiso   1.00
H1070  H     0.80930   0.88889   0.67245   0.00000  Uiso   1.00
H1071  H     0.86638   0.61144   0.68315   0.00000  Uiso   1.00
H1072  H     0.85672   0.88975   0.82756   0.00000  Uiso   1.00
H1073  H     0.86693   0.53095   0.68339   0.00000  Uiso   1.00
H1074  H     0.85744   0.97009   0.82738   0.00000  Uiso   1.00
H1075  H     0.90496   0.78538   0.54474   0.00000  Uiso   1.00
H1076  H     0.79540   0.68743   0.96016   0.00000  Uiso   1.00
N1077  N     0.83333   0.75001   0.62934   0.00000  Uiso   1.00
N1078  N     0.83333   0.74999   0.87066   0.00000  Uiso   1.00
O1079  O     0.83334   0.68573   0.79072   0.00000  Uiso   1.00
O1080  O     0.83333   0.81428   0.70929   0.00000  Uiso   1.00
O1081  O     0.83334   0.68573   0.70928   0.00000  Uiso   1.00
O1082  O     0.83333   0.81427   0.79072   0.00000  Uiso   1.00
O1083  O     0.75828   0.75000   0.78132   0.00000  Uiso   1.00
O1084  O     0.90839   0.75001   0.71868   0.00000  Uiso   1.00
O1085  O     0.75828   0.75000   0.69989   0.00000  Uiso   1.00
O1086  O     0.90839   0.75000   0.80011   0.00000  Uiso   1.00
O1087  O     0.90899   0.79537   0.63958   0.00000  Uiso   1.00
C1088  C     0.90997   0.84044   0.62660   0.00000  Uiso   1.00
H1089  H     0.93138   0.85928   0.65743   0.00000  Uiso   1.00
H1090  H     0.87052   0.85446   0.61921   0.00000  Uiso   1.00
H1091  H     0.93089   0.84545   0.59488   0.00000  Uiso   1.00
O1092  O     0.78193   0.68439   0.86370   0.00000  Uiso   1.00
C1093  C     0.73026   0.68013   0.87269   0.00000  Uiso   1.00
H1094  H     0.70741   0.66327   0.84117   0.00000  Uiso   1.00
H1095  H     0.71222   0.71273   0.87689   0.00000  Uiso   1.00
H1096  H     0.72779   0.65922   0.90510   0.00000  Uiso   1.00
O1097  O     0.75714   0.70523   0.62046   0.00000  Uiso   1.00
C1098  C     0.76201   0.65949   0.61275   0.00000  Uiso   1.00
H1099  H     0.74088   0.64130   0.63870   0.00000  Uiso   1.00
H1100  H     0.80292   0.64868   0.61932   0.00000  Uiso   1.00
H1101  H     0.74414   0.64990   0.57561   0.00000  Uiso   1.00
O1102  O     0.88549   0.81529   0.87633   0.00000  Uiso   1.00
C1103  C     0.93896   0.81104   0.89150   0.00000  Uiso   1.00
H1104  H     0.95181   0.77633   0.88908   0.00000  Uiso   1.00
H1105  H     0.95003   0.82404   0.92885   0.00000  Uiso   1.00
H1106  H     0.96007   0.83116   0.86709   0.00000  Uiso   1.00
O1107  O     0.74596   0.71613   0.52080   0.00000  Uiso   1.00
C1108  C     0.71358   0.75188   0.50506   0.00000  Uiso   1.00
H1109  H     0.72015   0.76198   0.96797   0.00000  Uiso   1.00
H1110  H     0.72027   0.78159   0.52915   0.00000  Uiso   1.00
C1111  C     0.99033   0.73774   0.50410   0.00000  Uiso   1.00
H1112  H     0.98353   0.72813   0.54127   0.00000  Uiso   1.00
H1113  H     0.96557   0.76628   0.99247   0.00000  Uiso   1.00
C1114  C     0.97469   0.69929   0.96937   0.00000  Uiso   1.00
H1115  H     0.98022   0.70853   0.93187   0.00000  Uiso   1.00
H1116  H     0.93323   0.69086   0.96967   0.00000  Uiso   1.00
H1117  H     0.99788   0.66970   0.98066   0.00000  Uiso   1.00
O1118  O     0.87089   0.82563   0.97250   0.00000  Uiso   1.00
C1119  C     0.82835   0.85270   0.97768   0.00000  Uiso   1.00
H1120  H     0.83982   0.87417   0.50988   0.00000  Uiso   1.00
H1121  H     0.79341   0.83360   0.98509   0.00000  Uiso   1.00
C1122  C     0.81514   0.88218   0.93298   0.00000  Uiso   1.00
H1123  H     0.85035   0.90073   0.92585   0.00000  Uiso   1.00
H1124  H     0.80120   0.86142   0.90076   0.00000  Uiso   1.00
C1125  C     0.77316   0.91489   0.94025   0.00000  Uiso   1.00
H1126  H     0.73731   0.89695   0.94664   0.00000  Uiso   1.00
H1127  H     0.76441   0.93556   0.90724   0.00000  Uiso   1.00
H1128  H     0.78633   0.93687   0.97165   0.00000  Uiso   1.00
loop_
_geom_bond_atom_site_label_1
_geom_bond_atom_site_label_2
_geom_bond_distance
_geom_bond_site_symmetry_2
_ccdc_geom_bond_type
C1     C21     1.460   .     S
C1     O45     1.296   .     A
C1     O47     1.295   .     A
C2     O46     1.296   .     A
C2     C22     1.461   .     S
C2     O48     1.296   .     A
C3     H41     1.078   .     S
C3     C5      1.415   .     A
C3     C11     1.407   .     A
C4     C12     1.406   .     A
C4     C6      1.417   .     A
C4     H42     1.080   .     S
C5     O53     1.383   .     S
C5     N43     1.369   .     A
C6     O58     1.384   .     S
C6     N44     1.369   .     A
C7     N43     1.371   .     A
C7     O63     1.382   .     S
C7     C9      1.420   .     A
C8     O68     1.381   .     S
C8     N44     1.371   .     A
C8     C10     1.419   .     A
C9     O73     1.383   .     S
C9     C11     1.417   .     A
C10    C12     1.417   .     A
C10    O84     1.384   .     S
C11    C576    1.522   1_554 S
C12    C575    1.522   .     S
C13    O51     1.290   .     A
C13    O49     1.287   .     A
C13    C15     1.433   .     S
C14    O52     1.290   .     A
C14    C16     1.432   .     S
C14    O50     1.287   .     A
C15    C204    1.335   1_455 S
C15    H219    1.087   1_455 S
C16    C109    1.335   .     S
C16    H126    1.086   .     S
C17    H33     1.083   .     S
C17    C27     1.403   .     A
C17    C19     1.390   .     A
C18    C20     1.390   .     A
C18    C28     1.403   .     A
C18    H34     1.083   .     S
C19    C21     1.401   .     A
C19    H35     1.082   .     S
C20    C22     1.402   .     A
C20    H36     1.083   .     S
C21    C23     1.401   .     A
C22    C24     1.402   .     A
C23    H37     1.083   .     S
C23    C25     1.390   .     A
C24    C26     1.389   .     A
C24    H38     1.082   .     S
C25    C27     1.404   .     A
C25    H39     1.083   .     S
C26    C28     1.403   .     A
C26    H40     1.083   .     S
C27    C310    1.470   1_545 S
C28    C309    1.470   .     S
Cu29   O49     1.953   .     S
Cu29   O48     1.957   .     S
Cu29   O45     1.957   .     S
Cu29   Cu30    2.685   .     S
Cu29   N44     2.017   .     S
Cu29   O52     1.956   .     S
Cu30   O51     1.956   .     S
Cu30   O50     1.953   .     S
Cu30   O47     1.957   .     S
Cu30   N43     2.017   .     S
Cu30   O46     1.957   .     S
H31    C109    1.087   .     S
H32    C204    1.086   1_455 S
O53    C54     1.412   .     S
C54    H56     1.115   .     S
C54    H55     1.109   .     S
C54    H57     1.111   .     S
O58    C59     1.412   .     S
C59    H60     1.109   .     S
C59    H61     1.114   .     S
C59    H62     1.110   .     S
O63    C64     1.412   .     S
C64    H67     1.110   .     S
C64    H66     1.115   .     S
C64    H65     1.109   .     S
O68    C69     1.411   .     S
C69    H71     1.110   .     S
C69    H72     1.109   .     S
C69    H70     1.113   .     S
O73    C74     1.417   .     S
C74    H76     1.119   .     S
C74    H639    1.112   1_554 S
C74    C265    1.530   1_455 S
H75    C638    1.112   .     S
C77    H78     1.112   .     S
C77    C168    1.530   .     S
C77    H643    1.109   1_554 S
C77    C644    1.527   1_554 S
H79    C641    1.109   .     S
C80    H83     1.111   .     S
C80    H82     1.111   .     S
C80    H81     1.109   .     S
C80    C641    1.527   .     S
O84    C85     1.416   .     S
C85    C88     1.534   .     S
C85    H87     1.116   .     S
C85    H650    1.111   .     S
H86    C649    1.111   1_554 S
C88    C91     1.525   .     S
C88    H90     1.111   .     S
C88    H89     1.112   .     S
C91    H92     1.111   .     S
C91    H93     1.111   .     S
C91    H94     1.111   .     S
C95    C115    1.460   .     S
C95    O139    1.296   .     A
C95    O141    1.295   .     A
C96    O140    1.296   .     A
C96    C116    1.461   .     S
C96    O142    1.296   .     A
C97    H135    1.078   .     S
C97    C99     1.415   .     A
C97    C105    1.407   .     A
C98    C106    1.406   .     A
C98    C100    1.417   .     A
C98    H136    1.080   .     S
C99    O147    1.383   .     S
C99    N137    1.369   .     A
C100   O152    1.384   .     S
C100   N138    1.369   .     A
C101   N137    1.371   .     A
C101   O157    1.382   .     S
C101   C103    1.420   .     A
C102   O162    1.381   .     S
C102   N138    1.371   .     A
C102   C104    1.419   .     A
C103   O167    1.383   .     S
C103   C105    1.417   .     A
C104   C106    1.417   .     A
C104   O178    1.384   .     S
C105   C670    1.522   1_554 S
C106   C669    1.522   .     S
C107   O145    1.290   .     A
C107   O143    1.287   .     A
C107   C109    1.433   .     S
C108   O146    1.290   .     A
C108   C110    1.432   .     S
C108   O144    1.287   .     A
C110   C203    1.335   .     S
C110   H220    1.086   .     S
C111   H127    1.083   .     S
C111   C121    1.403   .     A
C111   C113    1.390   .     A
C112   C114    1.390   .     A
C112   C122    1.403   .     A
C112   H128    1.083   .     S
C113   C115    1.401   .     A
C113   H129    1.082   .     S
C114   C116    1.402   .     A
C114   H130    1.083   .     S
C115   C117    1.401   .     A
C116   C118    1.402   .     A
C117   H131    1.083   .     S
C117   C119    1.390   .     A
C118   C120    1.389   .     A
C118   H132    1.082   .     S
C119   C121    1.404   .     A
C119   H133    1.083   .     S
C120   C122    1.403   .     A
C120   H134    1.083   .     S
C121   C404    1.470   1_545 S
C122   C403    1.470   .     S
Cu123  O143    1.953   .     S
Cu123  O142    1.957   .     S
Cu123  O139    1.957   .     S
Cu123  Cu124   2.685   .     S
Cu123  N138    2.017   .     S
Cu123  O146    1.956   .     S
Cu124  O145    1.956   .     S
Cu124  O144    1.953   .     S
Cu124  O141    1.957   .     S
Cu124  N137    2.017   .     S
Cu124  O140    1.957   .     S
H125   C203    1.087   .     S
O147   C148    1.412   .     S
C148   H150    1.115   .     S
C148   H149    1.109   .     S
C148   H151    1.111   .     S
O152   C153    1.412   .     S
C153   H154    1.109   .     S
C153   H155    1.114   .     S
C153   H156    1.110   .     S
O157   C158    1.412   .     S
C158   H161    1.110   .     S
C158   H160    1.115   .     S
C158   H159    1.109   .     S
O162   C163    1.411   .     S
C163   H165    1.110   .     S
C163   H166    1.109   .     S
C163   H164    1.113   .     S
O167   C168    1.417   .     S
C168   H170    1.119   .     S
C168   H733    1.112   1_554 S
H169   C732    1.112   .     S
C171   H172    1.112   .     S
C171   C262    1.530   .     S
C171   H737    1.109   1_554 S
C171   C738    1.527   1_554 S
H173   C735    1.109   .     S
C174   H177    1.111   .     S
C174   H176    1.111   .     S
C174   H175    1.109   .     S
C174   C735    1.527   .     S
O178   C179    1.416   .     S
C179   C182    1.534   .     S
C179   H181    1.116   .     S
C179   H744    1.111   .     S
H180   C743    1.111   1_554 S
C182   C185    1.525   .     S
C182   H184    1.111   .     S
C182   H183    1.112   .     S
C185   H186    1.111   .     S
C185   H187    1.111   .     S
C185   H188    1.111   .     S
C189   C209    1.460   .     S
C189   O233    1.296   .     A
C189   O235    1.295   .     A
C190   O234    1.296   .     A
C190   C210    1.461   .     S
C190   O236    1.296   .     A
C191   H229    1.078   .     S
C191   C193    1.415   .     A
C191   C199    1.407   .     A
C192   C200    1.406   .     A
C192   C194    1.417   .     A
C192   H230    1.080   .     S
C193   O241    1.383   .     S
C193   N231    1.369   .     A
C194   O246    1.384   .     S
C194   N232    1.369   .     A
C195   N231    1.371   .     A
C195   O251    1.382   .     S
C195   C197    1.420   .     A
C196   O256    1.381   .     S
C196   N232    1.371   .     A
C196   C198    1.419   .     A
C197   O261    1.383   .     S
C197   C199    1.417   .     A
C198   C200    1.417   .     A
C198   O272    1.384   .     S
C199   C764    1.522   1_554 S
C200   C763    1.522   .     S
C201   O239    1.290   .     A
C201   O237    1.287   .     A
C201   C203    1.433   .     S
C202   O240    1.290   .     A
C202   C204    1.432   .     S
C202   O238    1.287   .     A
C204   C15     1.335   1_655 S
C204   H32     1.086   1_655 S
C205   H221    1.083   .     S
C205   C215    1.403   .     A
C205   C207    1.390   .     A
C206   C208    1.390   .     A
C206   C216    1.403   .     A
C206   H222    1.083   .     S
C207   C209    1.401   .     A
C207   H223    1.082   .     S
C208   C210    1.402   .     A
C208   H224    1.083   .     S
C209   C211    1.401   .     A
C210   C212    1.402   .     A
C211   H225    1.083   .     S
C211   C213    1.390   .     A
C212   C214    1.389   .     A
C212   H226    1.082   .     S
C213   C215    1.404   .     A
C213   H227    1.083   .     S
C214   C216    1.403   .     A
C214   H228    1.083   .     S
C215   C498    1.470   1_545 S
C216   C497    1.470   .     S
Cu217  O237    1.953   .     S
Cu217  O236    1.957   .     S
Cu217  O233    1.957   .     S
Cu217  Cu218   2.685   .     S
Cu217  N232    2.017   .     S
Cu217  O240    1.956   .     S
Cu218  O239    1.956   .     S
Cu218  O238    1.953   .     S
Cu218  O235    1.957   .     S
Cu218  N231    2.017   .     S
Cu218  O234    1.957   .     S
H219   C15     1.087   1_655 S
O241   C242    1.412   .     S
C242   H244    1.115   .     S
C242   H243    1.109   .     S
C242   H245    1.111   .     S
O246   C247    1.412   .     S
C247   H248    1.109   .     S
C247   H249    1.114   .     S
C247   H250    1.110   .     S
O251   C252    1.412   .     S
C252   H255    1.110   .     S
C252   H254    1.115   .     S
C252   H253    1.109   .     S
O256   C257    1.411   .     S
C257   H259    1.110   .     S
C257   H260    1.109   .     S
C257   H258    1.113   .     S
O261   C262    1.417   .     S
C262   H264    1.119   .     S
C262   H827    1.112   1_554 S
H263   C826    1.112   .     S
C265   H266    1.112   .     S
C265   C74     1.530   1_655 S
C265   H831    1.109   1_554 S
C265   C832    1.527   1_554 S
H267   C829    1.109   .     S
C268   H271    1.111   .     S
C268   H270    1.111   .     S
C268   H269    1.109   .     S
C268   C829    1.527   .     S
O272   C273    1.416   .     S
C273   C276    1.534   .     S
C273   H275    1.116   .     S
C273   H838    1.111   .     S
H274   C837    1.111   1_554 S
C276   C279    1.525   .     S
C276   H278    1.111   .     S
C276   H277    1.112   .     S
C279   H280    1.111   .     S
C279   H281    1.111   .     S
C279   H282    1.111   .     S
C283   C303    1.460   .     S
C283   O327    1.296   .     A
C283   O329    1.295   .     A
C284   O328    1.296   .     A
C284   C304    1.461   .     S
C284   O330    1.296   .     A
C285   H323    1.078   .     S
C285   C287    1.415   .     A
C285   C293    1.407   .     A
C286   C294    1.406   .     A
C286   C288    1.417   .     A
C286   H324    1.080   .     S
C287   O335    1.383   .     S
C287   N325    1.369   .     A
C288   O340    1.384   .     S
C288   N326    1.369   .     A
C289   N325    1.371   .     A
C289   O345    1.382   .     S
C289   C291    1.420   .     A
C290   O350    1.381   .     S
C290   N326    1.371   .     A
C290   C292    1.419   .     A
C291   O355    1.383   .     S
C291   C293    1.417   .     A
C292   C294    1.417   .     A
C292   O366    1.384   .     S
C293   C858    1.522   1_554 S
C294   C857    1.522   .     S
C295   O333    1.290   .     A
C295   O331    1.287   .     A
C295   C297    1.433   .     S
C296   O334    1.290   .     A
C296   C298    1.432   .     S
C296   O332    1.287   .     A
C297   C486    1.335   1_455 S
C297   H501    1.087   1_455 S
C298   C391    1.335   .     S
C298   H408    1.086   .     S
C299   H315    1.083   .     S
C299   C309    1.403   .     A
C299   C301    1.390   .     A
C300   C302    1.390   .     A
C300   C310    1.403   .     A
C300   H316    1.083   .     S
C301   C303    1.401   .     A
C301   H317    1.082   .     S
C302   C304    1.402   .     A
C302   H318    1.083   .     S
C303   C305    1.401   .     A
C304   C306    1.402   .     A
C305   H319    1.083   .     S
C305   C307    1.390   .     A
C306   C308    1.389   .     A
C306   H320    1.082   .     S
C307   C309    1.404   .     A
C307   H321    1.083   .     S
C308   C310    1.403   .     A
C308   H322    1.083   .     S
C310   C27     1.470   1_565 S
Cu311  O331    1.953   .     S
Cu311  O330    1.957   .     S
Cu311  O327    1.957   .     S
Cu311  Cu312   2.685   .     S
Cu311  N326    2.017   .     S
Cu311  O334    1.956   .     S
Cu312  O333    1.956   .     S
Cu312  O332    1.953   .     S
Cu312  O329    1.957   .     S
Cu312  N325    2.017   .     S
Cu312  O328    1.957   .     S
H313   C391    1.087   .     S
H314   C486    1.086   1_455 S
O335   C336    1.412   .     S
C336   H338    1.115   .     S
C336   H337    1.109   .     S
C336   H339    1.111   .     S
O340   C341    1.412   .     S
C341   H342    1.109   .     S
C341   H343    1.114   .     S
C341   H344    1.110   .     S
O345   C346    1.412   .     S
C346   H349    1.110   .     S
C346   H348    1.115   .     S
C346   H347    1.109   .     S
O350   C351    1.411   .     S
C351   H353    1.110   .     S
C351   H354    1.109   .     S
C351   H352    1.113   .     S
O355   C356    1.417   .     S
C356   H358    1.119   .     S
C356   H921    1.112   1_554 S
C356   C547    1.530   1_455 S
H357   C920    1.112   .     S
C359   H360    1.112   .     S
C359   C450    1.530   .     S
C359   H925    1.109   1_554 S
C359   C926    1.527   1_554 S
H361   C923    1.109   .     S
C362   H365    1.111   .     S
C362   H364    1.111   .     S
C362   H363    1.109   .     S
C362   C923    1.527   .     S
O366   C367    1.416   .     S
C367   C370    1.534   .     S
C367   H369    1.116   .     S
C367   H932    1.111   .     S
H368   C931    1.111   1_554 S
C370   C373    1.525   .     S
C370   H372    1.111   .     S
C370   H371    1.112   .     S
C373   H374    1.111   .     S
C373   H375    1.111   .     S
C373   H376    1.111   .     S
C377   C397    1.460   .     S
C377   O421    1.296   .     A
C377   O423    1.295   .     A
C378   O422    1.296   .     A
C378   C398    1.461   .     S
C378   O424    1.296   .     A
C379   H417    1.078   .     S
C379   C381    1.415   .     A
C379   C387    1.407   .     A
C380   C388    1.406   .     A
C380   C382    1.417   .     A
C380   H418    1.080   .     S
C381   O429    1.383   .     S
C381   N419    1.369   .     A
C382   O434    1.384   .     S
C382   N420    1.369   .     A
C383   N419    1.371   .     A
C383   O439    1.382   .     S
C383   C385    1.420   .     A
C384   O444    1.381   .     S
C384   N420    1.371   .     A
C384   C386    1.419   .     A
C385   O449    1.383   .     S
C385   C387    1.417   .     A
C386   C388    1.417   .     A
C386   O460    1.384   .     S
C387   C952    1.522   1_554 S
C388   C951    1.522   .     S
C389   O427    1.290   .     A
C389   O425    1.287   .     A
C389   C391    1.433   .     S
C390   O428    1.290   .     A
C390   C392    1.432   .     S
C390   O426    1.287   .     A
C392   C485    1.335   .     S
C392   H502    1.086   .     S
C393   H409    1.083   .     S
C393   C403    1.403   .     A
C393   C395    1.390   .     A
C394   C396    1.390   .     A
C394   C404    1.403   .     A
C394   H410    1.083   .     S
C395   C397    1.401   .     A
C395   H411    1.082   .     S
C396   C398    1.402   .     A
C396   H412    1.083   .     S
C397   C399    1.401   .     A
C398   C400    1.402   .     A
C399   H413    1.083   .     S
C399   C401    1.390   .     A
C400   C402    1.389   .     A
C400   H414    1.082   .     S
C401   C403    1.404   .     A
C401   H415    1.083   .     S
C402   C404    1.403   .     A
C402   H416    1.083   .     S
C404   C121    1.470   1_565 S
Cu405  O425    1.953   .     S
Cu405  O424    1.957   .     S
Cu405  O421    1.957   .     S
Cu405  Cu406   2.685   .     S
Cu405  N420    2.017   .     S
Cu405  O428    1.956   .     S
Cu406  O427    1.956   .     S
Cu406  O426    1.953   .     S
Cu406  O423    1.957   .     S
Cu406  N419    2.017   .     S
Cu406  O422    1.957   .     S
H407   C485    1.087   .     S
O429   C430    1.412   .     S
C430   H432    1.115   .     S
C430   H431    1.109   .     S
C430   H433    1.111   .     S
O434   C435    1.412   .     S
C435   H436    1.109   .     S
C435   H437    1.114   .     S
C435   H438    1.110   .     S
O439   C440    1.412   .     S
C440   H443    1.110   .     S
C440   H442    1.115   .     S
C440   H441    1.109   .     S
O444   C445    1.411   .     S
C445   H447    1.110   .     S
C445   H448    1.109   .     S
C445   H446    1.113   .     S
O449   C450    1.417   .     S
C450   H452    1.119   .     S
C450   H1015   1.112   1_554 S
H451   C1014   1.112   .     S
C453   H454    1.112   .     S
C453   C544    1.530   .     S
C453   H1019   1.109   1_554 S
C453   C1020   1.527   1_554 S
H455   C1017   1.109   .     S
C456   H459    1.111   .     S
C456   H458    1.111   .     S
C456   H457    1.109   .     S
C456   C1017   1.527   .     S
O460   C461    1.416   .     S
C461   C464    1.534   .     S
C461   H463    1.116   .     S
C461   H1026   1.111   .     S
H462   C1025   1.111   1_554 S
C464   C467    1.525   .     S
C464   H466    1.111   .     S
C464   H465    1.112   .     S
C467   H468    1.111   .     S
C467   H469    1.111   .     S
C467   H470    1.111   .     S
C471   C491    1.460   .     S
C471   O515    1.296   .     A
C471   O517    1.295   .     A
C472   O516    1.296   .     A
C472   C492    1.461   .     S
C472   O518    1.296   .     A
C473   H511    1.078   .     S
C473   C475    1.415   .     A
C473   C481    1.407   .     A
C474   C482    1.406   .     A
C474   C476    1.417   .     A
C474   H512    1.080   .     S
C475   O523    1.383   .     S
C475   N513    1.369   .     A
C476   O528    1.384   .     S
C476   N514    1.369   .     A
C477   N513    1.371   .     A
C477   O533    1.382   .     S
C477   C479    1.420   .     A
C478   O538    1.381   .     S
C478   N514    1.371   .     A
C478   C480    1.419   .     A
C479   O543    1.383   .     S
C479   C481    1.417   .     A
C480   C482    1.417   .     A
C480   O554    1.384   .     S
C481   C1046   1.522   1_554 S
C482   C1045   1.522   .     S
C483   O521    1.290   .     A
C483   O519    1.287   .     A
C483   C485    1.433   .     S
C484   O522    1.290   .     A
C484   C486    1.432   .     S
C484   O520    1.287   .     A
C486   C297    1.335   1_655 S
C486   H314    1.086   1_655 S
C487   H503    1.083   .     S
C487   C497    1.403   .     A
C487   C489    1.390   .     A
C488   C490    1.390   .     A
C488   C498    1.403   .     A
C488   H504    1.083   .     S
C489   C491    1.401   .     A
C489   H505    1.082   .     S
C490   C492    1.402   .     A
C490   H506    1.083   .     S
C491   C493    1.401   .     A
C492   C494    1.402   .     A
C493   H507    1.083   .     S
C493   C495    1.390   .     A
C494   C496    1.389   .     A
C494   H508    1.082   .     S
C495   C497    1.404   .     A
C495   H509    1.083   .     S
C496   C498    1.403   .     A
C496   H510    1.083   .     S
C498   C215    1.470   1_565 S
Cu499  O519    1.953   .     S
Cu499  O518    1.957   .     S
Cu499  O515    1.957   .     S
Cu499  Cu500   2.685   .     S
Cu499  N514    2.017   .     S
Cu499  O522    1.956   .     S
Cu500  O521    1.956   .     S
Cu500  O520    1.953   .     S
Cu500  O517    1.957   .     S
Cu500  N513    2.017   .     S
Cu500  O516    1.957   .     S
H501   C297    1.087   1_655 S
O523   C524    1.412   .     S
C524   H526    1.115   .     S
C524   H525    1.109   .     S
C524   H527    1.111   .     S
O528   C529    1.412   .     S
C529   H530    1.109   .     S
C529   H531    1.114   .     S
C529   H532    1.110   .     S
O533   C534    1.412   .     S
C534   H537    1.110   .     S
C534   H536    1.115   .     S
C534   H535    1.109   .     S
O538   C539    1.411   .     S
C539   H541    1.110   .     S
C539   H542    1.109   .     S
C539   H540    1.113   .     S
O543   C544    1.417   .     S
C544   H546    1.119   .     S
C544   H1109   1.112   1_554 S
H545   C1108   1.112   .     S
C547   H548    1.112   .     S
C547   C356    1.530   1_655 S
C547   H1113   1.109   1_554 S
C547   C1114   1.527   1_554 S
H549   C1111   1.109   .     S
C550   H553    1.111   .     S
C550   H552    1.111   .     S
C550   H551    1.109   .     S
C550   C1111   1.527   .     S
O554   C555    1.416   .     S
C555   C558    1.534   .     S
C555   H557    1.116   .     S
C555   H1120   1.111   .     S
H556   C1119   1.111   1_554 S
C558   C561    1.525   .     S
C558   H560    1.111   .     S
C558   H559    1.112   .     S
C561   H562    1.111   .     S
C561   H563    1.111   .     S
C561   H564    1.111   .     S
C565   C585    1.460   .     S
C565   O609    1.296   .     A
C565   O611    1.295   .     A
C566   O610    1.296   .     A
C566   C586    1.461   .     S
C566   O612    1.296   .     A
C567   H605    1.078   .     S
C567   C569    1.415   .     A
C567   C575    1.407   .     A
C568   C576    1.406   .     A
C568   C570    1.417   .     A
C568   H606    1.080   .     S
C569   O617    1.383   .     S
C569   N607    1.369   .     A
C570   O622    1.384   .     S
C570   N608    1.369   .     A
C571   N607    1.371   .     A
C571   O627    1.382   .     S
C571   C573    1.420   .     A
C572   O632    1.381   .     S
C572   N608    1.371   .     A
C572   C574    1.419   .     A
C573   O637    1.383   .     S
C573   C575    1.417   .     A
C574   C576    1.417   .     A
C574   O648    1.384   .     S
C576   C11     1.522   1_556 S
C577   O615    1.290   .     A
C577   O613    1.287   .     A
C577   C579    1.433   .     S
C578   O616    1.290   .     A
C578   C580    1.432   .     S
C578   O614    1.287   .     A
C579   C768    1.335   1_455 S
C579   H783    1.087   1_455 S
C580   C673    1.335   .     S
C580   H690    1.086   .     S
C581   H597    1.083   .     S
C581   C591    1.403   .     A
C581   C583    1.390   .     A
C582   C584    1.390   .     A
C582   C592    1.403   .     A
C582   H598    1.083   .     S
C583   C585    1.401   .     A
C583   H599    1.082   .     S
C584   C586    1.402   .     A
C584   H600    1.083   .     S
C585   C587    1.401   .     A
C586   C588    1.402   .     A
C587   H601    1.083   .     S
C587   C589    1.390   .     A
C588   C590    1.389   .     A
C588   H602    1.082   .     S
C589   C591    1.404   .     A
C589   H603    1.083   .     S
C590   C592    1.403   .     A
C590   H604    1.083   .     S
C591   C874    1.470   1_545 S
C592   C873    1.470   .     S
Cu593  O613    1.953   .     S
Cu593  O612    1.957   .     S
Cu593  O609    1.957   .     S
Cu593  Cu594   2.685   .     S
Cu593  N608    2.017   .     S
Cu593  O616    1.956   .     S
Cu594  O615    1.956   .     S
Cu594  O614    1.953   .     S
Cu594  O611    1.957   .     S
Cu594  N607    2.017   .     S
Cu594  O610    1.957   .     S
H595   C673    1.087   .     S
H596   C768    1.086   1_455 S
O617   C618    1.412   .     S
C618   H620    1.115   .     S
C618   H619    1.109   .     S
C618   H621    1.111   .     S
O622   C623    1.412   .     S
C623   H624    1.109   .     S
C623   H625    1.114   .     S
C623   H626    1.110   .     S
O627   C628    1.412   .     S
C628   H631    1.110   .     S
C628   H630    1.115   .     S
C628   H629    1.109   .     S
O632   C633    1.411   .     S
C633   H635    1.110   .     S
C633   H636    1.109   .     S
C633   H634    1.113   .     S
O637   C638    1.417   .     S
C638   H640    1.119   .     S
C638   C829    1.530   1_455 S
H639   C74     1.112   1_556 S
C641   H642    1.112   .     S
C641   C732    1.530   .     S
H643   C77     1.109   1_556 S
C644   H647    1.111   .     S
C644   H646    1.111   .     S
C644   H645    1.109   .     S
C644   C77     1.527   1_556 S
O648   C649    1.416   .     S
C649   C652    1.534   .     S
C649   H651    1.116   .     S
C649   H86     1.111   1_556 S
C652   C655    1.525   .     S
C652   H654    1.111   .     S
C652   H653    1.112   .     S
C655   H656    1.111   .     S
C655   H657    1.111   .     S
C655   H658    1.111   .     S
C659   C679    1.460   .     S
C659   O703    1.296   .     A
C659   O705    1.295   .     A
C660   O704    1.296   .     A
C660   C680    1.461   .     S
C660   O706    1.296   .     A
C661   H699    1.078   .     S
C661   C663    1.415   .     A
C661   C669    1.407   .     A
C662   C670    1.406   .     A
C662   C664    1.417   .     A
C662   H700    1.080   .     S
C663   O711    1.383   .     S
C663   N701    1.369   .     A
C664   O716    1.384   .     S
C664   N702    1.369   .     A
C665   N701    1.371   .     A
C665   O721    1.382   .     S
C665   C667    1.420   .     A
C666   O726    1.381   .     S
C666   N702    1.371   .     A
C666   C668    1.419   .     A
C667   O731    1.383   .     S
C667   C669    1.417   .     A
C668   C670    1.417   .     A
C668   O742    1.384   .     S
C670   C105    1.522   1_556 S
C671   O709    1.290   .     A
C671   O707    1.287   .     A
C671   C673    1.433   .     S
C672   O710    1.290   .     A
C672   C674    1.432   .     S
C672   O708    1.287   .     A
C674   C767    1.335   .     S
C674   H784    1.086   .     S
C675   H691    1.083   .     S
C675   C685    1.403   .     A
C675   C677    1.390   .     A
C676   C678    1.390   .     A
C676   C686    1.403   .     A
C676   H692    1.083   .     S
C677   C679    1.401   .     A
C677   H693    1.082   .     S
C678   C680    1.402   .     A
C678   H694    1.083   .     S
C679   C681    1.401   .     A
C680   C682    1.402   .     A
C681   H695    1.083   .     S
C681   C683    1.390   .     A
C682   C684    1.389   .     A
C682   H696    1.082   .     S
C683   C685    1.404   .     A
C683   H697    1.083   .     S
C684   C686    1.403   .     A
C684   H698    1.083   .     S
C685   C968    1.470   1_545 S
C686   C967    1.470   .     S
Cu687  O707    1.953   .     S
Cu687  O706    1.957   .     S
Cu687  O703    1.957   .     S
Cu687  Cu688   2.685   .     S
Cu687  N702    2.017   .     S
Cu687  O710    1.956   .     S
Cu688  O709    1.956   .     S
Cu688  O708    1.953   .     S
Cu688  O705    1.957   .     S
Cu688  N701    2.017   .     S
Cu688  O704    1.957   .     S
H689   C767    1.087   .     S
O711   C712    1.412   .     S
C712   H714    1.115   .     S
C712   H713    1.109   .     S
C712   H715    1.111   .     S
O716   C717    1.412   .     S
C717   H718    1.109   .     S
C717   H719    1.114   .     S
C717   H720    1.110   .     S
O721   C722    1.412   .     S
C722   H725    1.110   .     S
C722   H724    1.115   .     S
C722   H723    1.109   .     S
O726   C727    1.411   .     S
C727   H729    1.110   .     S
C727   H730    1.109   .     S
C727   H728    1.113   .     S
O731   C732    1.417   .     S
C732   H734    1.119   .     S
H733   C168    1.112   1_556 S
C735   H736    1.112   .     S
C735   C826    1.530   .     S
H737   C171    1.109   1_556 S
C738   H741    1.111   .     S
C738   H740    1.111   .     S
C738   H739    1.109   .     S
C738   C171    1.527   1_556 S
O742   C743    1.416   .     S
C743   C746    1.534   .     S
C743   H745    1.116   .     S
C743   H180    1.111   1_556 S
C746   C749    1.525   .     S
C746   H748    1.111   .     S
C746   H747    1.112   .     S
C749   H750    1.111   .     S
C749   H751    1.111   .     S
C749   H752    1.111   .     S
C753   C773    1.460   .     S
C753   O797    1.296   .     A
C753   O799    1.295   .     A
C754   O798    1.296   .     A
C754   C774    1.461   .     S
C754   O800    1.296   .     A
C755   H793    1.078   .     S
C755   C757    1.415   .     A
C755   C763    1.407   .     A
C756   C764    1.406   .     A
C756   C758    1.417   .     A
C756   H794    1.080   .     S
C757   O805    1.383   .     S
C757   N795    1.369   .     A
C758   O810    1.384   .     S
C758   N796    1.369   .     A
C759   N795    1.371   .     A
C759   O815    1.382   .     S
C759   C761    1.420   .     A
C760   O820    1.381   .     S
C760   N796    1.371   .     A
C760   C762    1.419   .     A
C761   O825    1.383   .     S
C761   C763    1.417   .     A
C762   C764    1.417   .     A
C762   O836    1.384   .     S
C764   C199    1.522   1_556 S
C765   O803    1.290   .     A
C765   O801    1.287   .     A
C765   C767    1.433   .     S
C766   O804    1.290   .     A
C766   C768    1.432   .     S
C766   O802    1.287   .     A
C768   C579    1.335   1_655 S
C768   H596    1.086   1_655 S
C769   H785    1.083   .     S
C769   C779    1.403   .     A
C769   C771    1.390   .     A
C770   C772    1.390   .     A
C770   C780    1.403   .     A
C770   H786    1.083   .     S
C771   C773    1.401   .     A
C771   H787    1.082   .     S
C772   C774    1.402   .     A
C772   H788    1.083   .     S
C773   C775    1.401   .     A
C774   C776    1.402   .     A
C775   H789    1.083   .     S
C775   C777    1.390   .     A
C776   C778    1.389   .     A
C776   H790    1.082   .     S
C777   C779    1.404   .     A
C777   H791    1.083   .     S
C778   C780    1.403   .     A
C778   H792    1.083   .     S
C779   C1062   1.470   1_545 S
C780   C1061   1.470   .     S
Cu781  O801    1.953   .     S
Cu781  O800    1.957   .     S
Cu781  O797    1.957   .     S
Cu781  Cu782   2.685   .     S
Cu781  N796    2.017   .     S
Cu781  O804    1.956   .     S
Cu782  O803    1.956   .     S
Cu782  O802    1.953   .     S
Cu782  O799    1.957   .     S
Cu782  N795    2.017   .     S
Cu782  O798    1.957   .     S
H783   C579    1.087   1_655 S
O805   C806    1.412   .     S
C806   H808    1.115   .     S
C806   H807    1.109   .     S
C806   H809    1.111   .     S
O810   C811    1.412   .     S
C811   H812    1.109   .     S
C811   H813    1.114   .     S
C811   H814    1.110   .     S
O815   C816    1.412   .     S
C816   H819    1.110   .     S
C816   H818    1.115   .     S
C816   H817    1.109   .     S
O820   C821    1.411   .     S
C821   H823    1.110   .     S
C821   H824    1.109   .     S
C821   H822    1.113   .     S
O825   C826    1.417   .     S
C826   H828    1.119   .     S
H827   C262    1.112   1_556 S
C829   H830    1.112   .     S
C829   C638    1.530   1_655 S
H831   C265    1.109   1_556 S
C832   H835    1.111   .     S
C832   H834    1.111   .     S
C832   H833    1.109   .     S
C832   C265    1.527   1_556 S
O836   C837    1.416   .     S
C837   C840    1.534   .     S
C837   H839    1.116   .     S
C837   H274    1.111   1_556 S
C840   C843    1.525   .     S
C840   H842    1.111   .     S
C840   H841    1.112   .     S
C843   H844    1.111   .     S
C843   H845    1.111   .     S
C843   H846    1.111   .     S
C847   C867    1.460   .     S
C847   O891    1.296   .     A
C847   O893    1.295   .     A
C848   O892    1.296   .     A
C848   C868    1.461   .     S
C848   O894    1.296   .     A
C849   H887    1.078   .     S
C849   C851    1.415   .     A
C849   C857    1.407   .     A
C850   C858    1.406   .     A
C850   C852    1.417   .     A
C850   H888    1.080   .     S
C851   O899    1.383   .     S
C851   N889    1.369   .     A
C852   O904    1.384   .     S
C852   N890    1.369   .     A
C853   N889    1.371   .     A
C853   O909    1.382   .     S
C853   C855    1.420   .     A
C854   O914    1.381   .     S
C854   N890    1.371   .     A
C854   C856    1.419   .     A
C855   O919    1.383   .     S
C855   C857    1.417   .     A
C856   C858    1.417   .     A
C856   O930    1.384   .     S
C858   C293    1.522   1_556 S
C859   O897    1.290   .     A
C859   O895    1.287   .     A
C859   C861    1.433   .     S
C860   O898    1.290   .     A
C860   C862    1.432   .     S
C860   O896    1.287   .     A
C861   C1050   1.335   1_455 S
C861   H1065   1.087   1_455 S
C862   C955    1.335   .     S
C862   H972    1.086   .     S
C863   H879    1.083   .     S
C863   C873    1.403   .     A
C863   C865    1.390   .     A
C864   C866    1.390   .     A
C864   C874    1.403   .     A
C864   H880    1.083   .     S
C865   C867    1.401   .     A
C865   H881    1.082   .     S
C866   C868    1.402   .     A
C866   H882    1.083   .     S
C867   C869    1.401   .     A
C868   C870    1.402   .     A
C869   H883    1.083   .     S
C869   C871    1.390   .     A
C870   C872    1.389   .     A
C870   H884    1.082   .     S
C871   C873    1.404   .     A
C871   H885    1.083   .     S
C872   C874    1.403   .     A
C872   H886    1.083   .     S
C874   C591    1.470   1_565 S
Cu875  O895    1.953   .     S
Cu875  O894    1.957   .     S
Cu875  O891    1.957   .     S
Cu875  Cu876   2.685   .     S
Cu875  N890    2.017   .     S
Cu875  O898    1.956   .     S
Cu876  O897    1.956   .     S
Cu876  O896    1.953   .     S
Cu876  O893    1.957   .     S
Cu876  N889    2.017   .     S
Cu876  O892    1.957   .     S
H877   C955    1.087   .     S
H878   C1050   1.086   1_455 S
O899   C900    1.412   .     S
C900   H902    1.115   .     S
C900   H901    1.109   .     S
C900   H903    1.111   .     S
O904   C905    1.412   .     S
C905   H906    1.109   .     S
C905   H907    1.114   .     S
C905   H908    1.110   .     S
O909   C910    1.412   .     S
C910   H913    1.110   .     S
C910   H912    1.115   .     S
C910   H911    1.109   .     S
O914   C915    1.411   .     S
C915   H917    1.110   .     S
C915   H918    1.109   .     S
C915   H916    1.113   .     S
O919   C920    1.417   .     S
C920   H922    1.119   .     S
C920   C1111   1.530   1_455 S
H921   C356    1.112   1_556 S
C923   H924    1.112   .     S
C923   C1014   1.530   .     S
H925   C359    1.109   1_556 S
C926   H929    1.111   .     S
C926   H928    1.111   .     S
C926   H927    1.109   .     S
C926   C359    1.527   1_556 S
O930   C931    1.416   .     S
C931   C934    1.534   .     S
C931   H933    1.116   .     S
C931   H368    1.111   1_556 S
C934   C937    1.525   .     S
C934   H936    1.111   .     S
C934   H935    1.112   .     S
C937   H938    1.111   .     S
C937   H939    1.111   .     S
C937   H940    1.111   .     S
C941   C961    1.460   .     S
C941   O985    1.296   .     A
C941   O987    1.295   .     A
C942   O986    1.296   .     A
C942   C962    1.461   .     S
C942   O988    1.296   .     A
C943   H981    1.078   .     S
C943   C945    1.415   .     A
C943   C951    1.407   .     A
C944   C952    1.406   .     A
C944   C946    1.417   .     A
C944   H982    1.080   .     S
C945   O993    1.383   .     S
C945   N983    1.369   .     A
C946   O998    1.384   .     S
C946   N984    1.369   .     A
C947   N983    1.371   .     A
C947   O1003   1.382   .     S
C947   C949    1.420   .     A
C948   O1008   1.381   .     S
C948   N984    1.371   .     A
C948   C950    1.419   .     A
C949   O1013   1.383   .     S
C949   C951    1.417   .     A
C950   C952    1.417   .     A
C950   O1024   1.384   .     S
C952   C387    1.522   1_556 S
C953   O991    1.290   .     A
C953   O989    1.287   .     A
C953   C955    1.433   .     S
C954   O992    1.290   .     A
C954   C956    1.432   .     S
C954   O990    1.287   .     A
C956   C1049   1.335   .     S
C956   H1066   1.086   .     S
C957   H973    1.083   .     S
C957   C967    1.403   .     A
C957   C959    1.390   .     A
C958   C960    1.390   .     A
C958   C968    1.403   .     A
C958   H974    1.083   .     S
C959   C961    1.401   .     A
C959   H975    1.082   .     S
C960   C962    1.402   .     A
C960   H976    1.083   .     S
C961   C963    1.401   .     A
C962   C964    1.402   .     A
C963   H977    1.083   .     S
C963   C965    1.390   .     A
C964   C966    1.389   .     A
C964   H978    1.082   .     S
C965   C967    1.404   .     A
C965   H979    1.083   .     S
C966   C968    1.403   .     A
C966   H980    1.083   .     S
C968   C685    1.470   1_565 S
Cu969  O989    1.953   .     S
Cu969  O988    1.957   .     S
Cu969  O985    1.957   .     S
Cu969  Cu970   2.685   .     S
Cu969  N984    2.017   .     S
Cu969  O992    1.956   .     S
Cu970  O991    1.956   .     S
Cu970  O990    1.953   .     S
Cu970  O987    1.957   .     S
Cu970  N983    2.017   .     S
Cu970  O986    1.957   .     S
H971   C1049   1.087   .     S
O993   C994    1.412   .     S
C994   H996    1.115   .     S
C994   H995    1.109   .     S
C994   H997    1.111   .     S
O998   C999    1.412   .     S
C999   H1000   1.109   .     S
C999   H1001   1.114   .     S
C999   H1002   1.110   .     S
O1003  C1004   1.412   .     S
C1004  H1007   1.110   .     S
C1004  H1006   1.115   .     S
C1004  H1005   1.109   .     S
O1008  C1009   1.411   .     S
C1009  H1011   1.110   .     S
C1009  H1012   1.109   .     S
C1009  H1010   1.113   .     S
O1013  C1014   1.417   .     S
C1014  H1016   1.119   .     S
H1015  C450    1.112   1_556 S
C1017  H1018   1.112   .     S
C1017  C1108   1.530   .     S
H1019  C453    1.109   1_556 S
C1020  H1023   1.111   .     S
C1020  H1022   1.111   .     S
C1020  H1021   1.109   .     S
C1020  C453    1.527   1_556 S
O1024  C1025   1.416   .     S
C1025  C1028   1.534   .     S
C1025  H1027   1.116   .     S
C1025  H462    1.111   1_556 S
C1028  C1031   1.525   .     S
C1028  H1030   1.111   .     S
C1028  H1029   1.112   .     S
C1031  H1032   1.111   .     S
C1031  H1033   1.111   .     S
C1031  H1034   1.111   .     S
C1035  C1055   1.460   .     S
C1035  O1079   1.296   .     A
C1035  O1081   1.295   .     A
C1036  O1080   1.296   .     A
C1036  C1056   1.461   .     S
C1036  O1082   1.296   .     A
C1037  H1075   1.078   .     S
C1037  C1039   1.415   .     A
C1037  C1045   1.407   .     A
C1038  C1046   1.406   .     A
C1038  C1040   1.417   .     A
C1038  H1076   1.080   .     S
C1039  O1087   1.383   .     S
C1039  N1077   1.369   .     A
C1040  O1092   1.384   .     S
C1040  N1078   1.369   .     A
C1041  N1077   1.371   .     A
C1041  O1097   1.382   .     S
C1041  C1043   1.420   .     A
C1042  O1102   1.381   .     S
C1042  N1078   1.371   .     A
C1042  C1044   1.419   .     A
C1043  O1107   1.383   .     S
C1043  C1045   1.417   .     A
C1044  C1046   1.417   .     A
C1044  O1118   1.384   .     S
C1046  C481    1.522   1_556 S
C1047  O1085   1.290   .     A
C1047  O1083   1.287   .     A
C1047  C1049   1.433   .     S
C1048  O1086   1.290   .     A
C1048  C1050   1.432   .     S
C1048  O1084   1.287   .     A
C1050  C861    1.335   1_655 S
C1050  H878    1.086   1_655 S
C1051  H1067   1.083   .     S
C1051  C1061   1.403   .     A
C1051  C1053   1.390   .     A
C1052  C1054   1.390   .     A
C1052  C1062   1.403   .     A
C1052  H1068   1.083   .     S
C1053  C1055   1.401   .     A
C1053  H1069   1.082   .     S
C1054  C1056   1.402   .     A
C1054  H1070   1.083   .     S
C1055  C1057   1.401   .     A
C1056  C1058   1.402   .     A
C1057  H1071   1.083   .     S
C1057  C1059   1.390   .     A
C1058  C1060   1.389   .     A
C1058  H1072   1.082   .     S
C1059  C1061   1.404   .     A
C1059  H1073   1.083   .     S
C1060  C1062   1.403   .     A
C1060  H1074   1.083   .     S
C1062  C779    1.470   1_565 S
Cu1063 O1083   1.953   .     S
Cu1063 O1082   1.957   .     S
Cu1063 O1079   1.957   .     S
Cu1063 Cu1064  2.685   .     S
Cu1063 N1078   2.017   .     S
Cu1063 O1086   1.956   .     S
Cu1064 O1085   1.956   .     S
Cu1064 O1084   1.953   .     S
Cu1064 O1081   1.957   .     S
Cu1064 N1077   2.017   .     S
Cu1064 O1080   1.957   .     S
H1065  C861    1.087   1_655 S
O1087  C1088   1.412   .     S
C1088  H1090   1.115   .     S
C1088  H1089   1.109   .     S
C1088  H1091   1.111   .     S
O1092  C1093   1.412   .     S
C1093  H1094   1.109   .     S
C1093  H1095   1.114   .     S
C1093  H1096   1.110   .     S
O1097  C1098   1.412   .     S
C1098  H1101   1.110   .     S
C1098  H1100   1.115   .     S
C1098  H1099   1.109   .     S
O1102  C1103   1.411   .     S
C1103  H1105   1.110   .     S
C1103  H1106   1.109   .     S
C1103  H1104   1.113   .     S
O1107  C1108   1.417   .     S
C1108  H1110   1.119   .     S
H1109  C544    1.112   1_556 S
C1111  H1112   1.112   .     S
C1111  C920    1.530   1_655 S
H1113  C547    1.109   1_556 S
C1114  H1117   1.111   .     S
C1114  H1116   1.111   .     S
C1114  H1115   1.109   .     S
C1114  C547    1.527   1_556 S
O1118  C1119   1.416   .     S
C1119  C1122   1.534   .     S
C1119  H1121   1.116   .     S
C1119  H556    1.111   1_556 S
C1122  C1125   1.525   .     S
C1122  H1124   1.111   .     S
C1122  H1123   1.112   .     S
C1125  H1126   1.111   .     S
C1125  H1127   1.111   .     S
C1125  H1128   1.111   .     S
