data_str_m2_o1_o10_pcu_sym.118
_audit_creation_date              2020-01-03
_audit_creation_method            'Materials Studio'
_symmetry_space_group_name_H-M    'P1'
_symmetry_Int_Tables_number       1
_symmetry_cell_setting            triclinic
loop_
_symmetry_equiv_pos_as_xyz
  x,y,z
_cell_length_a                    26.1729
_cell_length_b                    32.4847
_cell_length_c                    28.8804
_cell_angle_alpha                 89.9901
_cell_angle_beta                  97.8912
_cell_angle_gamma                 92.4822
loop_
_atom_site_label
_atom_site_type_symbol
_atom_site_fract_x
_atom_site_fract_y
_atom_site_fract_z
_atom_site_U_iso_or_equiv
_atom_site_adp_type
_atom_site_occupancy
C1     C     0.16667   0.08747   0.16666   0.00000  Uiso   1.00
C2     C     0.16667   0.24587   0.16668   0.00000  Uiso   1.00
C3     C     0.06804   0.16655   0.15465   0.00000  Uiso   1.00
C4     C     0.26529   0.16678   0.17868   0.00000  Uiso   1.00
C5     C     0.01267   0.16623   0.14812   0.00000  Uiso   1.00
C6     C     0.32066   0.16710   0.18521   0.00000  Uiso   1.00
C7     C     0.16654   0.02129   0.12459   0.00000  Uiso   1.00
C8     C     0.16679   0.31204   0.20875   0.00000  Uiso   1.00
C9     C     0.16640   0.31203   0.12457   0.00000  Uiso   1.00
C10    C     0.16693   0.02130   0.20876   0.00000  Uiso   1.00
C11    C     0.16660   0.29054   0.16666   0.00000  Uiso   1.00
C12    C     0.16673   0.04279   0.16667   0.00000  Uiso   1.00
C13    C     0.13358   0.14063   0.02056   0.00000  Uiso   1.00
C14    C     0.19975   0.19271   0.31278   0.00000  Uiso   1.00
C15    C     0.13365   0.14059   0.30457   0.00000  Uiso   1.00
C16    C     0.19969   0.19274   0.02877   0.00000  Uiso   1.00
Cu17   Cu    0.16667   0.16667   0.21355   0.00000  Uiso   1.00
Cu18   Cu    0.16667   0.16666   0.11978   0.00000  Uiso   1.00
H19    H     0.32603   0.16515   0.11254   0.00000  Uiso   1.00
H20    H     0.00730   0.16818   0.22079   0.00000  Uiso   1.00
H21    H     0.16652   0.03726   0.09166   0.00000  Uiso   1.00
H22    H     0.16682   0.29608   0.24167   0.00000  Uiso   1.00
H23    H     0.16610   0.29606   0.09162   0.00000  Uiso   1.00
H24    H     0.16723   0.03727   0.24171   0.00000  Uiso   1.00
N25    N     0.16668   0.16668   0.28403   0.00000  Uiso   1.00
N26    N     0.16665   0.16666   0.04931   0.00000  Uiso   1.00
O27    O     0.16666   0.10655   0.20625   0.00000  Uiso   1.00
O28    O     0.16667   0.22678   0.12709   0.00000  Uiso   1.00
O29    O     0.16666   0.10654   0.12706   0.00000  Uiso   1.00
O30    O     0.16667   0.22679   0.20628   0.00000  Uiso   1.00
O31    O     0.09161   0.16667   0.19712   0.00000  Uiso   1.00
O32    O     0.24172   0.16666   0.13621   0.00000  Uiso   1.00
O33    O     0.09161   0.16666   0.11793   0.00000  Uiso   1.00
O34    O     0.24172   0.16667   0.21540   0.00000  Uiso   1.00
Br35   Br    0.08578   0.10312   0.04609   0.00000  Uiso   1.00
Br36   Br    0.24756   0.23022   0.28724   0.00000  Uiso   1.00
Br37   Br    0.08630   0.10266   0.26728   0.00000  Uiso   1.00
Br38   Br    0.24703   0.23067   0.06605   0.00000  Uiso   1.00
C39    C     0.50000   0.08747   0.16666   0.00000  Uiso   1.00
C40    C     0.50000   0.24587   0.16668   0.00000  Uiso   1.00
C41    C     0.40137   0.16655   0.15465   0.00000  Uiso   1.00
C42    C     0.59863   0.16678   0.17868   0.00000  Uiso   1.00
C43    C     0.34601   0.16623   0.14812   0.00000  Uiso   1.00
C44    C     0.65399   0.16710   0.18521   0.00000  Uiso   1.00
C45    C     0.49988   0.02129   0.12459   0.00000  Uiso   1.00
C46    C     0.50012   0.31204   0.20875   0.00000  Uiso   1.00
C47    C     0.49973   0.31203   0.12457   0.00000  Uiso   1.00
C48    C     0.50027   0.02130   0.20876   0.00000  Uiso   1.00
C49    C     0.49994   0.29054   0.16666   0.00000  Uiso   1.00
C50    C     0.50006   0.04279   0.16667   0.00000  Uiso   1.00
C51    C     0.46692   0.14063   0.02056   0.00000  Uiso   1.00
C52    C     0.53308   0.19271   0.31278   0.00000  Uiso   1.00
C53    C     0.46698   0.14059   0.30457   0.00000  Uiso   1.00
C54    C     0.53302   0.19274   0.02877   0.00000  Uiso   1.00
Cu55   Cu    0.50000   0.16667   0.21355   0.00000  Uiso   1.00
Cu56   Cu    0.50000   0.16666   0.11978   0.00000  Uiso   1.00
H57    H     0.65937   0.16515   0.11254   0.00000  Uiso   1.00
H58    H     0.34063   0.16818   0.22079   0.00000  Uiso   1.00
H59    H     0.49985   0.03726   0.09166   0.00000  Uiso   1.00
H60    H     0.50015   0.29608   0.24167   0.00000  Uiso   1.00
H61    H     0.49943   0.29606   0.09162   0.00000  Uiso   1.00
H62    H     0.50057   0.03727   0.24171   0.00000  Uiso   1.00
N63    N     0.50001   0.16668   0.28403   0.00000  Uiso   1.00
N64    N     0.49999   0.16666   0.04931   0.00000  Uiso   1.00
O65    O     0.50000   0.10655   0.20625   0.00000  Uiso   1.00
O66    O     0.50000   0.22678   0.12709   0.00000  Uiso   1.00
O67    O     0.50000   0.10654   0.12706   0.00000  Uiso   1.00
O68    O     0.50000   0.22679   0.20628   0.00000  Uiso   1.00
O69    O     0.42495   0.16667   0.19712   0.00000  Uiso   1.00
O70    O     0.57505   0.16666   0.13621   0.00000  Uiso   1.00
O71    O     0.42494   0.16666   0.11793   0.00000  Uiso   1.00
O72    O     0.57506   0.16667   0.21540   0.00000  Uiso   1.00
Br73   Br    0.41911   0.10312   0.04609   0.00000  Uiso   1.00
Br74   Br    0.58089   0.23022   0.28724   0.00000  Uiso   1.00
Br75   Br    0.41964   0.10266   0.26728   0.00000  Uiso   1.00
Br76   Br    0.58036   0.23067   0.06605   0.00000  Uiso   1.00
C77    C     0.83333   0.08747   0.16666   0.00000  Uiso   1.00
C78    C     0.83333   0.24587   0.16668   0.00000  Uiso   1.00
C79    C     0.73471   0.16655   0.15465   0.00000  Uiso   1.00
C80    C     0.93196   0.16678   0.17868   0.00000  Uiso   1.00
C81    C     0.67934   0.16623   0.14812   0.00000  Uiso   1.00
C82    C     0.98733   0.16710   0.18521   0.00000  Uiso   1.00
C83    C     0.83321   0.02129   0.12459   0.00000  Uiso   1.00
C84    C     0.83346   0.31204   0.20875   0.00000  Uiso   1.00
C85    C     0.83307   0.31203   0.12457   0.00000  Uiso   1.00
C86    C     0.83360   0.02130   0.20876   0.00000  Uiso   1.00
C87    C     0.83327   0.29054   0.16666   0.00000  Uiso   1.00
C88    C     0.83340   0.04279   0.16667   0.00000  Uiso   1.00
C89    C     0.80025   0.14063   0.02056   0.00000  Uiso   1.00
C90    C     0.86642   0.19271   0.31278   0.00000  Uiso   1.00
C91    C     0.80031   0.14059   0.30457   0.00000  Uiso   1.00
C92    C     0.86635   0.19274   0.02877   0.00000  Uiso   1.00
Cu93   Cu    0.83333   0.16667   0.21355   0.00000  Uiso   1.00
Cu94   Cu    0.83333   0.16666   0.11978   0.00000  Uiso   1.00
H95    H     0.99270   0.16515   0.11254   0.00000  Uiso   1.00
H96    H     0.67397   0.16818   0.22079   0.00000  Uiso   1.00
H97    H     0.83318   0.03726   0.09166   0.00000  Uiso   1.00
H98    H     0.83348   0.29608   0.24167   0.00000  Uiso   1.00
H99    H     0.83277   0.29606   0.09162   0.00000  Uiso   1.00
H100   H     0.83390   0.03727   0.24171   0.00000  Uiso   1.00
N101   N     0.83335   0.16668   0.28403   0.00000  Uiso   1.00
N102   N     0.83332   0.16666   0.04931   0.00000  Uiso   1.00
O103   O     0.83333   0.10655   0.20625   0.00000  Uiso   1.00
O104   O     0.83334   0.22678   0.12709   0.00000  Uiso   1.00
O105   O     0.83333   0.10654   0.12706   0.00000  Uiso   1.00
O106   O     0.83334   0.22679   0.20628   0.00000  Uiso   1.00
O107   O     0.75828   0.16667   0.19712   0.00000  Uiso   1.00
O108   O     0.90839   0.16666   0.13621   0.00000  Uiso   1.00
O109   O     0.75828   0.16666   0.11793   0.00000  Uiso   1.00
O110   O     0.90839   0.16667   0.21540   0.00000  Uiso   1.00
Br111  Br    0.75244   0.10312   0.04609   0.00000  Uiso   1.00
Br112  Br    0.91422   0.23022   0.28724   0.00000  Uiso   1.00
Br113  Br    0.75297   0.10266   0.26728   0.00000  Uiso   1.00
Br114  Br    0.91370   0.23067   0.06605   0.00000  Uiso   1.00
C115   C     0.16667   0.42080   0.16666   0.00000  Uiso   1.00
C116   C     0.16667   0.57920   0.16668   0.00000  Uiso   1.00
C117   C     0.06804   0.49988   0.15465   0.00000  Uiso   1.00
C118   C     0.26529   0.50012   0.17868   0.00000  Uiso   1.00
C119   C     0.01267   0.49956   0.14812   0.00000  Uiso   1.00
C120   C     0.32066   0.50044   0.18521   0.00000  Uiso   1.00
C121   C     0.16654   0.35462   0.12459   0.00000  Uiso   1.00
C122   C     0.16679   0.64538   0.20875   0.00000  Uiso   1.00
C123   C     0.16640   0.64537   0.12457   0.00000  Uiso   1.00
C124   C     0.16693   0.35463   0.20876   0.00000  Uiso   1.00
C125   C     0.16660   0.62388   0.16666   0.00000  Uiso   1.00
C126   C     0.16673   0.37612   0.16667   0.00000  Uiso   1.00
C127   C     0.13358   0.47396   0.02056   0.00000  Uiso   1.00
C128   C     0.19975   0.52604   0.31278   0.00000  Uiso   1.00
C129   C     0.13365   0.47393   0.30457   0.00000  Uiso   1.00
C130   C     0.19969   0.52607   0.02877   0.00000  Uiso   1.00
Cu131  Cu    0.16667   0.50001   0.21355   0.00000  Uiso   1.00
Cu132  Cu    0.16667   0.49999   0.11978   0.00000  Uiso   1.00
H133   H     0.32603   0.49848   0.11254   0.00000  Uiso   1.00
H134   H     0.00730   0.50152   0.22079   0.00000  Uiso   1.00
H135   H     0.16652   0.37059   0.09166   0.00000  Uiso   1.00
H136   H     0.16682   0.62941   0.24167   0.00000  Uiso   1.00
H137   H     0.16610   0.62940   0.09162   0.00000  Uiso   1.00
H138   H     0.16723   0.37060   0.24171   0.00000  Uiso   1.00
N139   N     0.16668   0.50001   0.28403   0.00000  Uiso   1.00
N140   N     0.16665   0.49999   0.04931   0.00000  Uiso   1.00
O141   O     0.16666   0.43989   0.20625   0.00000  Uiso   1.00
O142   O     0.16667   0.56011   0.12709   0.00000  Uiso   1.00
O143   O     0.16666   0.43988   0.12706   0.00000  Uiso   1.00
O144   O     0.16667   0.56012   0.20628   0.00000  Uiso   1.00
O145   O     0.09161   0.50000   0.19712   0.00000  Uiso   1.00
O146   O     0.24172   0.50000   0.13621   0.00000  Uiso   1.00
O147   O     0.09161   0.49999   0.11793   0.00000  Uiso   1.00
O148   O     0.24172   0.50001   0.21540   0.00000  Uiso   1.00
Br149  Br    0.08578   0.43645   0.04609   0.00000  Uiso   1.00
Br150  Br    0.24756   0.56355   0.28724   0.00000  Uiso   1.00
Br151  Br    0.08630   0.43599   0.26728   0.00000  Uiso   1.00
Br152  Br    0.24703   0.56400   0.06605   0.00000  Uiso   1.00
C153   C     0.50000   0.42080   0.16666   0.00000  Uiso   1.00
C154   C     0.50000   0.57920   0.16668   0.00000  Uiso   1.00
C155   C     0.40137   0.49988   0.15465   0.00000  Uiso   1.00
C156   C     0.59863   0.50012   0.17868   0.00000  Uiso   1.00
C157   C     0.34601   0.49956   0.14812   0.00000  Uiso   1.00
C158   C     0.65399   0.50044   0.18521   0.00000  Uiso   1.00
C159   C     0.49988   0.35462   0.12459   0.00000  Uiso   1.00
C160   C     0.50012   0.64538   0.20875   0.00000  Uiso   1.00
C161   C     0.49973   0.64537   0.12457   0.00000  Uiso   1.00
C162   C     0.50027   0.35463   0.20876   0.00000  Uiso   1.00
C163   C     0.49994   0.62388   0.16666   0.00000  Uiso   1.00
C164   C     0.50006   0.37612   0.16667   0.00000  Uiso   1.00
C165   C     0.46692   0.47396   0.02056   0.00000  Uiso   1.00
C166   C     0.53308   0.52604   0.31278   0.00000  Uiso   1.00
C167   C     0.46698   0.47393   0.30457   0.00000  Uiso   1.00
C168   C     0.53302   0.52607   0.02877   0.00000  Uiso   1.00
Cu169  Cu    0.50000   0.50001   0.21355   0.00000  Uiso   1.00
Cu170  Cu    0.50000   0.49999   0.11978   0.00000  Uiso   1.00
H171   H     0.65937   0.49848   0.11254   0.00000  Uiso   1.00
H172   H     0.34063   0.50152   0.22079   0.00000  Uiso   1.00
H173   H     0.49985   0.37059   0.09166   0.00000  Uiso   1.00
H174   H     0.50015   0.62941   0.24167   0.00000  Uiso   1.00
H175   H     0.49943   0.62940   0.09162   0.00000  Uiso   1.00
H176   H     0.50057   0.37060   0.24171   0.00000  Uiso   1.00
N177   N     0.50001   0.50001   0.28403   0.00000  Uiso   1.00
N178   N     0.49999   0.49999   0.04931   0.00000  Uiso   1.00
O179   O     0.50000   0.43989   0.20625   0.00000  Uiso   1.00
O180   O     0.50000   0.56011   0.12709   0.00000  Uiso   1.00
O181   O     0.50000   0.43988   0.12706   0.00000  Uiso   1.00
O182   O     0.50000   0.56012   0.20628   0.00000  Uiso   1.00
O183   O     0.42495   0.50000   0.19712   0.00000  Uiso   1.00
O184   O     0.57505   0.50000   0.13621   0.00000  Uiso   1.00
O185   O     0.42494   0.49999   0.11793   0.00000  Uiso   1.00
O186   O     0.57506   0.50001   0.21540   0.00000  Uiso   1.00
Br187  Br    0.41911   0.43645   0.04609   0.00000  Uiso   1.00
Br188  Br    0.58089   0.56355   0.28724   0.00000  Uiso   1.00
Br189  Br    0.41964   0.43599   0.26728   0.00000  Uiso   1.00
Br190  Br    0.58036   0.56400   0.06605   0.00000  Uiso   1.00
C191   C     0.83333   0.42080   0.16666   0.00000  Uiso   1.00
C192   C     0.83333   0.57920   0.16668   0.00000  Uiso   1.00
C193   C     0.73471   0.49988   0.15465   0.00000  Uiso   1.00
C194   C     0.93196   0.50012   0.17868   0.00000  Uiso   1.00
C195   C     0.67934   0.49956   0.14812   0.00000  Uiso   1.00
C196   C     0.98733   0.50044   0.18521   0.00000  Uiso   1.00
C197   C     0.83321   0.35462   0.12459   0.00000  Uiso   1.00
C198   C     0.83346   0.64538   0.20875   0.00000  Uiso   1.00
C199   C     0.83307   0.64537   0.12457   0.00000  Uiso   1.00
C200   C     0.83360   0.35463   0.20876   0.00000  Uiso   1.00
C201   C     0.83327   0.62388   0.16666   0.00000  Uiso   1.00
C202   C     0.83340   0.37612   0.16667   0.00000  Uiso   1.00
C203   C     0.80025   0.47396   0.02056   0.00000  Uiso   1.00
C204   C     0.86642   0.52604   0.31278   0.00000  Uiso   1.00
C205   C     0.80031   0.47393   0.30457   0.00000  Uiso   1.00
C206   C     0.86635   0.52607   0.02877   0.00000  Uiso   1.00
Cu207  Cu    0.83333   0.50001   0.21355   0.00000  Uiso   1.00
Cu208  Cu    0.83333   0.49999   0.11978   0.00000  Uiso   1.00
H209   H     0.99270   0.49848   0.11254   0.00000  Uiso   1.00
H210   H     0.67397   0.50152   0.22079   0.00000  Uiso   1.00
H211   H     0.83318   0.37059   0.09166   0.00000  Uiso   1.00
H212   H     0.83348   0.62941   0.24167   0.00000  Uiso   1.00
H213   H     0.83277   0.62940   0.09162   0.00000  Uiso   1.00
H214   H     0.83390   0.37060   0.24171   0.00000  Uiso   1.00
N215   N     0.83335   0.50001   0.28403   0.00000  Uiso   1.00
N216   N     0.83332   0.49999   0.04931   0.00000  Uiso   1.00
O217   O     0.83333   0.43989   0.20625   0.00000  Uiso   1.00
O218   O     0.83334   0.56011   0.12709   0.00000  Uiso   1.00
O219   O     0.83333   0.43988   0.12706   0.00000  Uiso   1.00
O220   O     0.83334   0.56012   0.20628   0.00000  Uiso   1.00
O221   O     0.75828   0.50000   0.19712   0.00000  Uiso   1.00
O222   O     0.90839   0.50000   0.13621   0.00000  Uiso   1.00
O223   O     0.75828   0.49999   0.11793   0.00000  Uiso   1.00
O224   O     0.90839   0.50001   0.21540   0.00000  Uiso   1.00
Br225  Br    0.75244   0.43645   0.04609   0.00000  Uiso   1.00
Br226  Br    0.91422   0.56355   0.28724   0.00000  Uiso   1.00
Br227  Br    0.75297   0.43599   0.26728   0.00000  Uiso   1.00
Br228  Br    0.91370   0.56400   0.06605   0.00000  Uiso   1.00
C229   C     0.16667   0.75413   0.16666   0.00000  Uiso   1.00
C230   C     0.16667   0.91253   0.16668   0.00000  Uiso   1.00
C231   C     0.06804   0.83322   0.15465   0.00000  Uiso   1.00
C232   C     0.26529   0.83345   0.17868   0.00000  Uiso   1.00
C233   C     0.01267   0.83290   0.14812   0.00000  Uiso   1.00
C234   C     0.32066   0.83377   0.18521   0.00000  Uiso   1.00
C235   C     0.16654   0.68796   0.12459   0.00000  Uiso   1.00
C236   C     0.16679   0.97871   0.20875   0.00000  Uiso   1.00
C237   C     0.16640   0.97870   0.12457   0.00000  Uiso   1.00
C238   C     0.16693   0.68797   0.20876   0.00000  Uiso   1.00
C239   C     0.16660   0.95721   0.16666   0.00000  Uiso   1.00
C240   C     0.16673   0.70946   0.16667   0.00000  Uiso   1.00
C241   C     0.13358   0.80729   0.02056   0.00000  Uiso   1.00
C242   C     0.19975   0.85937   0.31278   0.00000  Uiso   1.00
C243   C     0.13365   0.80726   0.30457   0.00000  Uiso   1.00
C244   C     0.19969   0.85941   0.02877   0.00000  Uiso   1.00
Cu245  Cu    0.16667   0.83334   0.21355   0.00000  Uiso   1.00
Cu246  Cu    0.16667   0.83333   0.11978   0.00000  Uiso   1.00
H247   H     0.32603   0.83182   0.11254   0.00000  Uiso   1.00
H248   H     0.00730   0.83485   0.22079   0.00000  Uiso   1.00
H249   H     0.16652   0.70392   0.09166   0.00000  Uiso   1.00
H250   H     0.16682   0.96274   0.24167   0.00000  Uiso   1.00
H251   H     0.16610   0.96273   0.09162   0.00000  Uiso   1.00
H252   H     0.16723   0.70394   0.24171   0.00000  Uiso   1.00
N253   N     0.16668   0.83334   0.28403   0.00000  Uiso   1.00
N254   N     0.16665   0.83332   0.04931   0.00000  Uiso   1.00
O255   O     0.16666   0.77322   0.20625   0.00000  Uiso   1.00
O256   O     0.16667   0.89345   0.12709   0.00000  Uiso   1.00
O257   O     0.16666   0.77321   0.12706   0.00000  Uiso   1.00
O258   O     0.16667   0.89346   0.20628   0.00000  Uiso   1.00
O259   O     0.09161   0.83334   0.19712   0.00000  Uiso   1.00
O260   O     0.24172   0.83333   0.13621   0.00000  Uiso   1.00
O261   O     0.09161   0.83333   0.11793   0.00000  Uiso   1.00
O262   O     0.24172   0.83334   0.21540   0.00000  Uiso   1.00
Br263  Br    0.08578   0.76978   0.04609   0.00000  Uiso   1.00
Br264  Br    0.24756   0.89688   0.28724   0.00000  Uiso   1.00
Br265  Br    0.08630   0.76933   0.26728   0.00000  Uiso   1.00
Br266  Br    0.24703   0.89734   0.06605   0.00000  Uiso   1.00
C267   C     0.50000   0.75413   0.16666   0.00000  Uiso   1.00
C268   C     0.50000   0.91253   0.16668   0.00000  Uiso   1.00
C269   C     0.40137   0.83322   0.15465   0.00000  Uiso   1.00
C270   C     0.59863   0.83345   0.17868   0.00000  Uiso   1.00
C271   C     0.34601   0.83290   0.14812   0.00000  Uiso   1.00
C272   C     0.65399   0.83377   0.18521   0.00000  Uiso   1.00
C273   C     0.49988   0.68796   0.12459   0.00000  Uiso   1.00
C274   C     0.50012   0.97871   0.20875   0.00000  Uiso   1.00
C275   C     0.49973   0.97870   0.12457   0.00000  Uiso   1.00
C276   C     0.50027   0.68797   0.20876   0.00000  Uiso   1.00
C277   C     0.49994   0.95721   0.16666   0.00000  Uiso   1.00
C278   C     0.50006   0.70946   0.16667   0.00000  Uiso   1.00
C279   C     0.46692   0.80729   0.02056   0.00000  Uiso   1.00
C280   C     0.53308   0.85937   0.31278   0.00000  Uiso   1.00
C281   C     0.46698   0.80726   0.30457   0.00000  Uiso   1.00
C282   C     0.53302   0.85941   0.02877   0.00000  Uiso   1.00
Cu283  Cu    0.50000   0.83334   0.21355   0.00000  Uiso   1.00
Cu284  Cu    0.50000   0.83333   0.11978   0.00000  Uiso   1.00
H285   H     0.65937   0.83182   0.11254   0.00000  Uiso   1.00
H286   H     0.34063   0.83485   0.22079   0.00000  Uiso   1.00
H287   H     0.49985   0.70392   0.09166   0.00000  Uiso   1.00
H288   H     0.50015   0.96274   0.24167   0.00000  Uiso   1.00
H289   H     0.49943   0.96273   0.09162   0.00000  Uiso   1.00
H290   H     0.50057   0.70394   0.24171   0.00000  Uiso   1.00
N291   N     0.50001   0.83334   0.28403   0.00000  Uiso   1.00
N292   N     0.49999   0.83332   0.04931   0.00000  Uiso   1.00
O293   O     0.50000   0.77322   0.20625   0.00000  Uiso   1.00
O294   O     0.50000   0.89345   0.12709   0.00000  Uiso   1.00
O295   O     0.50000   0.77321   0.12706   0.00000  Uiso   1.00
O296   O     0.50000   0.89346   0.20628   0.00000  Uiso   1.00
O297   O     0.42495   0.83334   0.19712   0.00000  Uiso   1.00
O298   O     0.57505   0.83333   0.13621   0.00000  Uiso   1.00
O299   O     0.42494   0.83333   0.11793   0.00000  Uiso   1.00
O300   O     0.57506   0.83334   0.21540   0.00000  Uiso   1.00
Br301  Br    0.41911   0.76978   0.04609   0.00000  Uiso   1.00
Br302  Br    0.58089   0.89688   0.28724   0.00000  Uiso   1.00
Br303  Br    0.41964   0.76933   0.26728   0.00000  Uiso   1.00
Br304  Br    0.58036   0.89734   0.06605   0.00000  Uiso   1.00
C305   C     0.83333   0.75413   0.16666   0.00000  Uiso   1.00
C306   C     0.83333   0.91253   0.16668   0.00000  Uiso   1.00
C307   C     0.73471   0.83322   0.15465   0.00000  Uiso   1.00
C308   C     0.93196   0.83345   0.17868   0.00000  Uiso   1.00
C309   C     0.67934   0.83290   0.14812   0.00000  Uiso   1.00
C310   C     0.98733   0.83377   0.18521   0.00000  Uiso   1.00
C311   C     0.83321   0.68796   0.12459   0.00000  Uiso   1.00
C312   C     0.83346   0.97871   0.20875   0.00000  Uiso   1.00
C313   C     0.83307   0.97870   0.12457   0.00000  Uiso   1.00
C314   C     0.83360   0.68797   0.20876   0.00000  Uiso   1.00
C315   C     0.83327   0.95721   0.16666   0.00000  Uiso   1.00
C316   C     0.83340   0.70946   0.16667   0.00000  Uiso   1.00
C317   C     0.80025   0.80729   0.02056   0.00000  Uiso   1.00
C318   C     0.86642   0.85937   0.31278   0.00000  Uiso   1.00
C319   C     0.80031   0.80726   0.30457   0.00000  Uiso   1.00
C320   C     0.86635   0.85941   0.02877   0.00000  Uiso   1.00
Cu321  Cu    0.83333   0.83334   0.21355   0.00000  Uiso   1.00
Cu322  Cu    0.83333   0.83333   0.11978   0.00000  Uiso   1.00
H323   H     0.99270   0.83182   0.11254   0.00000  Uiso   1.00
H324   H     0.67397   0.83485   0.22079   0.00000  Uiso   1.00
H325   H     0.83318   0.70392   0.09166   0.00000  Uiso   1.00
H326   H     0.83348   0.96274   0.24167   0.00000  Uiso   1.00
H327   H     0.83277   0.96273   0.09162   0.00000  Uiso   1.00
H328   H     0.83390   0.70394   0.24171   0.00000  Uiso   1.00
N329   N     0.83335   0.83334   0.28403   0.00000  Uiso   1.00
N330   N     0.83332   0.83332   0.04931   0.00000  Uiso   1.00
O331   O     0.83333   0.77322   0.20625   0.00000  Uiso   1.00
O332   O     0.83334   0.89345   0.12709   0.00000  Uiso   1.00
O333   O     0.83333   0.77321   0.12706   0.00000  Uiso   1.00
O334   O     0.83334   0.89346   0.20628   0.00000  Uiso   1.00
O335   O     0.75828   0.83334   0.19712   0.00000  Uiso   1.00
O336   O     0.90839   0.83333   0.13621   0.00000  Uiso   1.00
O337   O     0.75828   0.83333   0.11793   0.00000  Uiso   1.00
O338   O     0.90839   0.83334   0.21540   0.00000  Uiso   1.00
Br339  Br    0.75244   0.76978   0.04609   0.00000  Uiso   1.00
Br340  Br    0.91422   0.89688   0.28724   0.00000  Uiso   1.00
Br341  Br    0.75297   0.76933   0.26728   0.00000  Uiso   1.00
Br342  Br    0.91370   0.89734   0.06605   0.00000  Uiso   1.00
C343   C     0.16667   0.08747   0.49999   0.00000  Uiso   1.00
C344   C     0.16667   0.24587   0.50001   0.00000  Uiso   1.00
C345   C     0.06804   0.16655   0.48798   0.00000  Uiso   1.00
C346   C     0.26529   0.16678   0.51202   0.00000  Uiso   1.00
C347   C     0.01267   0.16623   0.48146   0.00000  Uiso   1.00
C348   C     0.32066   0.16710   0.51854   0.00000  Uiso   1.00
C349   C     0.16654   0.02129   0.45792   0.00000  Uiso   1.00
C350   C     0.16679   0.31204   0.54208   0.00000  Uiso   1.00
C351   C     0.16640   0.31203   0.45791   0.00000  Uiso   1.00
C352   C     0.16693   0.02130   0.54209   0.00000  Uiso   1.00
C353   C     0.16660   0.29054   0.50000   0.00000  Uiso   1.00
C354   C     0.16673   0.04279   0.50000   0.00000  Uiso   1.00
C355   C     0.13358   0.14063   0.35389   0.00000  Uiso   1.00
C356   C     0.19975   0.19271   0.64611   0.00000  Uiso   1.00
C357   C     0.13365   0.14059   0.63790   0.00000  Uiso   1.00
C358   C     0.19969   0.19274   0.36210   0.00000  Uiso   1.00
Cu359  Cu    0.16667   0.16667   0.54689   0.00000  Uiso   1.00
Cu360  Cu    0.16667   0.16666   0.45311   0.00000  Uiso   1.00
H361   H     0.32603   0.16515   0.44588   0.00000  Uiso   1.00
H362   H     0.00730   0.16818   0.55412   0.00000  Uiso   1.00
H363   H     0.16652   0.03726   0.42500   0.00000  Uiso   1.00
H364   H     0.16682   0.29608   0.57500   0.00000  Uiso   1.00
H365   H     0.16610   0.29606   0.42495   0.00000  Uiso   1.00
H366   H     0.16723   0.03727   0.57505   0.00000  Uiso   1.00
N367   N     0.16668   0.16668   0.61736   0.00000  Uiso   1.00
N368   N     0.16665   0.16666   0.38264   0.00000  Uiso   1.00
O369   O     0.16666   0.10655   0.53958   0.00000  Uiso   1.00
O370   O     0.16667   0.22678   0.46042   0.00000  Uiso   1.00
O371   O     0.16666   0.10654   0.46039   0.00000  Uiso   1.00
O372   O     0.16667   0.22679   0.53961   0.00000  Uiso   1.00
O373   O     0.09161   0.16667   0.53046   0.00000  Uiso   1.00
O374   O     0.24172   0.16666   0.46954   0.00000  Uiso   1.00
O375   O     0.09161   0.16666   0.45127   0.00000  Uiso   1.00
O376   O     0.24172   0.16667   0.54873   0.00000  Uiso   1.00
Br377  Br    0.08578   0.10312   0.37942   0.00000  Uiso   1.00
Br378  Br    0.24756   0.23022   0.62058   0.00000  Uiso   1.00
Br379  Br    0.08630   0.10266   0.60061   0.00000  Uiso   1.00
Br380  Br    0.24703   0.23067   0.39939   0.00000  Uiso   1.00
C381   C     0.50000   0.08747   0.49999   0.00000  Uiso   1.00
C382   C     0.50000   0.24587   0.50001   0.00000  Uiso   1.00
C383   C     0.40137   0.16655   0.48798   0.00000  Uiso   1.00
C384   C     0.59863   0.16678   0.51202   0.00000  Uiso   1.00
C385   C     0.34601   0.16623   0.48146   0.00000  Uiso   1.00
C386   C     0.65399   0.16710   0.51854   0.00000  Uiso   1.00
C387   C     0.49988   0.02129   0.45792   0.00000  Uiso   1.00
C388   C     0.50012   0.31204   0.54208   0.00000  Uiso   1.00
C389   C     0.49973   0.31203   0.45791   0.00000  Uiso   1.00
C390   C     0.50027   0.02130   0.54209   0.00000  Uiso   1.00
C391   C     0.49994   0.29054   0.50000   0.00000  Uiso   1.00
C392   C     0.50006   0.04279   0.50000   0.00000  Uiso   1.00
C393   C     0.46692   0.14063   0.35389   0.00000  Uiso   1.00
C394   C     0.53308   0.19271   0.64611   0.00000  Uiso   1.00
C395   C     0.46698   0.14059   0.63790   0.00000  Uiso   1.00
C396   C     0.53302   0.19274   0.36210   0.00000  Uiso   1.00
Cu397  Cu    0.50000   0.16667   0.54689   0.00000  Uiso   1.00
Cu398  Cu    0.50000   0.16666   0.45311   0.00000  Uiso   1.00
H399   H     0.65937   0.16515   0.44588   0.00000  Uiso   1.00
H400   H     0.34063   0.16818   0.55412   0.00000  Uiso   1.00
H401   H     0.49985   0.03726   0.42500   0.00000  Uiso   1.00
H402   H     0.50015   0.29608   0.57500   0.00000  Uiso   1.00
H403   H     0.49943   0.29606   0.42495   0.00000  Uiso   1.00
H404   H     0.50057   0.03727   0.57505   0.00000  Uiso   1.00
N405   N     0.50001   0.16668   0.61736   0.00000  Uiso   1.00
N406   N     0.49999   0.16666   0.38264   0.00000  Uiso   1.00
O407   O     0.50000   0.10655   0.53958   0.00000  Uiso   1.00
O408   O     0.50000   0.22678   0.46042   0.00000  Uiso   1.00
O409   O     0.50000   0.10654   0.46039   0.00000  Uiso   1.00
O410   O     0.50000   0.22679   0.53961   0.00000  Uiso   1.00
O411   O     0.42495   0.16667   0.53046   0.00000  Uiso   1.00
O412   O     0.57505   0.16666   0.46954   0.00000  Uiso   1.00
O413   O     0.42494   0.16666   0.45127   0.00000  Uiso   1.00
O414   O     0.57506   0.16667   0.54873   0.00000  Uiso   1.00
Br415  Br    0.41911   0.10312   0.37942   0.00000  Uiso   1.00
Br416  Br    0.58089   0.23022   0.62058   0.00000  Uiso   1.00
Br417  Br    0.41964   0.10266   0.60061   0.00000  Uiso   1.00
Br418  Br    0.58036   0.23067   0.39939   0.00000  Uiso   1.00
C419   C     0.83333   0.08747   0.49999   0.00000  Uiso   1.00
C420   C     0.83333   0.24587   0.50001   0.00000  Uiso   1.00
C421   C     0.73471   0.16655   0.48798   0.00000  Uiso   1.00
C422   C     0.93196   0.16678   0.51202   0.00000  Uiso   1.00
C423   C     0.67934   0.16623   0.48146   0.00000  Uiso   1.00
C424   C     0.98733   0.16710   0.51854   0.00000  Uiso   1.00
C425   C     0.83321   0.02129   0.45792   0.00000  Uiso   1.00
C426   C     0.83346   0.31204   0.54208   0.00000  Uiso   1.00
C427   C     0.83307   0.31203   0.45791   0.00000  Uiso   1.00
C428   C     0.83360   0.02130   0.54209   0.00000  Uiso   1.00
C429   C     0.83327   0.29054   0.50000   0.00000  Uiso   1.00
C430   C     0.83340   0.04279   0.50000   0.00000  Uiso   1.00
C431   C     0.80025   0.14063   0.35389   0.00000  Uiso   1.00
C432   C     0.86642   0.19271   0.64611   0.00000  Uiso   1.00
C433   C     0.80031   0.14059   0.63790   0.00000  Uiso   1.00
C434   C     0.86635   0.19274   0.36210   0.00000  Uiso   1.00
Cu435  Cu    0.83333   0.16667   0.54689   0.00000  Uiso   1.00
Cu436  Cu    0.83333   0.16666   0.45311   0.00000  Uiso   1.00
H437   H     0.99270   0.16515   0.44588   0.00000  Uiso   1.00
H438   H     0.67397   0.16818   0.55412   0.00000  Uiso   1.00
H439   H     0.83318   0.03726   0.42500   0.00000  Uiso   1.00
H440   H     0.83348   0.29608   0.57500   0.00000  Uiso   1.00
H441   H     0.83277   0.29606   0.42495   0.00000  Uiso   1.00
H442   H     0.83390   0.03727   0.57505   0.00000  Uiso   1.00
N443   N     0.83335   0.16668   0.61736   0.00000  Uiso   1.00
N444   N     0.83332   0.16666   0.38264   0.00000  Uiso   1.00
O445   O     0.83333   0.10655   0.53958   0.00000  Uiso   1.00
O446   O     0.83334   0.22678   0.46042   0.00000  Uiso   1.00
O447   O     0.83333   0.10654   0.46039   0.00000  Uiso   1.00
O448   O     0.83334   0.22679   0.53961   0.00000  Uiso   1.00
O449   O     0.75828   0.16667   0.53046   0.00000  Uiso   1.00
O450   O     0.90839   0.16666   0.46954   0.00000  Uiso   1.00
O451   O     0.75828   0.16666   0.45127   0.00000  Uiso   1.00
O452   O     0.90839   0.16667   0.54873   0.00000  Uiso   1.00
Br453  Br    0.75244   0.10312   0.37942   0.00000  Uiso   1.00
Br454  Br    0.91422   0.23022   0.62058   0.00000  Uiso   1.00
Br455  Br    0.75297   0.10266   0.60061   0.00000  Uiso   1.00
Br456  Br    0.91370   0.23067   0.39939   0.00000  Uiso   1.00
C457   C     0.16667   0.42080   0.49999   0.00000  Uiso   1.00
C458   C     0.16667   0.57920   0.50001   0.00000  Uiso   1.00
C459   C     0.06804   0.49988   0.48798   0.00000  Uiso   1.00
C460   C     0.26529   0.50012   0.51202   0.00000  Uiso   1.00
C461   C     0.01267   0.49956   0.48146   0.00000  Uiso   1.00
C462   C     0.32066   0.50044   0.51854   0.00000  Uiso   1.00
C463   C     0.16654   0.35462   0.45792   0.00000  Uiso   1.00
C464   C     0.16679   0.64538   0.54208   0.00000  Uiso   1.00
C465   C     0.16640   0.64537   0.45791   0.00000  Uiso   1.00
C466   C     0.16693   0.35463   0.54209   0.00000  Uiso   1.00
C467   C     0.16660   0.62388   0.50000   0.00000  Uiso   1.00
C468   C     0.16673   0.37612   0.50000   0.00000  Uiso   1.00
C469   C     0.13358   0.47396   0.35389   0.00000  Uiso   1.00
C470   C     0.19975   0.52604   0.64611   0.00000  Uiso   1.00
C471   C     0.13365   0.47393   0.63790   0.00000  Uiso   1.00
C472   C     0.19969   0.52607   0.36210   0.00000  Uiso   1.00
Cu473  Cu    0.16667   0.50001   0.54689   0.00000  Uiso   1.00
Cu474  Cu    0.16667   0.49999   0.45311   0.00000  Uiso   1.00
H475   H     0.32603   0.49848   0.44588   0.00000  Uiso   1.00
H476   H     0.00730   0.50152   0.55412   0.00000  Uiso   1.00
H477   H     0.16652   0.37059   0.42500   0.00000  Uiso   1.00
H478   H     0.16682   0.62941   0.57500   0.00000  Uiso   1.00
H479   H     0.16610   0.62940   0.42495   0.00000  Uiso   1.00
H480   H     0.16723   0.37060   0.57505   0.00000  Uiso   1.00
N481   N     0.16668   0.50001   0.61736   0.00000  Uiso   1.00
N482   N     0.16665   0.49999   0.38264   0.00000  Uiso   1.00
O483   O     0.16666   0.43989   0.53958   0.00000  Uiso   1.00
O484   O     0.16667   0.56011   0.46042   0.00000  Uiso   1.00
O485   O     0.16666   0.43988   0.46039   0.00000  Uiso   1.00
O486   O     0.16667   0.56012   0.53961   0.00000  Uiso   1.00
O487   O     0.09161   0.50000   0.53046   0.00000  Uiso   1.00
O488   O     0.24172   0.50000   0.46954   0.00000  Uiso   1.00
O489   O     0.09161   0.49999   0.45127   0.00000  Uiso   1.00
O490   O     0.24172   0.50001   0.54873   0.00000  Uiso   1.00
Br491  Br    0.08578   0.43645   0.37942   0.00000  Uiso   1.00
Br492  Br    0.24756   0.56355   0.62058   0.00000  Uiso   1.00
Br493  Br    0.08630   0.43599   0.60061   0.00000  Uiso   1.00
Br494  Br    0.24703   0.56400   0.39939   0.00000  Uiso   1.00
C495   C     0.50000   0.42080   0.49999   0.00000  Uiso   1.00
C496   C     0.50000   0.57920   0.50001   0.00000  Uiso   1.00
C497   C     0.40137   0.49988   0.48798   0.00000  Uiso   1.00
C498   C     0.59863   0.50012   0.51202   0.00000  Uiso   1.00
C499   C     0.34601   0.49956   0.48146   0.00000  Uiso   1.00
C500   C     0.65399   0.50044   0.51854   0.00000  Uiso   1.00
C501   C     0.49988   0.35462   0.45792   0.00000  Uiso   1.00
C502   C     0.50012   0.64538   0.54208   0.00000  Uiso   1.00
C503   C     0.49973   0.64537   0.45791   0.00000  Uiso   1.00
C504   C     0.50027   0.35463   0.54209   0.00000  Uiso   1.00
C505   C     0.49994   0.62388   0.50000   0.00000  Uiso   1.00
C506   C     0.50006   0.37612   0.50000   0.00000  Uiso   1.00
C507   C     0.46692   0.47396   0.35389   0.00000  Uiso   1.00
C508   C     0.53308   0.52604   0.64611   0.00000  Uiso   1.00
C509   C     0.46698   0.47393   0.63790   0.00000  Uiso   1.00
C510   C     0.53302   0.52607   0.36210   0.00000  Uiso   1.00
Cu511  Cu    0.50000   0.50001   0.54689   0.00000  Uiso   1.00
Cu512  Cu    0.50000   0.49999   0.45311   0.00000  Uiso   1.00
H513   H     0.65937   0.49848   0.44588   0.00000  Uiso   1.00
H514   H     0.34063   0.50152   0.55412   0.00000  Uiso   1.00
H515   H     0.49985   0.37059   0.42500   0.00000  Uiso   1.00
H516   H     0.50015   0.62941   0.57500   0.00000  Uiso   1.00
H517   H     0.49943   0.62940   0.42495   0.00000  Uiso   1.00
H518   H     0.50057   0.37060   0.57505   0.00000  Uiso   1.00
N519   N     0.50001   0.50001   0.61736   0.00000  Uiso   1.00
N520   N     0.49999   0.49999   0.38264   0.00000  Uiso   1.00
O521   O     0.50000   0.43989   0.53958   0.00000  Uiso   1.00
O522   O     0.50000   0.56011   0.46042   0.00000  Uiso   1.00
O523   O     0.50000   0.43988   0.46039   0.00000  Uiso   1.00
O524   O     0.50000   0.56012   0.53961   0.00000  Uiso   1.00
O525   O     0.42495   0.50000   0.53046   0.00000  Uiso   1.00
O526   O     0.57505   0.50000   0.46954   0.00000  Uiso   1.00
O527   O     0.42494   0.49999   0.45127   0.00000  Uiso   1.00
O528   O     0.57506   0.50001   0.54873   0.00000  Uiso   1.00
Br529  Br    0.41911   0.43645   0.37942   0.00000  Uiso   1.00
Br530  Br    0.58089   0.56355   0.62058   0.00000  Uiso   1.00
Br531  Br    0.41964   0.43599   0.60061   0.00000  Uiso   1.00
Br532  Br    0.58036   0.56400   0.39939   0.00000  Uiso   1.00
C533   C     0.83333   0.42080   0.49999   0.00000  Uiso   1.00
C534   C     0.83333   0.57920   0.50001   0.00000  Uiso   1.00
C535   C     0.73471   0.49988   0.48798   0.00000  Uiso   1.00
C536   C     0.93196   0.50012   0.51202   0.00000  Uiso   1.00
C537   C     0.67934   0.49956   0.48146   0.00000  Uiso   1.00
C538   C     0.98733   0.50044   0.51854   0.00000  Uiso   1.00
C539   C     0.83321   0.35462   0.45792   0.00000  Uiso   1.00
C540   C     0.83346   0.64538   0.54208   0.00000  Uiso   1.00
C541   C     0.83307   0.64537   0.45791   0.00000  Uiso   1.00
C542   C     0.83360   0.35463   0.54209   0.00000  Uiso   1.00
C543   C     0.83327   0.62388   0.50000   0.00000  Uiso   1.00
C544   C     0.83340   0.37612   0.50000   0.00000  Uiso   1.00
C545   C     0.80025   0.47396   0.35389   0.00000  Uiso   1.00
C546   C     0.86642   0.52604   0.64611   0.00000  Uiso   1.00
C547   C     0.80031   0.47393   0.63790   0.00000  Uiso   1.00
C548   C     0.86635   0.52607   0.36210   0.00000  Uiso   1.00
Cu549  Cu    0.83333   0.50001   0.54689   0.00000  Uiso   1.00
Cu550  Cu    0.83333   0.49999   0.45311   0.00000  Uiso   1.00
H551   H     0.99270   0.49848   0.44588   0.00000  Uiso   1.00
H552   H     0.67397   0.50152   0.55412   0.00000  Uiso   1.00
H553   H     0.83318   0.37059   0.42500   0.00000  Uiso   1.00
H554   H     0.83348   0.62941   0.57500   0.00000  Uiso   1.00
H555   H     0.83277   0.62940   0.42495   0.00000  Uiso   1.00
H556   H     0.83390   0.37060   0.57505   0.00000  Uiso   1.00
N557   N     0.83335   0.50001   0.61736   0.00000  Uiso   1.00
N558   N     0.83332   0.49999   0.38264   0.00000  Uiso   1.00
O559   O     0.83333   0.43989   0.53958   0.00000  Uiso   1.00
O560   O     0.83334   0.56011   0.46042   0.00000  Uiso   1.00
O561   O     0.83333   0.43988   0.46039   0.00000  Uiso   1.00
O562   O     0.83334   0.56012   0.53961   0.00000  Uiso   1.00
O563   O     0.75828   0.50000   0.53046   0.00000  Uiso   1.00
O564   O     0.90839   0.50000   0.46954   0.00000  Uiso   1.00
O565   O     0.75828   0.49999   0.45127   0.00000  Uiso   1.00
O566   O     0.90839   0.50001   0.54873   0.00000  Uiso   1.00
Br567  Br    0.75244   0.43645   0.37942   0.00000  Uiso   1.00
Br568  Br    0.91422   0.56355   0.62058   0.00000  Uiso   1.00
Br569  Br    0.75297   0.43599   0.60061   0.00000  Uiso   1.00
Br570  Br    0.91370   0.56400   0.39939   0.00000  Uiso   1.00
C571   C     0.16667   0.75413   0.49999   0.00000  Uiso   1.00
C572   C     0.16667   0.91253   0.50001   0.00000  Uiso   1.00
C573   C     0.06804   0.83322   0.48798   0.00000  Uiso   1.00
C574   C     0.26529   0.83345   0.51202   0.00000  Uiso   1.00
C575   C     0.01267   0.83290   0.48146   0.00000  Uiso   1.00
C576   C     0.32066   0.83377   0.51854   0.00000  Uiso   1.00
C577   C     0.16654   0.68796   0.45792   0.00000  Uiso   1.00
C578   C     0.16679   0.97871   0.54208   0.00000  Uiso   1.00
C579   C     0.16640   0.97870   0.45791   0.00000  Uiso   1.00
C580   C     0.16693   0.68797   0.54209   0.00000  Uiso   1.00
C581   C     0.16660   0.95721   0.50000   0.00000  Uiso   1.00
C582   C     0.16673   0.70946   0.50000   0.00000  Uiso   1.00
C583   C     0.13358   0.80729   0.35389   0.00000  Uiso   1.00
C584   C     0.19975   0.85937   0.64611   0.00000  Uiso   1.00
C585   C     0.13365   0.80726   0.63790   0.00000  Uiso   1.00
C586   C     0.19969   0.85941   0.36210   0.00000  Uiso   1.00
Cu587  Cu    0.16667   0.83334   0.54689   0.00000  Uiso   1.00
Cu588  Cu    0.16667   0.83333   0.45311   0.00000  Uiso   1.00
H589   H     0.32603   0.83182   0.44588   0.00000  Uiso   1.00
H590   H     0.00730   0.83485   0.55412   0.00000  Uiso   1.00
H591   H     0.16652   0.70392   0.42500   0.00000  Uiso   1.00
H592   H     0.16682   0.96274   0.57500   0.00000  Uiso   1.00
H593   H     0.16610   0.96273   0.42495   0.00000  Uiso   1.00
H594   H     0.16723   0.70394   0.57505   0.00000  Uiso   1.00
N595   N     0.16668   0.83334   0.61736   0.00000  Uiso   1.00
N596   N     0.16665   0.83332   0.38264   0.00000  Uiso   1.00
O597   O     0.16666   0.77322   0.53958   0.00000  Uiso   1.00
O598   O     0.16667   0.89345   0.46042   0.00000  Uiso   1.00
O599   O     0.16666   0.77321   0.46039   0.00000  Uiso   1.00
O600   O     0.16667   0.89346   0.53961   0.00000  Uiso   1.00
O601   O     0.09161   0.83334   0.53046   0.00000  Uiso   1.00
O602   O     0.24172   0.83333   0.46954   0.00000  Uiso   1.00
O603   O     0.09161   0.83333   0.45127   0.00000  Uiso   1.00
O604   O     0.24172   0.83334   0.54873   0.00000  Uiso   1.00
Br605  Br    0.08578   0.76978   0.37942   0.00000  Uiso   1.00
Br606  Br    0.24756   0.89688   0.62058   0.00000  Uiso   1.00
Br607  Br    0.08630   0.76933   0.60061   0.00000  Uiso   1.00
Br608  Br    0.24703   0.89734   0.39939   0.00000  Uiso   1.00
C609   C     0.50000   0.75413   0.49999   0.00000  Uiso   1.00
C610   C     0.50000   0.91253   0.50001   0.00000  Uiso   1.00
C611   C     0.40137   0.83322   0.48798   0.00000  Uiso   1.00
C612   C     0.59863   0.83345   0.51202   0.00000  Uiso   1.00
C613   C     0.34601   0.83290   0.48146   0.00000  Uiso   1.00
C614   C     0.65399   0.83377   0.51854   0.00000  Uiso   1.00
C615   C     0.49988   0.68796   0.45792   0.00000  Uiso   1.00
C616   C     0.50012   0.97871   0.54208   0.00000  Uiso   1.00
C617   C     0.49973   0.97870   0.45791   0.00000  Uiso   1.00
C618   C     0.50027   0.68797   0.54209   0.00000  Uiso   1.00
C619   C     0.49994   0.95721   0.50000   0.00000  Uiso   1.00
C620   C     0.50006   0.70946   0.50000   0.00000  Uiso   1.00
C621   C     0.46692   0.80729   0.35389   0.00000  Uiso   1.00
C622   C     0.53308   0.85937   0.64611   0.00000  Uiso   1.00
C623   C     0.46698   0.80726   0.63790   0.00000  Uiso   1.00
C624   C     0.53302   0.85941   0.36210   0.00000  Uiso   1.00
Cu625  Cu    0.50000   0.83334   0.54689   0.00000  Uiso   1.00
Cu626  Cu    0.50000   0.83333   0.45311   0.00000  Uiso   1.00
H627   H     0.65937   0.83182   0.44588   0.00000  Uiso   1.00
H628   H     0.34063   0.83485   0.55412   0.00000  Uiso   1.00
H629   H     0.49985   0.70392   0.42500   0.00000  Uiso   1.00
H630   H     0.50015   0.96274   0.57500   0.00000  Uiso   1.00
H631   H     0.49943   0.96273   0.42495   0.00000  Uiso   1.00
H632   H     0.50057   0.70394   0.57505   0.00000  Uiso   1.00
N633   N     0.50001   0.83334   0.61736   0.00000  Uiso   1.00
N634   N     0.49999   0.83332   0.38264   0.00000  Uiso   1.00
O635   O     0.50000   0.77322   0.53958   0.00000  Uiso   1.00
O636   O     0.50000   0.89345   0.46042   0.00000  Uiso   1.00
O637   O     0.50000   0.77321   0.46039   0.00000  Uiso   1.00
O638   O     0.50000   0.89346   0.53961   0.00000  Uiso   1.00
O639   O     0.42495   0.83334   0.53046   0.00000  Uiso   1.00
O640   O     0.57505   0.83333   0.46954   0.00000  Uiso   1.00
O641   O     0.42494   0.83333   0.45127   0.00000  Uiso   1.00
O642   O     0.57506   0.83334   0.54873   0.00000  Uiso   1.00
Br643  Br    0.41911   0.76978   0.37942   0.00000  Uiso   1.00
Br644  Br    0.58089   0.89688   0.62058   0.00000  Uiso   1.00
Br645  Br    0.41964   0.76933   0.60061   0.00000  Uiso   1.00
Br646  Br    0.58036   0.89734   0.39939   0.00000  Uiso   1.00
C647   C     0.83333   0.75413   0.49999   0.00000  Uiso   1.00
C648   C     0.83333   0.91253   0.50001   0.00000  Uiso   1.00
C649   C     0.73471   0.83322   0.48798   0.00000  Uiso   1.00
C650   C     0.93196   0.83345   0.51202   0.00000  Uiso   1.00
C651   C     0.67934   0.83290   0.48146   0.00000  Uiso   1.00
C652   C     0.98733   0.83377   0.51854   0.00000  Uiso   1.00
C653   C     0.83321   0.68796   0.45792   0.00000  Uiso   1.00
C654   C     0.83346   0.97871   0.54208   0.00000  Uiso   1.00
C655   C     0.83307   0.97870   0.45791   0.00000  Uiso   1.00
C656   C     0.83360   0.68797   0.54209   0.00000  Uiso   1.00
C657   C     0.83327   0.95721   0.50000   0.00000  Uiso   1.00
C658   C     0.83340   0.70946   0.50000   0.00000  Uiso   1.00
C659   C     0.80025   0.80729   0.35389   0.00000  Uiso   1.00
C660   C     0.86642   0.85937   0.64611   0.00000  Uiso   1.00
C661   C     0.80031   0.80726   0.63790   0.00000  Uiso   1.00
C662   C     0.86635   0.85941   0.36210   0.00000  Uiso   1.00
Cu663  Cu    0.83333   0.83334   0.54689   0.00000  Uiso   1.00
Cu664  Cu    0.83333   0.83333   0.45311   0.00000  Uiso   1.00
H665   H     0.99270   0.83182   0.44588   0.00000  Uiso   1.00
H666   H     0.67397   0.83485   0.55412   0.00000  Uiso   1.00
H667   H     0.83318   0.70392   0.42500   0.00000  Uiso   1.00
H668   H     0.83348   0.96274   0.57500   0.00000  Uiso   1.00
H669   H     0.83277   0.96273   0.42495   0.00000  Uiso   1.00
H670   H     0.83390   0.70394   0.57505   0.00000  Uiso   1.00
N671   N     0.83335   0.83334   0.61736   0.00000  Uiso   1.00
N672   N     0.83332   0.83332   0.38264   0.00000  Uiso   1.00
O673   O     0.83333   0.77322   0.53958   0.00000  Uiso   1.00
O674   O     0.83334   0.89345   0.46042   0.00000  Uiso   1.00
O675   O     0.83333   0.77321   0.46039   0.00000  Uiso   1.00
O676   O     0.83334   0.89346   0.53961   0.00000  Uiso   1.00
O677   O     0.75828   0.83334   0.53046   0.00000  Uiso   1.00
O678   O     0.90839   0.83333   0.46954   0.00000  Uiso   1.00
O679   O     0.75828   0.83333   0.45127   0.00000  Uiso   1.00
O680   O     0.90839   0.83334   0.54873   0.00000  Uiso   1.00
Br681  Br    0.75244   0.76978   0.37942   0.00000  Uiso   1.00
Br682  Br    0.91422   0.89688   0.62058   0.00000  Uiso   1.00
Br683  Br    0.75297   0.76933   0.60061   0.00000  Uiso   1.00
Br684  Br    0.91370   0.89734   0.39939   0.00000  Uiso   1.00
C685   C     0.16667   0.08747   0.83332   0.00000  Uiso   1.00
C686   C     0.16667   0.24587   0.83334   0.00000  Uiso   1.00
C687   C     0.06804   0.16655   0.82132   0.00000  Uiso   1.00
C688   C     0.26529   0.16678   0.84535   0.00000  Uiso   1.00
C689   C     0.01267   0.16623   0.81479   0.00000  Uiso   1.00
C690   C     0.32066   0.16710   0.85188   0.00000  Uiso   1.00
C691   C     0.16654   0.02129   0.79125   0.00000  Uiso   1.00
C692   C     0.16679   0.31204   0.87541   0.00000  Uiso   1.00
C693   C     0.16640   0.31203   0.79124   0.00000  Uiso   1.00
C694   C     0.16693   0.02130   0.87543   0.00000  Uiso   1.00
C695   C     0.16660   0.29054   0.83333   0.00000  Uiso   1.00
C696   C     0.16673   0.04279   0.83334   0.00000  Uiso   1.00
C697   C     0.13358   0.14063   0.68722   0.00000  Uiso   1.00
C698   C     0.19975   0.19271   0.97944   0.00000  Uiso   1.00
C699   C     0.13365   0.14059   0.97123   0.00000  Uiso   1.00
C700   C     0.19969   0.19274   0.69543   0.00000  Uiso   1.00
Cu701  Cu    0.16667   0.16667   0.88022   0.00000  Uiso   1.00
Cu702  Cu    0.16667   0.16666   0.78645   0.00000  Uiso   1.00
H703   H     0.32603   0.16515   0.77921   0.00000  Uiso   1.00
H704   H     0.00730   0.16818   0.88746   0.00000  Uiso   1.00
H705   H     0.16652   0.03726   0.75833   0.00000  Uiso   1.00
H706   H     0.16682   0.29608   0.90834   0.00000  Uiso   1.00
H707   H     0.16610   0.29606   0.75829   0.00000  Uiso   1.00
H708   H     0.16723   0.03727   0.90838   0.00000  Uiso   1.00
N709   N     0.16668   0.16668   0.95069   0.00000  Uiso   1.00
N710   N     0.16665   0.16666   0.71597   0.00000  Uiso   1.00
O711   O     0.16666   0.10655   0.87291   0.00000  Uiso   1.00
O712   O     0.16667   0.22678   0.79375   0.00000  Uiso   1.00
O713   O     0.16666   0.10654   0.79372   0.00000  Uiso   1.00
O714   O     0.16667   0.22679   0.87294   0.00000  Uiso   1.00
O715   O     0.09161   0.16667   0.86379   0.00000  Uiso   1.00
O716   O     0.24172   0.16666   0.80288   0.00000  Uiso   1.00
O717   O     0.09161   0.16666   0.78460   0.00000  Uiso   1.00
O718   O     0.24172   0.16667   0.88207   0.00000  Uiso   1.00
Br719  Br    0.08578   0.10312   0.71276   0.00000  Uiso   1.00
Br720  Br    0.24756   0.23022   0.95391   0.00000  Uiso   1.00
Br721  Br    0.08630   0.10266   0.93395   0.00000  Uiso   1.00
Br722  Br    0.24703   0.23067   0.73272   0.00000  Uiso   1.00
C723   C     0.50000   0.08747   0.83332   0.00000  Uiso   1.00
C724   C     0.50000   0.24587   0.83334   0.00000  Uiso   1.00
C725   C     0.40137   0.16655   0.82132   0.00000  Uiso   1.00
C726   C     0.59863   0.16678   0.84535   0.00000  Uiso   1.00
C727   C     0.34601   0.16623   0.81479   0.00000  Uiso   1.00
C728   C     0.65399   0.16710   0.85188   0.00000  Uiso   1.00
C729   C     0.49988   0.02129   0.79125   0.00000  Uiso   1.00
C730   C     0.50012   0.31204   0.87541   0.00000  Uiso   1.00
C731   C     0.49973   0.31203   0.79124   0.00000  Uiso   1.00
C732   C     0.50027   0.02130   0.87543   0.00000  Uiso   1.00
C733   C     0.49994   0.29054   0.83333   0.00000  Uiso   1.00
C734   C     0.50006   0.04279   0.83334   0.00000  Uiso   1.00
C735   C     0.46692   0.14063   0.68722   0.00000  Uiso   1.00
C736   C     0.53308   0.19271   0.97944   0.00000  Uiso   1.00
C737   C     0.46698   0.14059   0.97123   0.00000  Uiso   1.00
C738   C     0.53302   0.19274   0.69543   0.00000  Uiso   1.00
Cu739  Cu    0.50000   0.16667   0.88022   0.00000  Uiso   1.00
Cu740  Cu    0.50000   0.16666   0.78645   0.00000  Uiso   1.00
H741   H     0.65937   0.16515   0.77921   0.00000  Uiso   1.00
H742   H     0.34063   0.16818   0.88746   0.00000  Uiso   1.00
H743   H     0.49985   0.03726   0.75833   0.00000  Uiso   1.00
H744   H     0.50015   0.29608   0.90834   0.00000  Uiso   1.00
H745   H     0.49943   0.29606   0.75829   0.00000  Uiso   1.00
H746   H     0.50057   0.03727   0.90838   0.00000  Uiso   1.00
N747   N     0.50001   0.16668   0.95069   0.00000  Uiso   1.00
N748   N     0.49999   0.16666   0.71597   0.00000  Uiso   1.00
O749   O     0.50000   0.10655   0.87291   0.00000  Uiso   1.00
O750   O     0.50000   0.22678   0.79375   0.00000  Uiso   1.00
O751   O     0.50000   0.10654   0.79372   0.00000  Uiso   1.00
O752   O     0.50000   0.22679   0.87294   0.00000  Uiso   1.00
O753   O     0.42495   0.16667   0.86379   0.00000  Uiso   1.00
O754   O     0.57505   0.16666   0.80288   0.00000  Uiso   1.00
O755   O     0.42494   0.16666   0.78460   0.00000  Uiso   1.00
O756   O     0.57506   0.16667   0.88207   0.00000  Uiso   1.00
Br757  Br    0.41911   0.10312   0.71276   0.00000  Uiso   1.00
Br758  Br    0.58089   0.23022   0.95391   0.00000  Uiso   1.00
Br759  Br    0.41964   0.10266   0.93395   0.00000  Uiso   1.00
Br760  Br    0.58036   0.23067   0.73272   0.00000  Uiso   1.00
C761   C     0.83333   0.08747   0.83332   0.00000  Uiso   1.00
C762   C     0.83333   0.24587   0.83334   0.00000  Uiso   1.00
C763   C     0.73471   0.16655   0.82132   0.00000  Uiso   1.00
C764   C     0.93196   0.16678   0.84535   0.00000  Uiso   1.00
C765   C     0.67934   0.16623   0.81479   0.00000  Uiso   1.00
C766   C     0.98733   0.16710   0.85188   0.00000  Uiso   1.00
C767   C     0.83321   0.02129   0.79125   0.00000  Uiso   1.00
C768   C     0.83346   0.31204   0.87541   0.00000  Uiso   1.00
C769   C     0.83307   0.31203   0.79124   0.00000  Uiso   1.00
C770   C     0.83360   0.02130   0.87543   0.00000  Uiso   1.00
C771   C     0.83327   0.29054   0.83333   0.00000  Uiso   1.00
C772   C     0.83340   0.04279   0.83334   0.00000  Uiso   1.00
C773   C     0.80025   0.14063   0.68722   0.00000  Uiso   1.00
C774   C     0.86642   0.19271   0.97944   0.00000  Uiso   1.00
C775   C     0.80031   0.14059   0.97123   0.00000  Uiso   1.00
C776   C     0.86635   0.19274   0.69543   0.00000  Uiso   1.00
Cu777  Cu    0.83333   0.16667   0.88022   0.00000  Uiso   1.00
Cu778  Cu    0.83333   0.16666   0.78645   0.00000  Uiso   1.00
H779   H     0.99270   0.16515   0.77921   0.00000  Uiso   1.00
H780   H     0.67397   0.16818   0.88746   0.00000  Uiso   1.00
H781   H     0.83318   0.03726   0.75833   0.00000  Uiso   1.00
H782   H     0.83348   0.29608   0.90834   0.00000  Uiso   1.00
H783   H     0.83277   0.29606   0.75829   0.00000  Uiso   1.00
H784   H     0.83390   0.03727   0.90838   0.00000  Uiso   1.00
N785   N     0.83335   0.16668   0.95069   0.00000  Uiso   1.00
N786   N     0.83332   0.16666   0.71597   0.00000  Uiso   1.00
O787   O     0.83333   0.10655   0.87291   0.00000  Uiso   1.00
O788   O     0.83334   0.22678   0.79375   0.00000  Uiso   1.00
O789   O     0.83333   0.10654   0.79372   0.00000  Uiso   1.00
O790   O     0.83334   0.22679   0.87294   0.00000  Uiso   1.00
O791   O     0.75828   0.16667   0.86379   0.00000  Uiso   1.00
O792   O     0.90839   0.16666   0.80288   0.00000  Uiso   1.00
O793   O     0.75828   0.16666   0.78460   0.00000  Uiso   1.00
O794   O     0.90839   0.16667   0.88207   0.00000  Uiso   1.00
Br795  Br    0.75244   0.10312   0.71276   0.00000  Uiso   1.00
Br796  Br    0.91422   0.23022   0.95391   0.00000  Uiso   1.00
Br797  Br    0.75297   0.10266   0.93395   0.00000  Uiso   1.00
Br798  Br    0.91370   0.23067   0.73272   0.00000  Uiso   1.00
C799   C     0.16667   0.42080   0.83332   0.00000  Uiso   1.00
C800   C     0.16667   0.57920   0.83334   0.00000  Uiso   1.00
C801   C     0.06804   0.49988   0.82132   0.00000  Uiso   1.00
C802   C     0.26529   0.50012   0.84535   0.00000  Uiso   1.00
C803   C     0.01267   0.49956   0.81479   0.00000  Uiso   1.00
C804   C     0.32066   0.50044   0.85188   0.00000  Uiso   1.00
C805   C     0.16654   0.35462   0.79125   0.00000  Uiso   1.00
C806   C     0.16679   0.64538   0.87541   0.00000  Uiso   1.00
C807   C     0.16640   0.64537   0.79124   0.00000  Uiso   1.00
C808   C     0.16693   0.35463   0.87543   0.00000  Uiso   1.00
C809   C     0.16660   0.62388   0.83333   0.00000  Uiso   1.00
C810   C     0.16673   0.37612   0.83334   0.00000  Uiso   1.00
C811   C     0.13358   0.47396   0.68722   0.00000  Uiso   1.00
C812   C     0.19975   0.52604   0.97944   0.00000  Uiso   1.00
C813   C     0.13365   0.47393   0.97123   0.00000  Uiso   1.00
C814   C     0.19969   0.52607   0.69543   0.00000  Uiso   1.00
Cu815  Cu    0.16667   0.50001   0.88022   0.00000  Uiso   1.00
Cu816  Cu    0.16667   0.49999   0.78645   0.00000  Uiso   1.00
H817   H     0.32603   0.49848   0.77921   0.00000  Uiso   1.00
H818   H     0.00730   0.50152   0.88746   0.00000  Uiso   1.00
H819   H     0.16652   0.37059   0.75833   0.00000  Uiso   1.00
H820   H     0.16682   0.62941   0.90834   0.00000  Uiso   1.00
H821   H     0.16610   0.62940   0.75829   0.00000  Uiso   1.00
H822   H     0.16723   0.37060   0.90838   0.00000  Uiso   1.00
N823   N     0.16668   0.50001   0.95069   0.00000  Uiso   1.00
N824   N     0.16665   0.49999   0.71597   0.00000  Uiso   1.00
O825   O     0.16666   0.43989   0.87291   0.00000  Uiso   1.00
O826   O     0.16667   0.56011   0.79375   0.00000  Uiso   1.00
O827   O     0.16666   0.43988   0.79372   0.00000  Uiso   1.00
O828   O     0.16667   0.56012   0.87294   0.00000  Uiso   1.00
O829   O     0.09161   0.50000   0.86379   0.00000  Uiso   1.00
O830   O     0.24172   0.50000   0.80288   0.00000  Uiso   1.00
O831   O     0.09161   0.49999   0.78460   0.00000  Uiso   1.00
O832   O     0.24172   0.50001   0.88207   0.00000  Uiso   1.00
Br833  Br    0.08578   0.43645   0.71276   0.00000  Uiso   1.00
Br834  Br    0.24756   0.56355   0.95391   0.00000  Uiso   1.00
Br835  Br    0.08630   0.43599   0.93395   0.00000  Uiso   1.00
Br836  Br    0.24703   0.56400   0.73272   0.00000  Uiso   1.00
C837   C     0.50000   0.42080   0.83332   0.00000  Uiso   1.00
C838   C     0.50000   0.57920   0.83334   0.00000  Uiso   1.00
C839   C     0.40137   0.49988   0.82132   0.00000  Uiso   1.00
C840   C     0.59863   0.50012   0.84535   0.00000  Uiso   1.00
C841   C     0.34601   0.49956   0.81479   0.00000  Uiso   1.00
C842   C     0.65399   0.50044   0.85188   0.00000  Uiso   1.00
C843   C     0.49988   0.35462   0.79125   0.00000  Uiso   1.00
C844   C     0.50012   0.64538   0.87541   0.00000  Uiso   1.00
C845   C     0.49973   0.64537   0.79124   0.00000  Uiso   1.00
C846   C     0.50027   0.35463   0.87543   0.00000  Uiso   1.00
C847   C     0.49994   0.62388   0.83333   0.00000  Uiso   1.00
C848   C     0.50006   0.37612   0.83334   0.00000  Uiso   1.00
C849   C     0.46692   0.47396   0.68722   0.00000  Uiso   1.00
C850   C     0.53308   0.52604   0.97944   0.00000  Uiso   1.00
C851   C     0.46698   0.47393   0.97123   0.00000  Uiso   1.00
C852   C     0.53302   0.52607   0.69543   0.00000  Uiso   1.00
Cu853  Cu    0.50000   0.50001   0.88022   0.00000  Uiso   1.00
Cu854  Cu    0.50000   0.49999   0.78645   0.00000  Uiso   1.00
H855   H     0.65937   0.49848   0.77921   0.00000  Uiso   1.00
H856   H     0.34063   0.50152   0.88746   0.00000  Uiso   1.00
H857   H     0.49985   0.37059   0.75833   0.00000  Uiso   1.00
H858   H     0.50015   0.62941   0.90834   0.00000  Uiso   1.00
H859   H     0.49943   0.62940   0.75829   0.00000  Uiso   1.00
H860   H     0.50057   0.37060   0.90838   0.00000  Uiso   1.00
N861   N     0.50001   0.50001   0.95069   0.00000  Uiso   1.00
N862   N     0.49999   0.49999   0.71597   0.00000  Uiso   1.00
O863   O     0.50000   0.43989   0.87291   0.00000  Uiso   1.00
O864   O     0.50000   0.56011   0.79375   0.00000  Uiso   1.00
O865   O     0.50000   0.43988   0.79372   0.00000  Uiso   1.00
O866   O     0.50000   0.56012   0.87294   0.00000  Uiso   1.00
O867   O     0.42495   0.50000   0.86379   0.00000  Uiso   1.00
O868   O     0.57505   0.50000   0.80288   0.00000  Uiso   1.00
O869   O     0.42494   0.49999   0.78460   0.00000  Uiso   1.00
O870   O     0.57506   0.50001   0.88207   0.00000  Uiso   1.00
Br871  Br    0.41911   0.43645   0.71276   0.00000  Uiso   1.00
Br872  Br    0.58089   0.56355   0.95391   0.00000  Uiso   1.00
Br873  Br    0.41964   0.43599   0.93395   0.00000  Uiso   1.00
Br874  Br    0.58036   0.56400   0.73272   0.00000  Uiso   1.00
C875   C     0.83333   0.42080   0.83332   0.00000  Uiso   1.00
C876   C     0.83333   0.57920   0.83334   0.00000  Uiso   1.00
C877   C     0.73471   0.49988   0.82132   0.00000  Uiso   1.00
C878   C     0.93196   0.50012   0.84535   0.00000  Uiso   1.00
C879   C     0.67934   0.49956   0.81479   0.00000  Uiso   1.00
C880   C     0.98733   0.50044   0.85188   0.00000  Uiso   1.00
C881   C     0.83321   0.35462   0.79125   0.00000  Uiso   1.00
C882   C     0.83346   0.64538   0.87541   0.00000  Uiso   1.00
C883   C     0.83307   0.64537   0.79124   0.00000  Uiso   1.00
C884   C     0.83360   0.35463   0.87543   0.00000  Uiso   1.00
C885   C     0.83327   0.62388   0.83333   0.00000  Uiso   1.00
C886   C     0.83340   0.37612   0.83334   0.00000  Uiso   1.00
C887   C     0.80025   0.47396   0.68722   0.00000  Uiso   1.00
C888   C     0.86642   0.52604   0.97944   0.00000  Uiso   1.00
C889   C     0.80031   0.47393   0.97123   0.00000  Uiso   1.00
C890   C     0.86635   0.52607   0.69543   0.00000  Uiso   1.00
Cu891  Cu    0.83333   0.50001   0.88022   0.00000  Uiso   1.00
Cu892  Cu    0.83333   0.49999   0.78645   0.00000  Uiso   1.00
H893   H     0.99270   0.49848   0.77921   0.00000  Uiso   1.00
H894   H     0.67397   0.50152   0.88746   0.00000  Uiso   1.00
H895   H     0.83318   0.37059   0.75833   0.00000  Uiso   1.00
H896   H     0.83348   0.62941   0.90834   0.00000  Uiso   1.00
H897   H     0.83277   0.62940   0.75829   0.00000  Uiso   1.00
H898   H     0.83390   0.37060   0.90838   0.00000  Uiso   1.00
N899   N     0.83335   0.50001   0.95069   0.00000  Uiso   1.00
N900   N     0.83332   0.49999   0.71597   0.00000  Uiso   1.00
O901   O     0.83333   0.43989   0.87291   0.00000  Uiso   1.00
O902   O     0.83334   0.56011   0.79375   0.00000  Uiso   1.00
O903   O     0.83333   0.43988   0.79372   0.00000  Uiso   1.00
O904   O     0.83334   0.56012   0.87294   0.00000  Uiso   1.00
O905   O     0.75828   0.50000   0.86379   0.00000  Uiso   1.00
O906   O     0.90839   0.50000   0.80288   0.00000  Uiso   1.00
O907   O     0.75828   0.49999   0.78460   0.00000  Uiso   1.00
O908   O     0.90839   0.50001   0.88207   0.00000  Uiso   1.00
Br909  Br    0.75244   0.43645   0.71276   0.00000  Uiso   1.00
Br910  Br    0.91422   0.56355   0.95391   0.00000  Uiso   1.00
Br911  Br    0.75297   0.43599   0.93395   0.00000  Uiso   1.00
Br912  Br    0.91370   0.56400   0.73272   0.00000  Uiso   1.00
C913   C     0.16667   0.75413   0.83332   0.00000  Uiso   1.00
C914   C     0.16667   0.91253   0.83334   0.00000  Uiso   1.00
C915   C     0.06804   0.83322   0.82132   0.00000  Uiso   1.00
C916   C     0.26529   0.83345   0.84535   0.00000  Uiso   1.00
C917   C     0.01267   0.83290   0.81479   0.00000  Uiso   1.00
C918   C     0.32066   0.83377   0.85188   0.00000  Uiso   1.00
C919   C     0.16654   0.68796   0.79125   0.00000  Uiso   1.00
C920   C     0.16679   0.97871   0.87541   0.00000  Uiso   1.00
C921   C     0.16640   0.97870   0.79124   0.00000  Uiso   1.00
C922   C     0.16693   0.68797   0.87543   0.00000  Uiso   1.00
C923   C     0.16660   0.95721   0.83333   0.00000  Uiso   1.00
C924   C     0.16673   0.70946   0.83334   0.00000  Uiso   1.00
C925   C     0.13358   0.80729   0.68722   0.00000  Uiso   1.00
C926   C     0.19975   0.85937   0.97944   0.00000  Uiso   1.00
C927   C     0.13365   0.80726   0.97123   0.00000  Uiso   1.00
C928   C     0.19969   0.85941   0.69543   0.00000  Uiso   1.00
Cu929  Cu    0.16667   0.83334   0.88022   0.00000  Uiso   1.00
Cu930  Cu    0.16667   0.83333   0.78645   0.00000  Uiso   1.00
H931   H     0.32603   0.83182   0.77921   0.00000  Uiso   1.00
H932   H     0.00730   0.83485   0.88746   0.00000  Uiso   1.00
H933   H     0.16652   0.70392   0.75833   0.00000  Uiso   1.00
H934   H     0.16682   0.96274   0.90834   0.00000  Uiso   1.00
H935   H     0.16610   0.96273   0.75829   0.00000  Uiso   1.00
H936   H     0.16723   0.70394   0.90838   0.00000  Uiso   1.00
N937   N     0.16668   0.83334   0.95069   0.00000  Uiso   1.00
N938   N     0.16665   0.83332   0.71597   0.00000  Uiso   1.00
O939   O     0.16666   0.77322   0.87291   0.00000  Uiso   1.00
O940   O     0.16667   0.89345   0.79375   0.00000  Uiso   1.00
O941   O     0.16666   0.77321   0.79372   0.00000  Uiso   1.00
O942   O     0.16667   0.89346   0.87294   0.00000  Uiso   1.00
O943   O     0.09161   0.83334   0.86379   0.00000  Uiso   1.00
O944   O     0.24172   0.83333   0.80288   0.00000  Uiso   1.00
O945   O     0.09161   0.83333   0.78460   0.00000  Uiso   1.00
O946   O     0.24172   0.83334   0.88207   0.00000  Uiso   1.00
Br947  Br    0.08578   0.76978   0.71276   0.00000  Uiso   1.00
Br948  Br    0.24756   0.89688   0.95391   0.00000  Uiso   1.00
Br949  Br    0.08630   0.76933   0.93395   0.00000  Uiso   1.00
Br950  Br    0.24703   0.89734   0.73272   0.00000  Uiso   1.00
C951   C     0.50000   0.75413   0.83332   0.00000  Uiso   1.00
C952   C     0.50000   0.91253   0.83334   0.00000  Uiso   1.00
C953   C     0.40137   0.83322   0.82132   0.00000  Uiso   1.00
C954   C     0.59863   0.83345   0.84535   0.00000  Uiso   1.00
C955   C     0.34601   0.83290   0.81479   0.00000  Uiso   1.00
C956   C     0.65399   0.83377   0.85188   0.00000  Uiso   1.00
C957   C     0.49988   0.68796   0.79125   0.00000  Uiso   1.00
C958   C     0.50012   0.97871   0.87541   0.00000  Uiso   1.00
C959   C     0.49973   0.97870   0.79124   0.00000  Uiso   1.00
C960   C     0.50027   0.68797   0.87543   0.00000  Uiso   1.00
C961   C     0.49994   0.95721   0.83333   0.00000  Uiso   1.00
C962   C     0.50006   0.70946   0.83334   0.00000  Uiso   1.00
C963   C     0.46692   0.80729   0.68722   0.00000  Uiso   1.00
C964   C     0.53308   0.85937   0.97944   0.00000  Uiso   1.00
C965   C     0.46698   0.80726   0.97123   0.00000  Uiso   1.00
C966   C     0.53302   0.85941   0.69543   0.00000  Uiso   1.00
Cu967  Cu    0.50000   0.83334   0.88022   0.00000  Uiso   1.00
Cu968  Cu    0.50000   0.83333   0.78645   0.00000  Uiso   1.00
H969   H     0.65937   0.83182   0.77921   0.00000  Uiso   1.00
H970   H     0.34063   0.83485   0.88746   0.00000  Uiso   1.00
H971   H     0.49985   0.70392   0.75833   0.00000  Uiso   1.00
H972   H     0.50015   0.96274   0.90834   0.00000  Uiso   1.00
H973   H     0.49943   0.96273   0.75829   0.00000  Uiso   1.00
H974   H     0.50057   0.70394   0.90838   0.00000  Uiso   1.00
N975   N     0.50001   0.83334   0.95069   0.00000  Uiso   1.00
N976   N     0.49999   0.83332   0.71597   0.00000  Uiso   1.00
O977   O     0.50000   0.77322   0.87291   0.00000  Uiso   1.00
O978   O     0.50000   0.89345   0.79375   0.00000  Uiso   1.00
O979   O     0.50000   0.77321   0.79372   0.00000  Uiso   1.00
O980   O     0.50000   0.89346   0.87294   0.00000  Uiso   1.00
O981   O     0.42495   0.83334   0.86379   0.00000  Uiso   1.00
O982   O     0.57505   0.83333   0.80288   0.00000  Uiso   1.00
O983   O     0.42494   0.83333   0.78460   0.00000  Uiso   1.00
O984   O     0.57506   0.83334   0.88207   0.00000  Uiso   1.00
Br985  Br    0.41911   0.76978   0.71276   0.00000  Uiso   1.00
Br986  Br    0.58089   0.89688   0.95391   0.00000  Uiso   1.00
Br987  Br    0.41964   0.76933   0.93395   0.00000  Uiso   1.00
Br988  Br    0.58036   0.89734   0.73272   0.00000  Uiso   1.00
C989   C     0.83333   0.75413   0.83332   0.00000  Uiso   1.00
C990   C     0.83333   0.91253   0.83334   0.00000  Uiso   1.00
C991   C     0.73471   0.83322   0.82132   0.00000  Uiso   1.00
C992   C     0.93196   0.83345   0.84535   0.00000  Uiso   1.00
C993   C     0.67934   0.83290   0.81479   0.00000  Uiso   1.00
C994   C     0.98733   0.83377   0.85188   0.00000  Uiso   1.00
C995   C     0.83321   0.68796   0.79125   0.00000  Uiso   1.00
C996   C     0.83346   0.97871   0.87541   0.00000  Uiso   1.00
C997   C     0.83307   0.97870   0.79124   0.00000  Uiso   1.00
C998   C     0.83360   0.68797   0.87543   0.00000  Uiso   1.00
C999   C     0.83327   0.95721   0.83333   0.00000  Uiso   1.00
C1000  C     0.83340   0.70946   0.83334   0.00000  Uiso   1.00
C1001  C     0.80025   0.80729   0.68722   0.00000  Uiso   1.00
C1002  C     0.86642   0.85937   0.97944   0.00000  Uiso   1.00
C1003  C     0.80031   0.80726   0.97123   0.00000  Uiso   1.00
C1004  C     0.86635   0.85941   0.69543   0.00000  Uiso   1.00
Cu1005 Cu    0.83333   0.83334   0.88022   0.00000  Uiso   1.00
Cu1006 Cu    0.83333   0.83333   0.78645   0.00000  Uiso   1.00
H1007  H     0.99270   0.83182   0.77921   0.00000  Uiso   1.00
H1008  H     0.67397   0.83485   0.88746   0.00000  Uiso   1.00
H1009  H     0.83318   0.70392   0.75833   0.00000  Uiso   1.00
H1010  H     0.83348   0.96274   0.90834   0.00000  Uiso   1.00
H1011  H     0.83277   0.96273   0.75829   0.00000  Uiso   1.00
H1012  H     0.83390   0.70394   0.90838   0.00000  Uiso   1.00
N1013  N     0.83335   0.83334   0.95069   0.00000  Uiso   1.00
N1014  N     0.83332   0.83332   0.71597   0.00000  Uiso   1.00
O1015  O     0.83333   0.77322   0.87291   0.00000  Uiso   1.00
O1016  O     0.83334   0.89345   0.79375   0.00000  Uiso   1.00
O1017  O     0.83333   0.77321   0.79372   0.00000  Uiso   1.00
O1018  O     0.83334   0.89346   0.87294   0.00000  Uiso   1.00
O1019  O     0.75828   0.83334   0.86379   0.00000  Uiso   1.00
O1020  O     0.90839   0.83333   0.80288   0.00000  Uiso   1.00
O1021  O     0.75828   0.83333   0.78460   0.00000  Uiso   1.00
O1022  O     0.90839   0.83334   0.88207   0.00000  Uiso   1.00
Br1023 Br    0.75244   0.76978   0.71276   0.00000  Uiso   1.00
Br1024 Br    0.91422   0.89688   0.95391   0.00000  Uiso   1.00
Br1025 Br    0.75297   0.76933   0.93395   0.00000  Uiso   1.00
Br1026 Br    0.91370   0.89734   0.73272   0.00000  Uiso   1.00
loop_
_geom_bond_atom_site_label_1
_geom_bond_atom_site_label_2
_geom_bond_distance
_geom_bond_site_symmetry_2
_ccdc_geom_bond_type
C1     O29     1.301   .     A
C1     C12     1.451   .     S
C1     O27     1.301   .     A
C2     O30     1.301   .     A
C2     C11     1.451   .     S
C2     O28     1.301   .     A
C3     O31     1.295   .     A
C3     O33     1.298   .     A
C3     C5      1.435   .     S
C4     O32     1.295   .     A
C4     O34     1.298   .     A
C4     C6      1.435   .     S
C5     C82     1.336   1_455 S
C5     H95     1.087   1_455 S
C6     C43     1.336   .     S
C6     H58     1.087   .     S
C7     C12     1.401   .     A
C7     H21     1.083   .     S
C7     C237    1.383   1_545 S
C8     H22     1.083   .     S
C8     C11     1.401   .     A
C8     C124    1.383   .     S
C9     C11     1.401   .     A
C9     H23     1.083   .     S
C9     C121    1.383   .     S
C10    C12     1.401   .     A
C10    H24     1.083   .     S
C10    C236    1.383   1_545 S
C13    Br35    1.927   .     S
C13    N26     1.376   .     A
C13    C699    1.425   1_554 S
C14    N25     1.376   .     A
C14    Br36    1.927   .     S
C14    C358    1.425   .     S
C15    N25     1.376   .     A
C15    Br37    1.927   .     S
C15    C355    1.425   .     S
C16    Br38    1.927   .     S
C16    N26     1.376   .     A
C16    C698    1.425   1_554 S
Cu17   N25     2.035   .     S
Cu17   Cu18    2.708   .     S
Cu17   O30     1.964   .     S
Cu17   O31     1.957   .     S
Cu17   O34     1.958   .     S
Cu17   O27     1.964   .     S
Cu18   N26     2.035   .     S
Cu18   O29     1.964   .     S
Cu18   O33     1.958   .     S
Cu18   O32     1.957   .     S
Cu18   O28     1.964   .     S
H19    C43     1.087   .     S
H20    C82     1.087   1_455 S
C39    O67     1.301   .     A
C39    C50     1.451   .     S
C39    O65     1.301   .     A
C40    O68     1.301   .     A
C40    C49     1.451   .     S
C40    O66     1.301   .     A
C41    O69     1.295   .     A
C41    O71     1.298   .     A
C41    C43     1.435   .     S
C42    O70     1.295   .     A
C42    O72     1.298   .     A
C42    C44     1.435   .     S
C44    C81     1.336   .     S
C44    H96     1.087   .     S
C45    C50     1.401   .     A
C45    H59     1.083   .     S
C45    C275    1.383   1_545 S
C46    H60     1.083   .     S
C46    C49     1.401   .     A
C46    C162    1.383   .     S
C47    C49     1.401   .     A
C47    H61     1.083   .     S
C47    C159    1.383   .     S
C48    C50     1.401   .     A
C48    H62     1.083   .     S
C48    C274    1.383   1_545 S
C51    Br73    1.927   .     S
C51    N64     1.376   .     A
C51    C737    1.425   1_554 S
C52    N63     1.376   .     A
C52    Br74    1.927   .     S
C52    C396    1.425   .     S
C53    N63     1.376   .     A
C53    Br75    1.927   .     S
C53    C393    1.425   .     S
C54    Br76    1.927   .     S
C54    N64     1.376   .     A
C54    C736    1.425   1_554 S
Cu55   N63     2.035   .     S
Cu55   Cu56    2.708   .     S
Cu55   O68     1.964   .     S
Cu55   O69     1.957   .     S
Cu55   O72     1.958   .     S
Cu55   O65     1.964   .     S
Cu56   N64     2.035   .     S
Cu56   O67     1.964   .     S
Cu56   O71     1.958   .     S
Cu56   O70     1.957   .     S
Cu56   O66     1.964   .     S
H57    C81     1.087   .     S
C77    O105    1.301   .     A
C77    C88     1.451   .     S
C77    O103    1.301   .     A
C78    O106    1.301   .     A
C78    C87     1.451   .     S
C78    O104    1.301   .     A
C79    O107    1.295   .     A
C79    O109    1.298   .     A
C79    C81     1.435   .     S
C80    O108    1.295   .     A
C80    O110    1.298   .     A
C80    C82     1.435   .     S
C82    C5      1.336   1_655 S
C82    H20     1.087   1_655 S
C83    C88     1.401   .     A
C83    H97     1.083   .     S
C83    C313    1.383   1_545 S
C84    H98     1.083   .     S
C84    C87     1.401   .     A
C84    C200    1.383   .     S
C85    C87     1.401   .     A
C85    H99     1.083   .     S
C85    C197    1.383   .     S
C86    C88     1.401   .     A
C86    H100    1.083   .     S
C86    C312    1.383   1_545 S
C89    Br111   1.927   .     S
C89    N102    1.376   .     A
C89    C775    1.425   1_554 S
C90    N101    1.376   .     A
C90    Br112   1.927   .     S
C90    C434    1.425   .     S
C91    N101    1.376   .     A
C91    Br113   1.927   .     S
C91    C431    1.425   .     S
C92    Br114   1.927   .     S
C92    N102    1.376   .     A
C92    C774    1.425   1_554 S
Cu93   N101    2.035   .     S
Cu93   Cu94    2.708   .     S
Cu93   O106    1.964   .     S
Cu93   O107    1.957   .     S
Cu93   O110    1.958   .     S
Cu93   O103    1.964   .     S
Cu94   N102    2.035   .     S
Cu94   O105    1.964   .     S
Cu94   O109    1.958   .     S
Cu94   O108    1.957   .     S
Cu94   O104    1.964   .     S
H95    C5      1.087   1_655 S
C115   O143    1.301   .     A
C115   C126    1.451   .     S
C115   O141    1.301   .     A
C116   O144    1.301   .     A
C116   C125    1.451   .     S
C116   O142    1.301   .     A
C117   O145    1.295   .     A
C117   O147    1.298   .     A
C117   C119    1.435   .     S
C118   O146    1.295   .     A
C118   O148    1.298   .     A
C118   C120    1.435   .     S
C119   C196    1.336   1_455 S
C119   H209    1.087   1_455 S
C120   C157    1.336   .     S
C120   H172    1.087   .     S
C121   C126    1.401   .     A
C121   H135    1.083   .     S
C122   H136    1.083   .     S
C122   C125    1.401   .     A
C122   C238    1.383   .     S
C123   C125    1.401   .     A
C123   H137    1.083   .     S
C123   C235    1.383   .     S
C124   C126    1.401   .     A
C124   H138    1.083   .     S
C127   Br149   1.927   .     S
C127   N140    1.376   .     A
C127   C813    1.425   1_554 S
C128   N139    1.376   .     A
C128   Br150   1.927   .     S
C128   C472    1.425   .     S
C129   N139    1.376   .     A
C129   Br151   1.927   .     S
C129   C469    1.425   .     S
C130   Br152   1.927   .     S
C130   N140    1.376   .     A
C130   C812    1.425   1_554 S
Cu131  N139    2.035   .     S
Cu131  Cu132   2.708   .     S
Cu131  O144    1.964   .     S
Cu131  O145    1.957   .     S
Cu131  O148    1.958   .     S
Cu131  O141    1.964   .     S
Cu132  N140    2.035   .     S
Cu132  O143    1.964   .     S
Cu132  O147    1.958   .     S
Cu132  O146    1.957   .     S
Cu132  O142    1.964   .     S
H133   C157    1.087   .     S
H134   C196    1.087   1_455 S
C153   O181    1.301   .     A
C153   C164    1.451   .     S
C153   O179    1.301   .     A
C154   O182    1.301   .     A
C154   C163    1.451   .     S
C154   O180    1.301   .     A
C155   O183    1.295   .     A
C155   O185    1.298   .     A
C155   C157    1.435   .     S
C156   O184    1.295   .     A
C156   O186    1.298   .     A
C156   C158    1.435   .     S
C158   C195    1.336   .     S
C158   H210    1.087   .     S
C159   C164    1.401   .     A
C159   H173    1.083   .     S
C160   H174    1.083   .     S
C160   C163    1.401   .     A
C160   C276    1.383   .     S
C161   C163    1.401   .     A
C161   H175    1.083   .     S
C161   C273    1.383   .     S
C162   C164    1.401   .     A
C162   H176    1.083   .     S
C165   Br187   1.927   .     S
C165   N178    1.376   .     A
C165   C851    1.425   1_554 S
C166   N177    1.376   .     A
C166   Br188   1.927   .     S
C166   C510    1.425   .     S
C167   N177    1.376   .     A
C167   Br189   1.927   .     S
C167   C507    1.425   .     S
C168   Br190   1.927   .     S
C168   N178    1.376   .     A
C168   C850    1.425   1_554 S
Cu169  N177    2.035   .     S
Cu169  Cu170   2.708   .     S
Cu169  O182    1.964   .     S
Cu169  O183    1.957   .     S
Cu169  O186    1.958   .     S
Cu169  O179    1.964   .     S
Cu170  N178    2.035   .     S
Cu170  O181    1.964   .     S
Cu170  O185    1.958   .     S
Cu170  O184    1.957   .     S
Cu170  O180    1.964   .     S
H171   C195    1.087   .     S
C191   O219    1.301   .     A
C191   C202    1.451   .     S
C191   O217    1.301   .     A
C192   O220    1.301   .     A
C192   C201    1.451   .     S
C192   O218    1.301   .     A
C193   O221    1.295   .     A
C193   O223    1.298   .     A
C193   C195    1.435   .     S
C194   O222    1.295   .     A
C194   O224    1.298   .     A
C194   C196    1.435   .     S
C196   C119    1.336   1_655 S
C196   H134    1.087   1_655 S
C197   C202    1.401   .     A
C197   H211    1.083   .     S
C198   H212    1.083   .     S
C198   C201    1.401   .     A
C198   C314    1.383   .     S
C199   C201    1.401   .     A
C199   H213    1.083   .     S
C199   C311    1.383   .     S
C200   C202    1.401   .     A
C200   H214    1.083   .     S
C203   Br225   1.927   .     S
C203   N216    1.376   .     A
C203   C889    1.425   1_554 S
C204   N215    1.376   .     A
C204   Br226   1.927   .     S
C204   C548    1.425   .     S
C205   N215    1.376   .     A
C205   Br227   1.927   .     S
C205   C545    1.425   .     S
C206   Br228   1.927   .     S
C206   N216    1.376   .     A
C206   C888    1.425   1_554 S
Cu207  N215    2.035   .     S
Cu207  Cu208   2.708   .     S
Cu207  O220    1.964   .     S
Cu207  O221    1.957   .     S
Cu207  O224    1.958   .     S
Cu207  O217    1.964   .     S
Cu208  N216    2.035   .     S
Cu208  O219    1.964   .     S
Cu208  O223    1.958   .     S
Cu208  O222    1.957   .     S
Cu208  O218    1.964   .     S
H209   C119    1.087   1_655 S
C229   O257    1.301   .     A
C229   C240    1.451   .     S
C229   O255    1.301   .     A
C230   O258    1.301   .     A
C230   C239    1.451   .     S
C230   O256    1.301   .     A
C231   O259    1.295   .     A
C231   O261    1.298   .     A
C231   C233    1.435   .     S
C232   O260    1.295   .     A
C232   O262    1.298   .     A
C232   C234    1.435   .     S
C233   C310    1.336   1_455 S
C233   H323    1.087   1_455 S
C234   C271    1.336   .     S
C234   H286    1.087   .     S
C235   C240    1.401   .     A
C235   H249    1.083   .     S
C236   H250    1.083   .     S
C236   C239    1.401   .     A
C236   C10     1.383   1_565 S
C237   C239    1.401   .     A
C237   H251    1.083   .     S
C237   C7      1.383   1_565 S
C238   C240    1.401   .     A
C238   H252    1.083   .     S
C241   Br263   1.927   .     S
C241   N254    1.376   .     A
C241   C927    1.425   1_554 S
C242   N253    1.376   .     A
C242   Br264   1.927   .     S
C242   C586    1.425   .     S
C243   N253    1.376   .     A
C243   Br265   1.927   .     S
C243   C583    1.425   .     S
C244   Br266   1.927   .     S
C244   N254    1.376   .     A
C244   C926    1.425   1_554 S
Cu245  N253    2.035   .     S
Cu245  Cu246   2.708   .     S
Cu245  O258    1.964   .     S
Cu245  O259    1.957   .     S
Cu245  O262    1.958   .     S
Cu245  O255    1.964   .     S
Cu246  N254    2.035   .     S
Cu246  O257    1.964   .     S
Cu246  O261    1.958   .     S
Cu246  O260    1.957   .     S
Cu246  O256    1.964   .     S
H247   C271    1.087   .     S
H248   C310    1.087   1_455 S
C267   O295    1.301   .     A
C267   C278    1.451   .     S
C267   O293    1.301   .     A
C268   O296    1.301   .     A
C268   C277    1.451   .     S
C268   O294    1.301   .     A
C269   O297    1.295   .     A
C269   O299    1.298   .     A
C269   C271    1.435   .     S
C270   O298    1.295   .     A
C270   O300    1.298   .     A
C270   C272    1.435   .     S
C272   C309    1.336   .     S
C272   H324    1.087   .     S
C273   C278    1.401   .     A
C273   H287    1.083   .     S
C274   H288    1.083   .     S
C274   C277    1.401   .     A
C274   C48     1.383   1_565 S
C275   C277    1.401   .     A
C275   H289    1.083   .     S
C275   C45     1.383   1_565 S
C276   C278    1.401   .     A
C276   H290    1.083   .     S
C279   Br301   1.927   .     S
C279   N292    1.376   .     A
C279   C965    1.425   1_554 S
C280   N291    1.376   .     A
C280   Br302   1.927   .     S
C280   C624    1.425   .     S
C281   N291    1.376   .     A
C281   Br303   1.927   .     S
C281   C621    1.425   .     S
C282   Br304   1.927   .     S
C282   N292    1.376   .     A
C282   C964    1.425   1_554 S
Cu283  N291    2.035   .     S
Cu283  Cu284   2.708   .     S
Cu283  O296    1.964   .     S
Cu283  O297    1.957   .     S
Cu283  O300    1.958   .     S
Cu283  O293    1.964   .     S
Cu284  N292    2.035   .     S
Cu284  O295    1.964   .     S
Cu284  O299    1.958   .     S
Cu284  O298    1.957   .     S
Cu284  O294    1.964   .     S
H285   C309    1.087   .     S
C305   O333    1.301   .     A
C305   C316    1.451   .     S
C305   O331    1.301   .     A
C306   O334    1.301   .     A
C306   C315    1.451   .     S
C306   O332    1.301   .     A
C307   O335    1.295   .     A
C307   O337    1.298   .     A
C307   C309    1.435   .     S
C308   O336    1.295   .     A
C308   O338    1.298   .     A
C308   C310    1.435   .     S
C310   C233    1.336   1_655 S
C310   H248    1.087   1_655 S
C311   C316    1.401   .     A
C311   H325    1.083   .     S
C312   H326    1.083   .     S
C312   C315    1.401   .     A
C312   C86     1.383   1_565 S
C313   C315    1.401   .     A
C313   H327    1.083   .     S
C313   C83     1.383   1_565 S
C314   C316    1.401   .     A
C314   H328    1.083   .     S
C317   Br339   1.927   .     S
C317   N330    1.376   .     A
C317   C1003   1.425   1_554 S
C318   N329    1.376   .     A
C318   Br340   1.927   .     S
C318   C662    1.425   .     S
C319   N329    1.376   .     A
C319   Br341   1.927   .     S
C319   C659    1.425   .     S
C320   Br342   1.927   .     S
C320   N330    1.376   .     A
C320   C1002   1.425   1_554 S
Cu321  N329    2.035   .     S
Cu321  Cu322   2.708   .     S
Cu321  O334    1.964   .     S
Cu321  O335    1.957   .     S
Cu321  O338    1.958   .     S
Cu321  O331    1.964   .     S
Cu322  N330    2.035   .     S
Cu322  O333    1.964   .     S
Cu322  O337    1.958   .     S
Cu322  O336    1.957   .     S
Cu322  O332    1.964   .     S
H323   C233    1.087   1_655 S
C343   O371    1.301   .     A
C343   C354    1.451   .     S
C343   O369    1.301   .     A
C344   O372    1.301   .     A
C344   C353    1.451   .     S
C344   O370    1.301   .     A
C345   O373    1.295   .     A
C345   O375    1.298   .     A
C345   C347    1.435   .     S
C346   O374    1.295   .     A
C346   O376    1.298   .     A
C346   C348    1.435   .     S
C347   C424    1.336   1_455 S
C347   H437    1.087   1_455 S
C348   C385    1.336   .     S
C348   H400    1.087   .     S
C349   C354    1.401   .     A
C349   H363    1.083   .     S
C349   C579    1.383   1_545 S
C350   H364    1.083   .     S
C350   C353    1.401   .     A
C350   C466    1.383   .     S
C351   C353    1.401   .     A
C351   H365    1.083   .     S
C351   C463    1.383   .     S
C352   C354    1.401   .     A
C352   H366    1.083   .     S
C352   C578    1.383   1_545 S
C355   Br377   1.927   .     S
C355   N368    1.376   .     A
C356   N367    1.376   .     A
C356   Br378   1.927   .     S
C356   C700    1.425   .     S
C357   N367    1.376   .     A
C357   Br379   1.927   .     S
C357   C697    1.425   .     S
C358   Br380   1.927   .     S
C358   N368    1.376   .     A
Cu359  N367    2.035   .     S
Cu359  Cu360   2.708   .     S
Cu359  O372    1.964   .     S
Cu359  O373    1.957   .     S
Cu359  O376    1.958   .     S
Cu359  O369    1.964   .     S
Cu360  N368    2.035   .     S
Cu360  O371    1.964   .     S
Cu360  O375    1.958   .     S
Cu360  O374    1.957   .     S
Cu360  O370    1.964   .     S
H361   C385    1.087   .     S
H362   C424    1.087   1_455 S
C381   O409    1.301   .     A
C381   C392    1.451   .     S
C381   O407    1.301   .     A
C382   O410    1.301   .     A
C382   C391    1.451   .     S
C382   O408    1.301   .     A
C383   O411    1.295   .     A
C383   O413    1.298   .     A
C383   C385    1.435   .     S
C384   O412    1.295   .     A
C384   O414    1.298   .     A
C384   C386    1.435   .     S
C386   C423    1.336   .     S
C386   H438    1.087   .     S
C387   C392    1.401   .     A
C387   H401    1.083   .     S
C387   C617    1.383   1_545 S
C388   H402    1.083   .     S
C388   C391    1.401   .     A
C388   C504    1.383   .     S
C389   C391    1.401   .     A
C389   H403    1.083   .     S
C389   C501    1.383   .     S
C390   C392    1.401   .     A
C390   H404    1.083   .     S
C390   C616    1.383   1_545 S
C393   Br415   1.927   .     S
C393   N406    1.376   .     A
C394   N405    1.376   .     A
C394   Br416   1.927   .     S
C394   C738    1.425   .     S
C395   N405    1.376   .     A
C395   Br417   1.927   .     S
C395   C735    1.425   .     S
C396   Br418   1.927   .     S
C396   N406    1.376   .     A
Cu397  N405    2.035   .     S
Cu397  Cu398   2.708   .     S
Cu397  O410    1.964   .     S
Cu397  O411    1.957   .     S
Cu397  O414    1.958   .     S
Cu397  O407    1.964   .     S
Cu398  N406    2.035   .     S
Cu398  O409    1.964   .     S
Cu398  O413    1.958   .     S
Cu398  O412    1.957   .     S
Cu398  O408    1.964   .     S
H399   C423    1.087   .     S
C419   O447    1.301   .     A
C419   C430    1.451   .     S
C419   O445    1.301   .     A
C420   O448    1.301   .     A
C420   C429    1.451   .     S
C420   O446    1.301   .     A
C421   O449    1.295   .     A
C421   O451    1.298   .     A
C421   C423    1.435   .     S
C422   O450    1.295   .     A
C422   O452    1.298   .     A
C422   C424    1.435   .     S
C424   C347    1.336   1_655 S
C424   H362    1.087   1_655 S
C425   C430    1.401   .     A
C425   H439    1.083   .     S
C425   C655    1.383   1_545 S
C426   H440    1.083   .     S
C426   C429    1.401   .     A
C426   C542    1.383   .     S
C427   C429    1.401   .     A
C427   H441    1.083   .     S
C427   C539    1.383   .     S
C428   C430    1.401   .     A
C428   H442    1.083   .     S
C428   C654    1.383   1_545 S
C431   Br453   1.927   .     S
C431   N444    1.376   .     A
C432   N443    1.376   .     A
C432   Br454   1.927   .     S
C432   C776    1.425   .     S
C433   N443    1.376   .     A
C433   Br455   1.927   .     S
C433   C773    1.425   .     S
C434   Br456   1.927   .     S
C434   N444    1.376   .     A
Cu435  N443    2.035   .     S
Cu435  Cu436   2.708   .     S
Cu435  O448    1.964   .     S
Cu435  O449    1.957   .     S
Cu435  O452    1.958   .     S
Cu435  O445    1.964   .     S
Cu436  N444    2.035   .     S
Cu436  O447    1.964   .     S
Cu436  O451    1.958   .     S
Cu436  O450    1.957   .     S
Cu436  O446    1.964   .     S
H437   C347    1.087   1_655 S
C457   O485    1.301   .     A
C457   C468    1.451   .     S
C457   O483    1.301   .     A
C458   O486    1.301   .     A
C458   C467    1.451   .     S
C458   O484    1.301   .     A
C459   O487    1.295   .     A
C459   O489    1.298   .     A
C459   C461    1.435   .     S
C460   O488    1.295   .     A
C460   O490    1.298   .     A
C460   C462    1.435   .     S
C461   C538    1.336   1_455 S
C461   H551    1.087   1_455 S
C462   C499    1.336   .     S
C462   H514    1.087   .     S
C463   C468    1.401   .     A
C463   H477    1.083   .     S
C464   H478    1.083   .     S
C464   C467    1.401   .     A
C464   C580    1.383   .     S
C465   C467    1.401   .     A
C465   H479    1.083   .     S
C465   C577    1.383   .     S
C466   C468    1.401   .     A
C466   H480    1.083   .     S
C469   Br491   1.927   .     S
C469   N482    1.376   .     A
C470   N481    1.376   .     A
C470   Br492   1.927   .     S
C470   C814    1.425   .     S
C471   N481    1.376   .     A
C471   Br493   1.927   .     S
C471   C811    1.425   .     S
C472   Br494   1.927   .     S
C472   N482    1.376   .     A
Cu473  N481    2.035   .     S
Cu473  Cu474   2.708   .     S
Cu473  O486    1.964   .     S
Cu473  O487    1.957   .     S
Cu473  O490    1.958   .     S
Cu473  O483    1.964   .     S
Cu474  N482    2.035   .     S
Cu474  O485    1.964   .     S
Cu474  O489    1.958   .     S
Cu474  O488    1.957   .     S
Cu474  O484    1.964   .     S
H475   C499    1.087   .     S
H476   C538    1.087   1_455 S
C495   O523    1.301   .     A
C495   C506    1.451   .     S
C495   O521    1.301   .     A
C496   O524    1.301   .     A
C496   C505    1.451   .     S
C496   O522    1.301   .     A
C497   O525    1.295   .     A
C497   O527    1.298   .     A
C497   C499    1.435   .     S
C498   O526    1.295   .     A
C498   O528    1.298   .     A
C498   C500    1.435   .     S
C500   C537    1.336   .     S
C500   H552    1.087   .     S
C501   C506    1.401   .     A
C501   H515    1.083   .     S
C502   H516    1.083   .     S
C502   C505    1.401   .     A
C502   C618    1.383   .     S
C503   C505    1.401   .     A
C503   H517    1.083   .     S
C503   C615    1.383   .     S
C504   C506    1.401   .     A
C504   H518    1.083   .     S
C507   Br529   1.927   .     S
C507   N520    1.376   .     A
C508   N519    1.376   .     A
C508   Br530   1.927   .     S
C508   C852    1.425   .     S
C509   N519    1.376   .     A
C509   Br531   1.927   .     S
C509   C849    1.425   .     S
C510   Br532   1.927   .     S
C510   N520    1.376   .     A
Cu511  N519    2.035   .     S
Cu511  Cu512   2.708   .     S
Cu511  O524    1.964   .     S
Cu511  O525    1.957   .     S
Cu511  O528    1.958   .     S
Cu511  O521    1.964   .     S
Cu512  N520    2.035   .     S
Cu512  O523    1.964   .     S
Cu512  O527    1.958   .     S
Cu512  O526    1.957   .     S
Cu512  O522    1.964   .     S
H513   C537    1.087   .     S
C533   O561    1.301   .     A
C533   C544    1.451   .     S
C533   O559    1.301   .     A
C534   O562    1.301   .     A
C534   C543    1.451   .     S
C534   O560    1.301   .     A
C535   O563    1.295   .     A
C535   O565    1.298   .     A
C535   C537    1.435   .     S
C536   O564    1.295   .     A
C536   O566    1.298   .     A
C536   C538    1.435   .     S
C538   C461    1.336   1_655 S
C538   H476    1.087   1_655 S
C539   C544    1.401   .     A
C539   H553    1.083   .     S
C540   H554    1.083   .     S
C540   C543    1.401   .     A
C540   C656    1.383   .     S
C541   C543    1.401   .     A
C541   H555    1.083   .     S
C541   C653    1.383   .     S
C542   C544    1.401   .     A
C542   H556    1.083   .     S
C545   Br567   1.927   .     S
C545   N558    1.376   .     A
C546   N557    1.376   .     A
C546   Br568   1.927   .     S
C546   C890    1.425   .     S
C547   N557    1.376   .     A
C547   Br569   1.927   .     S
C547   C887    1.425   .     S
C548   Br570   1.927   .     S
C548   N558    1.376   .     A
Cu549  N557    2.035   .     S
Cu549  Cu550   2.708   .     S
Cu549  O562    1.964   .     S
Cu549  O563    1.957   .     S
Cu549  O566    1.958   .     S
Cu549  O559    1.964   .     S
Cu550  N558    2.035   .     S
Cu550  O561    1.964   .     S
Cu550  O565    1.958   .     S
Cu550  O564    1.957   .     S
Cu550  O560    1.964   .     S
H551   C461    1.087   1_655 S
C571   O599    1.301   .     A
C571   C582    1.451   .     S
C571   O597    1.301   .     A
C572   O600    1.301   .     A
C572   C581    1.451   .     S
C572   O598    1.301   .     A
C573   O601    1.295   .     A
C573   O603    1.298   .     A
C573   C575    1.435   .     S
C574   O602    1.295   .     A
C574   O604    1.298   .     A
C574   C576    1.435   .     S
C575   C652    1.336   1_455 S
C575   H665    1.087   1_455 S
C576   C613    1.336   .     S
C576   H628    1.087   .     S
C577   C582    1.401   .     A
C577   H591    1.083   .     S
C578   H592    1.083   .     S
C578   C581    1.401   .     A
C578   C352    1.383   1_565 S
C579   C581    1.401   .     A
C579   H593    1.083   .     S
C579   C349    1.383   1_565 S
C580   C582    1.401   .     A
C580   H594    1.083   .     S
C583   Br605   1.927   .     S
C583   N596    1.376   .     A
C584   N595    1.376   .     A
C584   Br606   1.927   .     S
C584   C928    1.425   .     S
C585   N595    1.376   .     A
C585   Br607   1.927   .     S
C585   C925    1.425   .     S
C586   Br608   1.927   .     S
C586   N596    1.376   .     A
Cu587  N595    2.035   .     S
Cu587  Cu588   2.708   .     S
Cu587  O600    1.964   .     S
Cu587  O601    1.957   .     S
Cu587  O604    1.958   .     S
Cu587  O597    1.964   .     S
Cu588  N596    2.035   .     S
Cu588  O599    1.964   .     S
Cu588  O603    1.958   .     S
Cu588  O602    1.957   .     S
Cu588  O598    1.964   .     S
H589   C613    1.087   .     S
H590   C652    1.087   1_455 S
C609   O637    1.301   .     A
C609   C620    1.451   .     S
C609   O635    1.301   .     A
C610   O638    1.301   .     A
C610   C619    1.451   .     S
C610   O636    1.301   .     A
C611   O639    1.295   .     A
C611   O641    1.298   .     A
C611   C613    1.435   .     S
C612   O640    1.295   .     A
C612   O642    1.298   .     A
C612   C614    1.435   .     S
C614   C651    1.336   .     S
C614   H666    1.087   .     S
C615   C620    1.401   .     A
C615   H629    1.083   .     S
C616   H630    1.083   .     S
C616   C619    1.401   .     A
C616   C390    1.383   1_565 S
C617   C619    1.401   .     A
C617   H631    1.083   .     S
C617   C387    1.383   1_565 S
C618   C620    1.401   .     A
C618   H632    1.083   .     S
C621   Br643   1.927   .     S
C621   N634    1.376   .     A
C622   N633    1.376   .     A
C622   Br644   1.927   .     S
C622   C966    1.425   .     S
C623   N633    1.376   .     A
C623   Br645   1.927   .     S
C623   C963    1.425   .     S
C624   Br646   1.927   .     S
C624   N634    1.376   .     A
Cu625  N633    2.035   .     S
Cu625  Cu626   2.708   .     S
Cu625  O638    1.964   .     S
Cu625  O639    1.957   .     S
Cu625  O642    1.958   .     S
Cu625  O635    1.964   .     S
Cu626  N634    2.035   .     S
Cu626  O637    1.964   .     S
Cu626  O641    1.958   .     S
Cu626  O640    1.957   .     S
Cu626  O636    1.964   .     S
H627   C651    1.087   .     S
C647   O675    1.301   .     A
C647   C658    1.451   .     S
C647   O673    1.301   .     A
C648   O676    1.301   .     A
C648   C657    1.451   .     S
C648   O674    1.301   .     A
C649   O677    1.295   .     A
C649   O679    1.298   .     A
C649   C651    1.435   .     S
C650   O678    1.295   .     A
C650   O680    1.298   .     A
C650   C652    1.435   .     S
C652   C575    1.336   1_655 S
C652   H590    1.087   1_655 S
C653   C658    1.401   .     A
C653   H667    1.083   .     S
C654   H668    1.083   .     S
C654   C657    1.401   .     A
C654   C428    1.383   1_565 S
C655   C657    1.401   .     A
C655   H669    1.083   .     S
C655   C425    1.383   1_565 S
C656   C658    1.401   .     A
C656   H670    1.083   .     S
C659   Br681   1.927   .     S
C659   N672    1.376   .     A
C660   N671    1.376   .     A
C660   Br682   1.927   .     S
C660   C1004   1.425   .     S
C661   N671    1.376   .     A
C661   Br683   1.927   .     S
C661   C1001   1.425   .     S
C662   Br684   1.927   .     S
C662   N672    1.376   .     A
Cu663  N671    2.035   .     S
Cu663  Cu664   2.708   .     S
Cu663  O676    1.964   .     S
Cu663  O677    1.957   .     S
Cu663  O680    1.958   .     S
Cu663  O673    1.964   .     S
Cu664  N672    2.035   .     S
Cu664  O675    1.964   .     S
Cu664  O679    1.958   .     S
Cu664  O678    1.957   .     S
Cu664  O674    1.964   .     S
H665   C575    1.087   1_655 S
C685   O713    1.301   .     A
C685   C696    1.451   .     S
C685   O711    1.301   .     A
C686   O714    1.301   .     A
C686   C695    1.451   .     S
C686   O712    1.301   .     A
C687   O715    1.295   .     A
C687   O717    1.298   .     A
C687   C689    1.435   .     S
C688   O716    1.295   .     A
C688   O718    1.298   .     A
C688   C690    1.435   .     S
C689   C766    1.336   1_455 S
C689   H779    1.087   1_455 S
C690   C727    1.336   .     S
C690   H742    1.087   .     S
C691   C696    1.401   .     A
C691   H705    1.083   .     S
C691   C921    1.383   1_545 S
C692   H706    1.083   .     S
C692   C695    1.401   .     A
C692   C808    1.383   .     S
C693   C695    1.401   .     A
C693   H707    1.083   .     S
C693   C805    1.383   .     S
C694   C696    1.401   .     A
C694   H708    1.083   .     S
C694   C920    1.383   1_545 S
C697   Br719   1.927   .     S
C697   N710    1.376   .     A
C698   N709    1.376   .     A
C698   Br720   1.927   .     S
C698   C16     1.425   1_556 S
C699   N709    1.376   .     A
C699   Br721   1.927   .     S
C699   C13     1.425   1_556 S
C700   Br722   1.927   .     S
C700   N710    1.376   .     A
Cu701  N709    2.035   .     S
Cu701  Cu702   2.708   .     S
Cu701  O714    1.964   .     S
Cu701  O715    1.957   .     S
Cu701  O718    1.958   .     S
Cu701  O711    1.964   .     S
Cu702  N710    2.035   .     S
Cu702  O713    1.964   .     S
Cu702  O717    1.958   .     S
Cu702  O716    1.957   .     S
Cu702  O712    1.964   .     S
H703   C727    1.087   .     S
H704   C766    1.087   1_455 S
C723   O751    1.301   .     A
C723   C734    1.451   .     S
C723   O749    1.301   .     A
C724   O752    1.301   .     A
C724   C733    1.451   .     S
C724   O750    1.301   .     A
C725   O753    1.295   .     A
C725   O755    1.298   .     A
C725   C727    1.435   .     S
C726   O754    1.295   .     A
C726   O756    1.298   .     A
C726   C728    1.435   .     S
C728   C765    1.336   .     S
C728   H780    1.087   .     S
C729   C734    1.401   .     A
C729   H743    1.083   .     S
C729   C959    1.383   1_545 S
C730   H744    1.083   .     S
C730   C733    1.401   .     A
C730   C846    1.383   .     S
C731   C733    1.401   .     A
C731   H745    1.083   .     S
C731   C843    1.383   .     S
C732   C734    1.401   .     A
C732   H746    1.083   .     S
C732   C958    1.383   1_545 S
C735   Br757   1.927   .     S
C735   N748    1.376   .     A
C736   N747    1.376   .     A
C736   Br758   1.927   .     S
C736   C54     1.425   1_556 S
C737   N747    1.376   .     A
C737   Br759   1.927   .     S
C737   C51     1.425   1_556 S
C738   Br760   1.927   .     S
C738   N748    1.376   .     A
Cu739  N747    2.035   .     S
Cu739  Cu740   2.708   .     S
Cu739  O752    1.964   .     S
Cu739  O753    1.957   .     S
Cu739  O756    1.958   .     S
Cu739  O749    1.964   .     S
Cu740  N748    2.035   .     S
Cu740  O751    1.964   .     S
Cu740  O755    1.958   .     S
Cu740  O754    1.957   .     S
Cu740  O750    1.964   .     S
H741   C765    1.087   .     S
C761   O789    1.301   .     A
C761   C772    1.451   .     S
C761   O787    1.301   .     A
C762   O790    1.301   .     A
C762   C771    1.451   .     S
C762   O788    1.301   .     A
C763   O791    1.295   .     A
C763   O793    1.298   .     A
C763   C765    1.435   .     S
C764   O792    1.295   .     A
C764   O794    1.298   .     A
C764   C766    1.435   .     S
C766   C689    1.336   1_655 S
C766   H704    1.087   1_655 S
C767   C772    1.401   .     A
C767   H781    1.083   .     S
C767   C997    1.383   1_545 S
C768   H782    1.083   .     S
C768   C771    1.401   .     A
C768   C884    1.383   .     S
C769   C771    1.401   .     A
C769   H783    1.083   .     S
C769   C881    1.383   .     S
C770   C772    1.401   .     A
C770   H784    1.083   .     S
C770   C996    1.383   1_545 S
C773   Br795   1.927   .     S
C773   N786    1.376   .     A
C774   N785    1.376   .     A
C774   Br796   1.927   .     S
C774   C92     1.425   1_556 S
C775   N785    1.376   .     A
C775   Br797   1.927   .     S
C775   C89     1.425   1_556 S
C776   Br798   1.927   .     S
C776   N786    1.376   .     A
Cu777  N785    2.035   .     S
Cu777  Cu778   2.708   .     S
Cu777  O790    1.964   .     S
Cu777  O791    1.957   .     S
Cu777  O794    1.958   .     S
Cu777  O787    1.964   .     S
Cu778  N786    2.035   .     S
Cu778  O789    1.964   .     S
Cu778  O793    1.958   .     S
Cu778  O792    1.957   .     S
Cu778  O788    1.964   .     S
H779   C689    1.087   1_655 S
C799   O827    1.301   .     A
C799   C810    1.451   .     S
C799   O825    1.301   .     A
C800   O828    1.301   .     A
C800   C809    1.451   .     S
C800   O826    1.301   .     A
C801   O829    1.295   .     A
C801   O831    1.298   .     A
C801   C803    1.435   .     S
C802   O830    1.295   .     A
C802   O832    1.298   .     A
C802   C804    1.435   .     S
C803   C880    1.336   1_455 S
C803   H893    1.087   1_455 S
C804   C841    1.336   .     S
C804   H856    1.087   .     S
C805   C810    1.401   .     A
C805   H819    1.083   .     S
C806   H820    1.083   .     S
C806   C809    1.401   .     A
C806   C922    1.383   .     S
C807   C809    1.401   .     A
C807   H821    1.083   .     S
C807   C919    1.383   .     S
C808   C810    1.401   .     A
C808   H822    1.083   .     S
C811   Br833   1.927   .     S
C811   N824    1.376   .     A
C812   N823    1.376   .     A
C812   Br834   1.927   .     S
C812   C130    1.425   1_556 S
C813   N823    1.376   .     A
C813   Br835   1.927   .     S
C813   C127    1.425   1_556 S
C814   Br836   1.927   .     S
C814   N824    1.376   .     A
Cu815  N823    2.035   .     S
Cu815  Cu816   2.708   .     S
Cu815  O828    1.964   .     S
Cu815  O829    1.957   .     S
Cu815  O832    1.958   .     S
Cu815  O825    1.964   .     S
Cu816  N824    2.035   .     S
Cu816  O827    1.964   .     S
Cu816  O831    1.958   .     S
Cu816  O830    1.957   .     S
Cu816  O826    1.964   .     S
H817   C841    1.087   .     S
H818   C880    1.087   1_455 S
C837   O865    1.301   .     A
C837   C848    1.451   .     S
C837   O863    1.301   .     A
C838   O866    1.301   .     A
C838   C847    1.451   .     S
C838   O864    1.301   .     A
C839   O867    1.295   .     A
C839   O869    1.298   .     A
C839   C841    1.435   .     S
C840   O868    1.295   .     A
C840   O870    1.298   .     A
C840   C842    1.435   .     S
C842   C879    1.336   .     S
C842   H894    1.087   .     S
C843   C848    1.401   .     A
C843   H857    1.083   .     S
C844   H858    1.083   .     S
C844   C847    1.401   .     A
C844   C960    1.383   .     S
C845   C847    1.401   .     A
C845   H859    1.083   .     S
C845   C957    1.383   .     S
C846   C848    1.401   .     A
C846   H860    1.083   .     S
C849   Br871   1.927   .     S
C849   N862    1.376   .     A
C850   N861    1.376   .     A
C850   Br872   1.927   .     S
C850   C168    1.425   1_556 S
C851   N861    1.376   .     A
C851   Br873   1.927   .     S
C851   C165    1.425   1_556 S
C852   Br874   1.927   .     S
C852   N862    1.376   .     A
Cu853  N861    2.035   .     S
Cu853  Cu854   2.708   .     S
Cu853  O866    1.964   .     S
Cu853  O867    1.957   .     S
Cu853  O870    1.958   .     S
Cu853  O863    1.964   .     S
Cu854  N862    2.035   .     S
Cu854  O865    1.964   .     S
Cu854  O869    1.958   .     S
Cu854  O868    1.957   .     S
Cu854  O864    1.964   .     S
H855   C879    1.087   .     S
C875   O903    1.301   .     A
C875   C886    1.451   .     S
C875   O901    1.301   .     A
C876   O904    1.301   .     A
C876   C885    1.451   .     S
C876   O902    1.301   .     A
C877   O905    1.295   .     A
C877   O907    1.298   .     A
C877   C879    1.435   .     S
C878   O906    1.295   .     A
C878   O908    1.298   .     A
C878   C880    1.435   .     S
C880   C803    1.336   1_655 S
C880   H818    1.087   1_655 S
C881   C886    1.401   .     A
C881   H895    1.083   .     S
C882   H896    1.083   .     S
C882   C885    1.401   .     A
C882   C998    1.383   .     S
C883   C885    1.401   .     A
C883   H897    1.083   .     S
C883   C995    1.383   .     S
C884   C886    1.401   .     A
C884   H898    1.083   .     S
C887   Br909   1.927   .     S
C887   N900    1.376   .     A
C888   N899    1.376   .     A
C888   Br910   1.927   .     S
C888   C206    1.425   1_556 S
C889   N899    1.376   .     A
C889   Br911   1.927   .     S
C889   C203    1.425   1_556 S
C890   Br912   1.927   .     S
C890   N900    1.376   .     A
Cu891  N899    2.035   .     S
Cu891  Cu892   2.708   .     S
Cu891  O904    1.964   .     S
Cu891  O905    1.957   .     S
Cu891  O908    1.958   .     S
Cu891  O901    1.964   .     S
Cu892  N900    2.035   .     S
Cu892  O903    1.964   .     S
Cu892  O907    1.958   .     S
Cu892  O906    1.957   .     S
Cu892  O902    1.964   .     S
H893   C803    1.087   1_655 S
C913   O941    1.301   .     A
C913   C924    1.451   .     S
C913   O939    1.301   .     A
C914   O942    1.301   .     A
C914   C923    1.451   .     S
C914   O940    1.301   .     A
C915   O943    1.295   .     A
C915   O945    1.298   .     A
C915   C917    1.435   .     S
C916   O944    1.295   .     A
C916   O946    1.298   .     A
C916   C918    1.435   .     S
C917   C994    1.336   1_455 S
C917   H1007   1.087   1_455 S
C918   C955    1.336   .     S
C918   H970    1.087   .     S
C919   C924    1.401   .     A
C919   H933    1.083   .     S
C920   H934    1.083   .     S
C920   C923    1.401   .     A
C920   C694    1.383   1_565 S
C921   C923    1.401   .     A
C921   H935    1.083   .     S
C921   C691    1.383   1_565 S
C922   C924    1.401   .     A
C922   H936    1.083   .     S
C925   Br947   1.927   .     S
C925   N938    1.376   .     A
C926   N937    1.376   .     A
C926   Br948   1.927   .     S
C926   C244    1.425   1_556 S
C927   N937    1.376   .     A
C927   Br949   1.927   .     S
C927   C241    1.425   1_556 S
C928   Br950   1.927   .     S
C928   N938    1.376   .     A
Cu929  N937    2.035   .     S
Cu929  Cu930   2.708   .     S
Cu929  O942    1.964   .     S
Cu929  O943    1.957   .     S
Cu929  O946    1.958   .     S
Cu929  O939    1.964   .     S
Cu930  N938    2.035   .     S
Cu930  O941    1.964   .     S
Cu930  O945    1.958   .     S
Cu930  O944    1.957   .     S
Cu930  O940    1.964   .     S
H931   C955    1.087   .     S
H932   C994    1.087   1_455 S
C951   O979    1.301   .     A
C951   C962    1.451   .     S
C951   O977    1.301   .     A
C952   O980    1.301   .     A
C952   C961    1.451   .     S
C952   O978    1.301   .     A
C953   O981    1.295   .     A
C953   O983    1.298   .     A
C953   C955    1.435   .     S
C954   O982    1.295   .     A
C954   O984    1.298   .     A
C954   C956    1.435   .     S
C956   C993    1.336   .     S
C956   H1008   1.087   .     S
C957   C962    1.401   .     A
C957   H971    1.083   .     S
C958   H972    1.083   .     S
C958   C961    1.401   .     A
C958   C732    1.383   1_565 S
C959   C961    1.401   .     A
C959   H973    1.083   .     S
C959   C729    1.383   1_565 S
C960   C962    1.401   .     A
C960   H974    1.083   .     S
C963   Br985   1.927   .     S
C963   N976    1.376   .     A
C964   N975    1.376   .     A
C964   Br986   1.927   .     S
C964   C282    1.425   1_556 S
C965   N975    1.376   .     A
C965   Br987   1.927   .     S
C965   C279    1.425   1_556 S
C966   Br988   1.927   .     S
C966   N976    1.376   .     A
Cu967  N975    2.035   .     S
Cu967  Cu968   2.708   .     S
Cu967  O980    1.964   .     S
Cu967  O981    1.957   .     S
Cu967  O984    1.958   .     S
Cu967  O977    1.964   .     S
Cu968  N976    2.035   .     S
Cu968  O979    1.964   .     S
Cu968  O983    1.958   .     S
Cu968  O982    1.957   .     S
Cu968  O978    1.964   .     S
H969   C993    1.087   .     S
C989   O1017   1.301   .     A
C989   C1000   1.451   .     S
C989   O1015   1.301   .     A
C990   O1018   1.301   .     A
C990   C999    1.451   .     S
C990   O1016   1.301   .     A
C991   O1019   1.295   .     A
C991   O1021   1.298   .     A
C991   C993    1.435   .     S
C992   O1020   1.295   .     A
C992   O1022   1.298   .     A
C992   C994    1.435   .     S
C994   C917    1.336   1_655 S
C994   H932    1.087   1_655 S
C995   C1000   1.401   .     A
C995   H1009   1.083   .     S
C996   H1010   1.083   .     S
C996   C999    1.401   .     A
C996   C770    1.383   1_565 S
C997   C999    1.401   .     A
C997   H1011   1.083   .     S
C997   C767    1.383   1_565 S
C998   C1000   1.401   .     A
C998   H1012   1.083   .     S
C1001  Br1023  1.927   .     S
C1001  N1014   1.376   .     A
C1002  N1013   1.376   .     A
C1002  Br1024  1.927   .     S
C1002  C320    1.425   1_556 S
C1003  N1013   1.376   .     A
C1003  Br1025  1.927   .     S
C1003  C317    1.425   1_556 S
C1004  Br1026  1.927   .     S
C1004  N1014   1.376   .     A
Cu1005 N1013   2.035   .     S
Cu1005 Cu1006  2.708   .     S
Cu1005 O1018   1.964   .     S
Cu1005 O1019   1.957   .     S
Cu1005 O1022   1.958   .     S
Cu1005 O1015   1.964   .     S
Cu1006 N1014   2.035   .     S
Cu1006 O1017   1.964   .     S
Cu1006 O1021   1.958   .     S
Cu1006 O1020   1.957   .     S
Cu1006 O1016   1.964   .     S
H1007  C917    1.087   1_655 S
