data_str_m2_o1_o17_pcu_sym.60
_audit_creation_date              2020-01-03
_audit_creation_method            'Materials Studio'
_symmetry_space_group_name_H-M    'P1'
_symmetry_Int_Tables_number       1
_symmetry_cell_setting            triclinic
loop_
_symmetry_equiv_pos_as_xyz
  x,y,z
_cell_length_a                    32.6038
_cell_length_b                    28.7331
_cell_length_c                    30.1759
_cell_angle_alpha                 89.6452
_cell_angle_beta                  91.3717
_cell_angle_gamma                 92.0364
loop_
_atom_site_label
_atom_site_type_symbol
_atom_site_fract_x
_atom_site_fract_y
_atom_site_fract_z
_atom_site_U_iso_or_equiv
_atom_site_adp_type
_atom_site_occupancy
O1     O     0.10655   0.20625   0.24999   0.00000  Uiso   1.00
O2     O     0.22679   0.12709   0.25000   0.00000  Uiso   1.00
O3     O     0.22679   0.20625   0.25000   0.00000  Uiso   1.00
O4     O     0.10655   0.12709   0.24999   0.00000  Uiso   1.00
C5     C     0.08785   0.16588   0.25528   0.00000  Uiso   1.00
C6     C     0.24619   0.16759   0.24914   0.00000  Uiso   1.00
O7     O     0.16666   0.20627   0.18513   0.00000  Uiso   1.00
O8     O     0.16668   0.12707   0.31487   0.00000  Uiso   1.00
O9     O     0.16668   0.20627   0.31487   0.00000  Uiso   1.00
O10    O     0.16666   0.12707   0.18513   0.00000  Uiso   1.00
C11    C     0.16863   0.16695   0.16481   0.00000  Uiso   1.00
C12    C     0.16621   0.16639   0.33534   0.00000  Uiso   1.00
Cu13   Cu    0.16667   0.21355   0.25000   0.00000  Uiso   1.00
Cu14   Cu    0.16667   0.11978   0.25000   0.00000  Uiso   1.00
C15    C     0.20259   0.18554   0.40618   0.00000  Uiso   1.00
C16    C     0.13252   0.15466   0.09314   0.00000  Uiso   1.00
C17    C     0.16798   0.16590   0.38359   0.00000  Uiso   1.00
C18    C     0.16884   0.16797   0.11657   0.00000  Uiso   1.00
C19    C     0.13479   0.14610   0.40667   0.00000  Uiso   1.00
C20    C     0.20444   0.18448   0.09483   0.00000  Uiso   1.00
C21    C     0.13202   0.15480   0.45249   0.00000  Uiso   1.00
C22    C     0.20462   0.18462   0.04756   0.00000  Uiso   1.00
C23    C     0.16733   0.17156   0.47639   0.00000  Uiso   1.00
C24    C     0.16780   0.17101   0.02351   0.00000  Uiso   1.00
C25    C     0.20198   0.18916   0.45311   0.00000  Uiso   1.00
C26    C     0.13222   0.15413   0.04611   0.00000  Uiso   1.00
C27    C     0.09510   0.14646   0.47508   0.00000  Uiso   1.00
C28    C     0.23977   0.19904   0.02290   0.00000  Uiso   1.00
C29    C     0.09656   0.13901   0.02115   0.00000  Uiso   1.00
C30    C     0.23545   0.20882   0.47766   0.00000  Uiso   1.00
C31    C     0.01954   0.12391   0.25403   0.00000  Uiso   1.00
C32    C     0.31459   0.20897   0.26709   0.00000  Uiso   1.00
C33    C     0.31198   0.12801   0.24061   0.00000  Uiso   1.00
C34    C     0.02384   0.20545   0.27547   0.00000  Uiso   1.00
C35    C     0.29156   0.16920   0.25060   0.00000  Uiso   1.00
C36    C     0.04337   0.16456   0.26309   0.00000  Uiso   1.00
C37    C     0.14526   0.02453   0.21777   0.00000  Uiso   1.00
C38    C     0.18395   0.30951   0.28468   0.00000  Uiso   1.00
C39    C     0.18816   0.02596   0.28188   0.00000  Uiso   1.00
C40    C     0.14976   0.30834   0.21509   0.00000  Uiso   1.00
N41    N     0.16667   0.28402   0.25000   0.00000  Uiso   1.00
N42    N     0.16667   0.04931   0.25000   0.00000  Uiso   1.00
C43    C     0.24162   0.19618   0.38053   0.00000  Uiso   1.00
H44    H     0.26802   0.17903   0.39684   0.00000  Uiso   1.00
H45    H     0.24068   0.18247   0.34632   0.00000  Uiso   1.00
H46    H     0.24764   0.23433   0.37820   0.00000  Uiso   1.00
C47    C     0.09300   0.14699   0.11864   0.00000  Uiso   1.00
H48    H     0.06954   0.17065   0.10551   0.00000  Uiso   1.00
H49    H     0.08255   0.11005   0.11687   0.00000  Uiso   1.00
H50    H     0.09518   0.15540   0.15434   0.00000  Uiso   1.00
C51    C     0.10620   0.11065   0.38315   0.00000  Uiso   1.00
H52    H     0.12431   0.08416   0.36655   0.00000  Uiso   1.00
H53    H     0.08705   0.08971   0.40615   0.00000  Uiso   1.00
H54    H     0.08643   0.12823   0.35817   0.00000  Uiso   1.00
C55    C     0.24001   0.20615   0.12246   0.00000  Uiso   1.00
H56    H     0.23367   0.21231   0.15756   0.00000  Uiso   1.00
H57    H     0.26642   0.18306   0.12399   0.00000  Uiso   1.00
H58    H     0.24812   0.24137   0.10952   0.00000  Uiso   1.00
C59    C     0.05392   0.15294   0.45172   0.00000  Uiso   1.00
H60    H     0.05717   0.16963   0.41869   0.00000  Uiso   1.00
H61    H     0.03665   0.11921   0.44789   0.00000  Uiso   1.00
H62    H     0.03560   0.17752   0.47050   0.00000  Uiso   1.00
C63    C     0.28358   0.19748   0.04042   0.00000  Uiso   1.00
H64    H     0.28777   0.16502   0.05971   0.00000  Uiso   1.00
H65    H     0.30554   0.19538   0.01306   0.00000  Uiso   1.00
H66    H     0.29301   0.22922   0.05918   0.00000  Uiso   1.00
O67    O     0.06989   0.10538   0.03907   0.00000  Uiso   1.00
C68    C     0.02971   0.12142   0.04298   0.00000  Uiso   1.00
H69    H     0.00953   0.10754   0.01572   0.00000  Uiso   1.00
H70    H     0.02856   0.15997   0.04471   0.00000  Uiso   1.00
H71    H     0.01676   0.10723   0.07416   0.00000  Uiso   1.00
O72    O     0.26609   0.23514   0.45733   0.00000  Uiso   1.00
C73    C     0.25890   0.28263   0.46422   0.00000  Uiso   1.00
H74    H     0.26209   0.29173   0.49996   0.00000  Uiso   1.00
H75    H     0.22815   0.29211   0.45091   0.00000  Uiso   1.00
H76    H     0.28223   0.30384   0.44614   0.00000  Uiso   1.00
C77    C     0.03505   0.07636   0.26602   0.00000  Uiso   1.00
H78    H     0.05126   0.07775   0.29878   0.00000  Uiso   1.00
H79    H     0.00966   0.04979   0.26890   0.00000  Uiso   1.00
H80    H     0.05614   0.06456   0.24109   0.00000  Uiso   1.00
C81    C     0.29471   0.25541   0.27392   0.00000  Uiso   1.00
H82    H     0.27906   0.26647   0.24272   0.00000  Uiso   1.00
H83    H     0.27272   0.25256   0.30133   0.00000  Uiso   1.00
H84    H     0.31661   0.28461   0.28186   0.00000  Uiso   1.00
C85    C     0.29252   0.09051   0.21089   0.00000  Uiso   1.00
H86    H     0.27275   0.10629   0.18477   0.00000  Uiso   1.00
H87    H     0.31626   0.07149   0.19325   0.00000  Uiso   1.00
H88    H     0.27420   0.06494   0.23039   0.00000  Uiso   1.00
C89    C     0.04733   0.24248   0.30258   0.00000  Uiso   1.00
H90    H     0.07558   0.22897   0.31850   0.00000  Uiso   1.00
H91    H     0.05547   0.27300   0.28137   0.00000  Uiso   1.00
H92    H     0.02872   0.25357   0.33074   0.00000  Uiso   1.00
O93    O     0.12292   0.04933   0.18616   0.00000  Uiso   1.00
C94    C     0.08571   0.02608   0.17251   0.00000  Uiso   1.00
H95    H     0.07318   0.00111   0.19760   0.00000  Uiso   1.00
H96    H     0.08957   0.00831   0.14044   0.00000  Uiso   1.00
H97    H     0.06211   0.05233   0.16642   0.00000  Uiso   1.00
O98    O     0.19788   0.28704   0.32235   0.00000  Uiso   1.00
C99    C     0.17128   0.29646   0.35736   0.00000  Uiso   1.00
H100   H     0.13866   0.28727   0.34834   0.00000  Uiso   1.00
H101   H     0.17427  -0.00000   0.36811   0.00000  Uiso   1.00
H102   H     0.17975   0.27489   0.38644   0.00000  Uiso   1.00
O103   O     0.21053   0.05191   0.31334   0.00000  Uiso   1.00
C104   C     0.25090   0.03605   0.31912   0.00000  Uiso   1.00
H105   H     0.26199   0.01626   0.29042   0.00000  Uiso   1.00
H106   H     0.25301   0.01432   0.34957   0.00000  Uiso   1.00
H107   H     0.27211   0.06677   0.32390   0.00000  Uiso   1.00
O108   O     0.13682   0.28480   0.17730   0.00000  Uiso   1.00
C109   C     0.16460   0.29589   0.14314   0.00000  Uiso   1.00
H110   H     0.19684   0.28914   0.15356   0.00000  Uiso   1.00
H111   H     0.16248   0.33263   0.13193   0.00000  Uiso   1.00
H112   H     0.15666   0.27348   0.11417   0.00000  Uiso   1.00
O113   O     0.43988   0.20625   0.24999   0.00000  Uiso   1.00
O114   O     0.56012   0.12709   0.25000   0.00000  Uiso   1.00
O115   O     0.56012   0.20625   0.25000   0.00000  Uiso   1.00
O116   O     0.43988   0.12709   0.24999   0.00000  Uiso   1.00
C117   C     0.42119   0.16588   0.25528   0.00000  Uiso   1.00
C118   C     0.57952   0.16759   0.24914   0.00000  Uiso   1.00
O119   O     0.49999   0.20627   0.18513   0.00000  Uiso   1.00
O120   O     0.50001   0.12707   0.31487   0.00000  Uiso   1.00
O121   O     0.50001   0.20627   0.31487   0.00000  Uiso   1.00
O122   O     0.49999   0.12707   0.18513   0.00000  Uiso   1.00
C123   C     0.50197   0.16695   0.16481   0.00000  Uiso   1.00
C124   C     0.49954   0.16639   0.33534   0.00000  Uiso   1.00
Cu125  Cu    0.50000   0.21355   0.25000   0.00000  Uiso   1.00
Cu126  Cu    0.50000   0.11978   0.25000   0.00000  Uiso   1.00
C127   C     0.53593   0.18554   0.40618   0.00000  Uiso   1.00
C128   C     0.46585   0.15466   0.09314   0.00000  Uiso   1.00
C129   C     0.50131   0.16590   0.38359   0.00000  Uiso   1.00
C130   C     0.50217   0.16797   0.11657   0.00000  Uiso   1.00
C131   C     0.46812   0.14610   0.40667   0.00000  Uiso   1.00
C132   C     0.53777   0.18448   0.09483   0.00000  Uiso   1.00
C133   C     0.46536   0.15480   0.45249   0.00000  Uiso   1.00
C134   C     0.53795   0.18462   0.04756   0.00000  Uiso   1.00
C135   C     0.50066   0.17156   0.47639   0.00000  Uiso   1.00
C136   C     0.50113   0.17101   0.02351   0.00000  Uiso   1.00
C137   C     0.53532   0.18916   0.45311   0.00000  Uiso   1.00
C138   C     0.46555   0.15413   0.04611   0.00000  Uiso   1.00
C139   C     0.42843   0.14646   0.47508   0.00000  Uiso   1.00
C140   C     0.57310   0.19904   0.02290   0.00000  Uiso   1.00
C141   C     0.42990   0.13901   0.02115   0.00000  Uiso   1.00
C142   C     0.56879   0.20882   0.47766   0.00000  Uiso   1.00
C143   C     0.35287   0.12391   0.25403   0.00000  Uiso   1.00
C144   C     0.64793   0.20897   0.26709   0.00000  Uiso   1.00
C145   C     0.64531   0.12801   0.24061   0.00000  Uiso   1.00
C146   C     0.35717   0.20545   0.27547   0.00000  Uiso   1.00
C147   C     0.62489   0.16920   0.25060   0.00000  Uiso   1.00
C148   C     0.37670   0.16456   0.26309   0.00000  Uiso   1.00
C149   C     0.47860   0.02453   0.21777   0.00000  Uiso   1.00
C150   C     0.51729   0.30951   0.28468   0.00000  Uiso   1.00
C151   C     0.52149   0.02596   0.28188   0.00000  Uiso   1.00
C152   C     0.48310   0.30834   0.21509   0.00000  Uiso   1.00
N153   N     0.50000   0.28402   0.25000   0.00000  Uiso   1.00
N154   N     0.50000   0.04931   0.25000   0.00000  Uiso   1.00
C155   C     0.57496   0.19618   0.38053   0.00000  Uiso   1.00
H156   H     0.60136   0.17903   0.39684   0.00000  Uiso   1.00
H157   H     0.57401   0.18247   0.34632   0.00000  Uiso   1.00
H158   H     0.58098   0.23433   0.37820   0.00000  Uiso   1.00
C159   C     0.42633   0.14699   0.11864   0.00000  Uiso   1.00
H160   H     0.40287   0.17065   0.10551   0.00000  Uiso   1.00
H161   H     0.41588   0.11005   0.11687   0.00000  Uiso   1.00
H162   H     0.42851   0.15540   0.15434   0.00000  Uiso   1.00
C163   C     0.43953   0.11065   0.38315   0.00000  Uiso   1.00
H164   H     0.45764   0.08416   0.36655   0.00000  Uiso   1.00
H165   H     0.42039   0.08971   0.40615   0.00000  Uiso   1.00
H166   H     0.41977   0.12823   0.35817   0.00000  Uiso   1.00
C167   C     0.57334   0.20615   0.12246   0.00000  Uiso   1.00
H168   H     0.56700   0.21231   0.15756   0.00000  Uiso   1.00
H169   H     0.59976   0.18306   0.12399   0.00000  Uiso   1.00
H170   H     0.58145   0.24137   0.10952   0.00000  Uiso   1.00
C171   C     0.38726   0.15294   0.45172   0.00000  Uiso   1.00
H172   H     0.39050   0.16963   0.41869   0.00000  Uiso   1.00
H173   H     0.36998   0.11921   0.44789   0.00000  Uiso   1.00
H174   H     0.36893   0.17752   0.47050   0.00000  Uiso   1.00
C175   C     0.61691   0.19748   0.04042   0.00000  Uiso   1.00
H176   H     0.62111   0.16502   0.05971   0.00000  Uiso   1.00
H177   H     0.63887   0.19538   0.01306   0.00000  Uiso   1.00
H178   H     0.62635   0.22922   0.05918   0.00000  Uiso   1.00
O179   O     0.40323   0.10538   0.03907   0.00000  Uiso   1.00
C180   C     0.36304   0.12142   0.04298   0.00000  Uiso   1.00
H181   H     0.34287   0.10754   0.01572   0.00000  Uiso   1.00
H182   H     0.36189   0.15997   0.04471   0.00000  Uiso   1.00
H183   H     0.35009   0.10723   0.07416   0.00000  Uiso   1.00
O184   O     0.59943   0.23514   0.45733   0.00000  Uiso   1.00
C185   C     0.59223   0.28263   0.46422   0.00000  Uiso   1.00
H186   H     0.59542   0.29173   0.49996   0.00000  Uiso   1.00
H187   H     0.56148   0.29211   0.45091   0.00000  Uiso   1.00
H188   H     0.61556   0.30384   0.44614   0.00000  Uiso   1.00
C189   C     0.36838   0.07636   0.26602   0.00000  Uiso   1.00
H190   H     0.38459   0.07775   0.29878   0.00000  Uiso   1.00
H191   H     0.34300   0.04979   0.26890   0.00000  Uiso   1.00
H192   H     0.38948   0.06456   0.24109   0.00000  Uiso   1.00
C193   C     0.62804   0.25541   0.27392   0.00000  Uiso   1.00
H194   H     0.61239   0.26647   0.24272   0.00000  Uiso   1.00
H195   H     0.60605   0.25256   0.30133   0.00000  Uiso   1.00
H196   H     0.64995   0.28461   0.28186   0.00000  Uiso   1.00
C197   C     0.62585   0.09051   0.21089   0.00000  Uiso   1.00
H198   H     0.60609   0.10629   0.18477   0.00000  Uiso   1.00
H199   H     0.64959   0.07149   0.19325   0.00000  Uiso   1.00
H200   H     0.60753   0.06494   0.23039   0.00000  Uiso   1.00
C201   C     0.38066   0.24248   0.30258   0.00000  Uiso   1.00
H202   H     0.40892   0.22897   0.31850   0.00000  Uiso   1.00
H203   H     0.38881   0.27300   0.28137   0.00000  Uiso   1.00
H204   H     0.36205   0.25357   0.33074   0.00000  Uiso   1.00
O205   O     0.45625   0.04933   0.18616   0.00000  Uiso   1.00
C206   C     0.41904   0.02608   0.17251   0.00000  Uiso   1.00
H207   H     0.40651   0.00111   0.19760   0.00000  Uiso   1.00
H208   H     0.42290   0.00831   0.14044   0.00000  Uiso   1.00
H209   H     0.39544   0.05233   0.16642   0.00000  Uiso   1.00
O210   O     0.53121   0.28704   0.32235   0.00000  Uiso   1.00
C211   C     0.50461   0.29646   0.35736   0.00000  Uiso   1.00
H212   H     0.47199   0.28727   0.34834   0.00000  Uiso   1.00
H213   H     0.50761  -0.00000   0.36811   0.00000  Uiso   1.00
H214   H     0.51308   0.27489   0.38644   0.00000  Uiso   1.00
O215   O     0.54387   0.05191   0.31334   0.00000  Uiso   1.00
C216   C     0.58424   0.03605   0.31912   0.00000  Uiso   1.00
H217   H     0.59532   0.01626   0.29042   0.00000  Uiso   1.00
H218   H     0.58634   0.01432   0.34957   0.00000  Uiso   1.00
H219   H     0.60544   0.06677   0.32390   0.00000  Uiso   1.00
O220   O     0.47015   0.28480   0.17730   0.00000  Uiso   1.00
C221   C     0.49793   0.29589   0.14314   0.00000  Uiso   1.00
H222   H     0.53018   0.28914   0.15356   0.00000  Uiso   1.00
H223   H     0.49581   0.33263   0.13193   0.00000  Uiso   1.00
H224   H     0.49000   0.27348   0.11417   0.00000  Uiso   1.00
O225   O     0.77321   0.20625   0.24999   0.00000  Uiso   1.00
O226   O     0.89345   0.12709   0.25000   0.00000  Uiso   1.00
O227   O     0.89345   0.20625   0.25000   0.00000  Uiso   1.00
O228   O     0.77321   0.12709   0.24999   0.00000  Uiso   1.00
C229   C     0.75452   0.16588   0.25528   0.00000  Uiso   1.00
C230   C     0.91286   0.16759   0.24914   0.00000  Uiso   1.00
O231   O     0.83332   0.20627   0.18513   0.00000  Uiso   1.00
O232   O     0.83334   0.12707   0.31487   0.00000  Uiso   1.00
O233   O     0.83334   0.20627   0.31487   0.00000  Uiso   1.00
O234   O     0.83332   0.12707   0.18513   0.00000  Uiso   1.00
C235   C     0.83530   0.16695   0.16481   0.00000  Uiso   1.00
C236   C     0.83287   0.16639   0.33534   0.00000  Uiso   1.00
Cu237  Cu    0.83333   0.21355   0.25000   0.00000  Uiso   1.00
Cu238  Cu    0.83333   0.11978   0.25000   0.00000  Uiso   1.00
C239   C     0.86926   0.18554   0.40618   0.00000  Uiso   1.00
C240   C     0.79918   0.15466   0.09314   0.00000  Uiso   1.00
C241   C     0.83464   0.16590   0.38359   0.00000  Uiso   1.00
C242   C     0.83551   0.16797   0.11657   0.00000  Uiso   1.00
C243   C     0.80146   0.14610   0.40667   0.00000  Uiso   1.00
C244   C     0.87110   0.18448   0.09483   0.00000  Uiso   1.00
C245   C     0.79869   0.15480   0.45249   0.00000  Uiso   1.00
C246   C     0.87128   0.18462   0.04756   0.00000  Uiso   1.00
C247   C     0.83400   0.17156   0.47639   0.00000  Uiso   1.00
C248   C     0.83447   0.17101   0.02351   0.00000  Uiso   1.00
C249   C     0.86865   0.18916   0.45311   0.00000  Uiso   1.00
C250   C     0.79888   0.15413   0.04611   0.00000  Uiso   1.00
C251   C     0.76177   0.14646   0.47508   0.00000  Uiso   1.00
C252   C     0.90644   0.19904   0.02290   0.00000  Uiso   1.00
C253   C     0.76323   0.13901   0.02115   0.00000  Uiso   1.00
C254   C     0.90212   0.20882   0.47766   0.00000  Uiso   1.00
C255   C     0.68620   0.12391   0.25403   0.00000  Uiso   1.00
C256   C     0.98126   0.20897   0.26709   0.00000  Uiso   1.00
C257   C     0.97865   0.12801   0.24061   0.00000  Uiso   1.00
C258   C     0.69050   0.20545   0.27547   0.00000  Uiso   1.00
C259   C     0.95823   0.16920   0.25060   0.00000  Uiso   1.00
C260   C     0.71003   0.16456   0.26309   0.00000  Uiso   1.00
C261   C     0.81193   0.02453   0.21777   0.00000  Uiso   1.00
C262   C     0.85062   0.30951   0.28468   0.00000  Uiso   1.00
C263   C     0.85482   0.02596   0.28188   0.00000  Uiso   1.00
C264   C     0.81643   0.30834   0.21509   0.00000  Uiso   1.00
N265   N     0.83333   0.28402   0.25000   0.00000  Uiso   1.00
N266   N     0.83333   0.04931   0.25000   0.00000  Uiso   1.00
C267   C     0.90829   0.19618   0.38053   0.00000  Uiso   1.00
H268   H     0.93469   0.17903   0.39684   0.00000  Uiso   1.00
H269   H     0.90735   0.18247   0.34632   0.00000  Uiso   1.00
H270   H     0.91431   0.23433   0.37820   0.00000  Uiso   1.00
C271   C     0.75967   0.14699   0.11864   0.00000  Uiso   1.00
H272   H     0.73620   0.17065   0.10551   0.00000  Uiso   1.00
H273   H     0.74922   0.11005   0.11687   0.00000  Uiso   1.00
H274   H     0.76185   0.15540   0.15434   0.00000  Uiso   1.00
C275   C     0.77286   0.11065   0.38315   0.00000  Uiso   1.00
H276   H     0.79097   0.08416   0.36655   0.00000  Uiso   1.00
H277   H     0.75372   0.08971   0.40615   0.00000  Uiso   1.00
H278   H     0.75310   0.12823   0.35817   0.00000  Uiso   1.00
C279   C     0.90668   0.20615   0.12246   0.00000  Uiso   1.00
H280   H     0.90033   0.21231   0.15756   0.00000  Uiso   1.00
H281   H     0.93309   0.18306   0.12399   0.00000  Uiso   1.00
H282   H     0.91479   0.24137   0.10952   0.00000  Uiso   1.00
C283   C     0.72059   0.15294   0.45172   0.00000  Uiso   1.00
H284   H     0.72383   0.16963   0.41869   0.00000  Uiso   1.00
H285   H     0.70331   0.11921   0.44789   0.00000  Uiso   1.00
H286   H     0.70226   0.17752   0.47050   0.00000  Uiso   1.00
C287   C     0.95024   0.19748   0.04042   0.00000  Uiso   1.00
H288   H     0.95444   0.16502   0.05971   0.00000  Uiso   1.00
H289   H     0.97221   0.19538   0.01306   0.00000  Uiso   1.00
H290   H     0.95968   0.22922   0.05918   0.00000  Uiso   1.00
O291   O     0.73656   0.10538   0.03907   0.00000  Uiso   1.00
C292   C     0.69637   0.12142   0.04298   0.00000  Uiso   1.00
H293   H     0.67620   0.10754   0.01572   0.00000  Uiso   1.00
H294   H     0.69523   0.15997   0.04471   0.00000  Uiso   1.00
H295   H     0.68342   0.10723   0.07416   0.00000  Uiso   1.00
O296   O     0.93276   0.23514   0.45733   0.00000  Uiso   1.00
C297   C     0.92557   0.28263   0.46422   0.00000  Uiso   1.00
H298   H     0.92875   0.29173   0.49996   0.00000  Uiso   1.00
H299   H     0.89482   0.29211   0.45091   0.00000  Uiso   1.00
H300   H     0.94890   0.30384   0.44614   0.00000  Uiso   1.00
C301   C     0.70171   0.07636   0.26602   0.00000  Uiso   1.00
H302   H     0.71792   0.07775   0.29878   0.00000  Uiso   1.00
H303   H     0.67633   0.04979   0.26890   0.00000  Uiso   1.00
H304   H     0.72281   0.06456   0.24109   0.00000  Uiso   1.00
C305   C     0.96137   0.25541   0.27392   0.00000  Uiso   1.00
H306   H     0.94573   0.26647   0.24272   0.00000  Uiso   1.00
H307   H     0.93938   0.25256   0.30133   0.00000  Uiso   1.00
H308   H     0.98328   0.28461   0.28186   0.00000  Uiso   1.00
C309   C     0.95919   0.09051   0.21089   0.00000  Uiso   1.00
H310   H     0.93942   0.10629   0.18477   0.00000  Uiso   1.00
H311   H     0.98293   0.07149   0.19325   0.00000  Uiso   1.00
H312   H     0.94086   0.06494   0.23039   0.00000  Uiso   1.00
C313   C     0.71399   0.24248   0.30258   0.00000  Uiso   1.00
H314   H     0.74225   0.22897   0.31850   0.00000  Uiso   1.00
H315   H     0.72214   0.27300   0.28137   0.00000  Uiso   1.00
H316   H     0.69538   0.25357   0.33074   0.00000  Uiso   1.00
O317   O     0.78959   0.04933   0.18616   0.00000  Uiso   1.00
C318   C     0.75237   0.02608   0.17251   0.00000  Uiso   1.00
H319   H     0.73984   0.00111   0.19760   0.00000  Uiso   1.00
H320   H     0.75623   0.00831   0.14044   0.00000  Uiso   1.00
H321   H     0.72877   0.05233   0.16642   0.00000  Uiso   1.00
O322   O     0.86454   0.28704   0.32235   0.00000  Uiso   1.00
C323   C     0.83794   0.29646   0.35736   0.00000  Uiso   1.00
H324   H     0.80533   0.28727   0.34834   0.00000  Uiso   1.00
H325   H     0.84094  -0.00000   0.36811   0.00000  Uiso   1.00
H326   H     0.84641   0.27489   0.38644   0.00000  Uiso   1.00
O327   O     0.87720   0.05191   0.31334   0.00000  Uiso   1.00
C328   C     0.91757   0.03605   0.31912   0.00000  Uiso   1.00
H329   H     0.92866   0.01626   0.29042   0.00000  Uiso   1.00
H330   H     0.91968   0.01432   0.34957   0.00000  Uiso   1.00
H331   H     0.93877   0.06677   0.32390   0.00000  Uiso   1.00
O332   O     0.80348   0.28480   0.17730   0.00000  Uiso   1.00
C333   C     0.83126   0.29589   0.14314   0.00000  Uiso   1.00
H334   H     0.86351   0.28914   0.15356   0.00000  Uiso   1.00
H335   H     0.82914   0.33263   0.13193   0.00000  Uiso   1.00
H336   H     0.82333   0.27348   0.11417   0.00000  Uiso   1.00
O337   O     0.10655   0.53958   0.24999   0.00000  Uiso   1.00
O338   O     0.22679   0.46042   0.25000   0.00000  Uiso   1.00
O339   O     0.22679   0.53958   0.25000   0.00000  Uiso   1.00
O340   O     0.10655   0.46042   0.24999   0.00000  Uiso   1.00
C341   C     0.08785   0.49921   0.25528   0.00000  Uiso   1.00
C342   C     0.24619   0.50092   0.24914   0.00000  Uiso   1.00
O343   O     0.16666   0.53960   0.18513   0.00000  Uiso   1.00
O344   O     0.16668   0.46040   0.31487   0.00000  Uiso   1.00
O345   O     0.16668   0.53960   0.31487   0.00000  Uiso   1.00
O346   O     0.16666   0.46040   0.18513   0.00000  Uiso   1.00
C347   C     0.16863   0.50029   0.16481   0.00000  Uiso   1.00
C348   C     0.16621   0.49973   0.33534   0.00000  Uiso   1.00
Cu349  Cu    0.16667   0.54689   0.25000   0.00000  Uiso   1.00
Cu350  Cu    0.16667   0.45311   0.25000   0.00000  Uiso   1.00
C351   C     0.20259   0.51887   0.40618   0.00000  Uiso   1.00
C352   C     0.13252   0.48799   0.09314   0.00000  Uiso   1.00
C353   C     0.16798   0.49923   0.38359   0.00000  Uiso   1.00
C354   C     0.16884   0.50130   0.11657   0.00000  Uiso   1.00
C355   C     0.13479   0.47943   0.40667   0.00000  Uiso   1.00
C356   C     0.20444   0.51781   0.09483   0.00000  Uiso   1.00
C357   C     0.13202   0.48813   0.45249   0.00000  Uiso   1.00
C358   C     0.20462   0.51796   0.04756   0.00000  Uiso   1.00
C359   C     0.16733   0.50489   0.47639   0.00000  Uiso   1.00
C360   C     0.16780   0.50434   0.02351   0.00000  Uiso   1.00
C361   C     0.20198   0.52249   0.45311   0.00000  Uiso   1.00
C362   C     0.13222   0.48747   0.04611   0.00000  Uiso   1.00
C363   C     0.09510   0.47980   0.47508   0.00000  Uiso   1.00
C364   C     0.23977   0.53237   0.02290   0.00000  Uiso   1.00
C365   C     0.09656   0.47235   0.02115   0.00000  Uiso   1.00
C366   C     0.23545   0.54215   0.47766   0.00000  Uiso   1.00
C367   C     0.01954   0.45725   0.25403   0.00000  Uiso   1.00
C368   C     0.31459   0.54230   0.26709   0.00000  Uiso   1.00
C369   C     0.31198   0.46135   0.24061   0.00000  Uiso   1.00
C370   C     0.02384   0.53878   0.27547   0.00000  Uiso   1.00
C371   C     0.29156   0.50254   0.25060   0.00000  Uiso   1.00
C372   C     0.04337   0.49789   0.26309   0.00000  Uiso   1.00
C373   C     0.14526   0.35786   0.21777   0.00000  Uiso   1.00
C374   C     0.18395   0.64285   0.28468   0.00000  Uiso   1.00
C375   C     0.18816   0.35929   0.28188   0.00000  Uiso   1.00
C376   C     0.14976   0.64168   0.21509   0.00000  Uiso   1.00
N377   N     0.16667   0.61736   0.25000   0.00000  Uiso   1.00
N378   N     0.16667   0.38264   0.25000   0.00000  Uiso   1.00
C379   C     0.24162   0.52951   0.38053   0.00000  Uiso   1.00
H380   H     0.26802   0.51236   0.39684   0.00000  Uiso   1.00
H381   H     0.24068   0.51580   0.34632   0.00000  Uiso   1.00
H382   H     0.24764   0.56766   0.37820   0.00000  Uiso   1.00
C383   C     0.09300   0.48032   0.11864   0.00000  Uiso   1.00
H384   H     0.06954   0.50398   0.10551   0.00000  Uiso   1.00
H385   H     0.08255   0.44338   0.11687   0.00000  Uiso   1.00
H386   H     0.09518   0.48873   0.15434   0.00000  Uiso   1.00
C387   C     0.10620   0.44398   0.38315   0.00000  Uiso   1.00
H388   H     0.12431   0.41749   0.36655   0.00000  Uiso   1.00
H389   H     0.08705   0.42304   0.40615   0.00000  Uiso   1.00
H390   H     0.08643   0.46156   0.35817   0.00000  Uiso   1.00
C391   C     0.24001   0.53948   0.12246   0.00000  Uiso   1.00
H392   H     0.23367   0.54565   0.15756   0.00000  Uiso   1.00
H393   H     0.26642   0.51640   0.12399   0.00000  Uiso   1.00
H394   H     0.24812   0.57471   0.10952   0.00000  Uiso   1.00
C395   C     0.05392   0.48627   0.45172   0.00000  Uiso   1.00
H396   H     0.05717   0.50296   0.41869   0.00000  Uiso   1.00
H397   H     0.03665   0.45255   0.44789   0.00000  Uiso   1.00
H398   H     0.03560   0.51085   0.47050   0.00000  Uiso   1.00
C399   C     0.28358   0.53082   0.04042   0.00000  Uiso   1.00
H400   H     0.28777   0.49835   0.05971   0.00000  Uiso   1.00
H401   H     0.30554   0.52872   0.01306   0.00000  Uiso   1.00
H402   H     0.29301   0.56256   0.05918   0.00000  Uiso   1.00
O403   O     0.06989   0.43872   0.03907   0.00000  Uiso   1.00
C404   C     0.02971   0.45476   0.04298   0.00000  Uiso   1.00
H405   H     0.00953   0.44088   0.01572   0.00000  Uiso   1.00
H406   H     0.02856   0.49331   0.04471   0.00000  Uiso   1.00
H407   H     0.01676   0.44056   0.07416   0.00000  Uiso   1.00
O408   O     0.26609   0.56847   0.45733   0.00000  Uiso   1.00
C409   C     0.25890   0.61596   0.46422   0.00000  Uiso   1.00
H410   H     0.26209   0.62506   0.49996   0.00000  Uiso   1.00
H411   H     0.22815   0.62545   0.45091   0.00000  Uiso   1.00
H412   H     0.28223   0.63717   0.44614   0.00000  Uiso   1.00
C413   C     0.03505   0.40970   0.26602   0.00000  Uiso   1.00
H414   H     0.05126   0.41109   0.29878   0.00000  Uiso   1.00
H415   H     0.00966   0.38313   0.26890   0.00000  Uiso   1.00
H416   H     0.05614   0.39789   0.24109   0.00000  Uiso   1.00
C417   C     0.29471   0.58874   0.27392   0.00000  Uiso   1.00
H418   H     0.27906   0.59980   0.24272   0.00000  Uiso   1.00
H419   H     0.27272   0.58590   0.30133   0.00000  Uiso   1.00
H420   H     0.31661   0.61795   0.28186   0.00000  Uiso   1.00
C421   C     0.29252   0.42384   0.21089   0.00000  Uiso   1.00
H422   H     0.27275   0.43962   0.18477   0.00000  Uiso   1.00
H423   H     0.31626   0.40482   0.19325   0.00000  Uiso   1.00
H424   H     0.27420   0.39827   0.23039   0.00000  Uiso   1.00
C425   C     0.04733   0.57581   0.30258   0.00000  Uiso   1.00
H426   H     0.07558   0.56231   0.31850   0.00000  Uiso   1.00
H427   H     0.05547   0.60633   0.28137   0.00000  Uiso   1.00
H428   H     0.02872   0.58691   0.33074   0.00000  Uiso   1.00
O429   O     0.12292   0.38267   0.18616   0.00000  Uiso   1.00
C430   C     0.08571   0.35942   0.17251   0.00000  Uiso   1.00
H431   H     0.07318   0.33444   0.19760   0.00000  Uiso   1.00
H432   H     0.08957   0.34165   0.14044   0.00000  Uiso   1.00
H433   H     0.06211   0.38567   0.16642   0.00000  Uiso   1.00
O434   O     0.19788   0.62038   0.32235   0.00000  Uiso   1.00
C435   C     0.17128   0.62979   0.35736   0.00000  Uiso   1.00
H436   H     0.13866   0.62061   0.34834   0.00000  Uiso   1.00
H437   H     0.17427   0.33333   0.36811   0.00000  Uiso   1.00
H438   H     0.17975   0.60823   0.38644   0.00000  Uiso   1.00
O439   O     0.21053   0.38524   0.31334   0.00000  Uiso   1.00
C440   C     0.25090   0.36939   0.31912   0.00000  Uiso   1.00
H441   H     0.26199   0.34959   0.29042   0.00000  Uiso   1.00
H442   H     0.25301   0.34766   0.34957   0.00000  Uiso   1.00
H443   H     0.27211   0.40011   0.32390   0.00000  Uiso   1.00
O444   O     0.13682   0.61813   0.17730   0.00000  Uiso   1.00
C445   C     0.16460   0.62922   0.14314   0.00000  Uiso   1.00
H446   H     0.19684   0.62247   0.15356   0.00000  Uiso   1.00
H447   H     0.16248   0.66597   0.13193   0.00000  Uiso   1.00
H448   H     0.15666   0.60681   0.11417   0.00000  Uiso   1.00
O449   O     0.43988   0.53958   0.24999   0.00000  Uiso   1.00
O450   O     0.56012   0.46042   0.25000   0.00000  Uiso   1.00
O451   O     0.56012   0.53958   0.25000   0.00000  Uiso   1.00
O452   O     0.43988   0.46042   0.24999   0.00000  Uiso   1.00
C453   C     0.42119   0.49921   0.25528   0.00000  Uiso   1.00
C454   C     0.57952   0.50092   0.24914   0.00000  Uiso   1.00
O455   O     0.49999   0.53960   0.18513   0.00000  Uiso   1.00
O456   O     0.50001   0.46040   0.31487   0.00000  Uiso   1.00
O457   O     0.50001   0.53960   0.31487   0.00000  Uiso   1.00
O458   O     0.49999   0.46040   0.18513   0.00000  Uiso   1.00
C459   C     0.50197   0.50029   0.16481   0.00000  Uiso   1.00
C460   C     0.49954   0.49973   0.33534   0.00000  Uiso   1.00
Cu461  Cu    0.50000   0.54689   0.25000   0.00000  Uiso   1.00
Cu462  Cu    0.50000   0.45311   0.25000   0.00000  Uiso   1.00
C463   C     0.53593   0.51887   0.40618   0.00000  Uiso   1.00
C464   C     0.46585   0.48799   0.09314   0.00000  Uiso   1.00
C465   C     0.50131   0.49923   0.38359   0.00000  Uiso   1.00
C466   C     0.50217   0.50130   0.11657   0.00000  Uiso   1.00
C467   C     0.46812   0.47943   0.40667   0.00000  Uiso   1.00
C468   C     0.53777   0.51781   0.09483   0.00000  Uiso   1.00
C469   C     0.46536   0.48813   0.45249   0.00000  Uiso   1.00
C470   C     0.53795   0.51796   0.04756   0.00000  Uiso   1.00
C471   C     0.50066   0.50489   0.47639   0.00000  Uiso   1.00
C472   C     0.50113   0.50434   0.02351   0.00000  Uiso   1.00
C473   C     0.53532   0.52249   0.45311   0.00000  Uiso   1.00
C474   C     0.46555   0.48747   0.04611   0.00000  Uiso   1.00
C475   C     0.42843   0.47980   0.47508   0.00000  Uiso   1.00
C476   C     0.57310   0.53237   0.02290   0.00000  Uiso   1.00
C477   C     0.42990   0.47235   0.02115   0.00000  Uiso   1.00
C478   C     0.56879   0.54215   0.47766   0.00000  Uiso   1.00
C479   C     0.35287   0.45725   0.25403   0.00000  Uiso   1.00
C480   C     0.64793   0.54230   0.26709   0.00000  Uiso   1.00
C481   C     0.64531   0.46135   0.24061   0.00000  Uiso   1.00
C482   C     0.35717   0.53878   0.27547   0.00000  Uiso   1.00
C483   C     0.62489   0.50254   0.25060   0.00000  Uiso   1.00
C484   C     0.37670   0.49789   0.26309   0.00000  Uiso   1.00
C485   C     0.47860   0.35786   0.21777   0.00000  Uiso   1.00
C486   C     0.51729   0.64285   0.28468   0.00000  Uiso   1.00
C487   C     0.52149   0.35929   0.28188   0.00000  Uiso   1.00
C488   C     0.48310   0.64168   0.21509   0.00000  Uiso   1.00
N489   N     0.50000   0.61736   0.25000   0.00000  Uiso   1.00
N490   N     0.50000   0.38264   0.25000   0.00000  Uiso   1.00
C491   C     0.57496   0.52951   0.38053   0.00000  Uiso   1.00
H492   H     0.60136   0.51236   0.39684   0.00000  Uiso   1.00
H493   H     0.57401   0.51580   0.34632   0.00000  Uiso   1.00
H494   H     0.58098   0.56766   0.37820   0.00000  Uiso   1.00
C495   C     0.42633   0.48032   0.11864   0.00000  Uiso   1.00
H496   H     0.40287   0.50398   0.10551   0.00000  Uiso   1.00
H497   H     0.41588   0.44338   0.11687   0.00000  Uiso   1.00
H498   H     0.42851   0.48873   0.15434   0.00000  Uiso   1.00
C499   C     0.43953   0.44398   0.38315   0.00000  Uiso   1.00
H500   H     0.45764   0.41749   0.36655   0.00000  Uiso   1.00
H501   H     0.42039   0.42304   0.40615   0.00000  Uiso   1.00
H502   H     0.41977   0.46156   0.35817   0.00000  Uiso   1.00
C503   C     0.57334   0.53948   0.12246   0.00000  Uiso   1.00
H504   H     0.56700   0.54565   0.15756   0.00000  Uiso   1.00
H505   H     0.59976   0.51640   0.12399   0.00000  Uiso   1.00
H506   H     0.58145   0.57471   0.10952   0.00000  Uiso   1.00
C507   C     0.38726   0.48627   0.45172   0.00000  Uiso   1.00
H508   H     0.39050   0.50296   0.41869   0.00000  Uiso   1.00
H509   H     0.36998   0.45255   0.44789   0.00000  Uiso   1.00
H510   H     0.36893   0.51085   0.47050   0.00000  Uiso   1.00
C511   C     0.61691   0.53082   0.04042   0.00000  Uiso   1.00
H512   H     0.62111   0.49835   0.05971   0.00000  Uiso   1.00
H513   H     0.63887   0.52872   0.01306   0.00000  Uiso   1.00
H514   H     0.62635   0.56256   0.05918   0.00000  Uiso   1.00
O515   O     0.40323   0.43872   0.03907   0.00000  Uiso   1.00
C516   C     0.36304   0.45476   0.04298   0.00000  Uiso   1.00
H517   H     0.34287   0.44088   0.01572   0.00000  Uiso   1.00
H518   H     0.36189   0.49331   0.04471   0.00000  Uiso   1.00
H519   H     0.35009   0.44056   0.07416   0.00000  Uiso   1.00
O520   O     0.59943   0.56847   0.45733   0.00000  Uiso   1.00
C521   C     0.59223   0.61596   0.46422   0.00000  Uiso   1.00
H522   H     0.59542   0.62506   0.49996   0.00000  Uiso   1.00
H523   H     0.56148   0.62545   0.45091   0.00000  Uiso   1.00
H524   H     0.61556   0.63717   0.44614   0.00000  Uiso   1.00
C525   C     0.36838   0.40970   0.26602   0.00000  Uiso   1.00
H526   H     0.38459   0.41109   0.29878   0.00000  Uiso   1.00
H527   H     0.34300   0.38313   0.26890   0.00000  Uiso   1.00
H528   H     0.38948   0.39789   0.24109   0.00000  Uiso   1.00
C529   C     0.62804   0.58874   0.27392   0.00000  Uiso   1.00
H530   H     0.61239   0.59980   0.24272   0.00000  Uiso   1.00
H531   H     0.60605   0.58590   0.30133   0.00000  Uiso   1.00
H532   H     0.64995   0.61795   0.28186   0.00000  Uiso   1.00
C533   C     0.62585   0.42384   0.21089   0.00000  Uiso   1.00
H534   H     0.60609   0.43962   0.18477   0.00000  Uiso   1.00
H535   H     0.64959   0.40482   0.19325   0.00000  Uiso   1.00
H536   H     0.60753   0.39827   0.23039   0.00000  Uiso   1.00
C537   C     0.38066   0.57581   0.30258   0.00000  Uiso   1.00
H538   H     0.40892   0.56231   0.31850   0.00000  Uiso   1.00
H539   H     0.38881   0.60633   0.28137   0.00000  Uiso   1.00
H540   H     0.36205   0.58691   0.33074   0.00000  Uiso   1.00
O541   O     0.45625   0.38267   0.18616   0.00000  Uiso   1.00
C542   C     0.41904   0.35942   0.17251   0.00000  Uiso   1.00
H543   H     0.40651   0.33444   0.19760   0.00000  Uiso   1.00
H544   H     0.42290   0.34165   0.14044   0.00000  Uiso   1.00
H545   H     0.39544   0.38567   0.16642   0.00000  Uiso   1.00
O546   O     0.53121   0.62038   0.32235   0.00000  Uiso   1.00
C547   C     0.50461   0.62979   0.35736   0.00000  Uiso   1.00
H548   H     0.47199   0.62061   0.34834   0.00000  Uiso   1.00
H549   H     0.50761   0.33333   0.36811   0.00000  Uiso   1.00
H550   H     0.51308   0.60823   0.38644   0.00000  Uiso   1.00
O551   O     0.54387   0.38524   0.31334   0.00000  Uiso   1.00
C552   C     0.58424   0.36939   0.31912   0.00000  Uiso   1.00
H553   H     0.59532   0.34959   0.29042   0.00000  Uiso   1.00
H554   H     0.58634   0.34766   0.34957   0.00000  Uiso   1.00
H555   H     0.60544   0.40011   0.32390   0.00000  Uiso   1.00
O556   O     0.47015   0.61813   0.17730   0.00000  Uiso   1.00
C557   C     0.49793   0.62922   0.14314   0.00000  Uiso   1.00
H558   H     0.53018   0.62247   0.15356   0.00000  Uiso   1.00
H559   H     0.49581   0.66597   0.13193   0.00000  Uiso   1.00
H560   H     0.49000   0.60681   0.11417   0.00000  Uiso   1.00
O561   O     0.77321   0.53958   0.24999   0.00000  Uiso   1.00
O562   O     0.89345   0.46042   0.25000   0.00000  Uiso   1.00
O563   O     0.89345   0.53958   0.25000   0.00000  Uiso   1.00
O564   O     0.77321   0.46042   0.24999   0.00000  Uiso   1.00
C565   C     0.75452   0.49921   0.25528   0.00000  Uiso   1.00
C566   C     0.91286   0.50092   0.24914   0.00000  Uiso   1.00
O567   O     0.83332   0.53960   0.18513   0.00000  Uiso   1.00
O568   O     0.83334   0.46040   0.31487   0.00000  Uiso   1.00
O569   O     0.83334   0.53960   0.31487   0.00000  Uiso   1.00
O570   O     0.83332   0.46040   0.18513   0.00000  Uiso   1.00
C571   C     0.83530   0.50029   0.16481   0.00000  Uiso   1.00
C572   C     0.83287   0.49973   0.33534   0.00000  Uiso   1.00
Cu573  Cu    0.83333   0.54689   0.25000   0.00000  Uiso   1.00
Cu574  Cu    0.83333   0.45311   0.25000   0.00000  Uiso   1.00
C575   C     0.86926   0.51887   0.40618   0.00000  Uiso   1.00
C576   C     0.79918   0.48799   0.09314   0.00000  Uiso   1.00
C577   C     0.83464   0.49923   0.38359   0.00000  Uiso   1.00
C578   C     0.83551   0.50130   0.11657   0.00000  Uiso   1.00
C579   C     0.80146   0.47943   0.40667   0.00000  Uiso   1.00
C580   C     0.87110   0.51781   0.09483   0.00000  Uiso   1.00
C581   C     0.79869   0.48813   0.45249   0.00000  Uiso   1.00
C582   C     0.87128   0.51796   0.04756   0.00000  Uiso   1.00
C583   C     0.83400   0.50489   0.47639   0.00000  Uiso   1.00
C584   C     0.83447   0.50434   0.02351   0.00000  Uiso   1.00
C585   C     0.86865   0.52249   0.45311   0.00000  Uiso   1.00
C586   C     0.79888   0.48747   0.04611   0.00000  Uiso   1.00
C587   C     0.76177   0.47980   0.47508   0.00000  Uiso   1.00
C588   C     0.90644   0.53237   0.02290   0.00000  Uiso   1.00
C589   C     0.76323   0.47235   0.02115   0.00000  Uiso   1.00
C590   C     0.90212   0.54215   0.47766   0.00000  Uiso   1.00
C591   C     0.68620   0.45725   0.25403   0.00000  Uiso   1.00
C592   C     0.98126   0.54230   0.26709   0.00000  Uiso   1.00
C593   C     0.97865   0.46135   0.24061   0.00000  Uiso   1.00
C594   C     0.69050   0.53878   0.27547   0.00000  Uiso   1.00
C595   C     0.95823   0.50254   0.25060   0.00000  Uiso   1.00
C596   C     0.71003   0.49789   0.26309   0.00000  Uiso   1.00
C597   C     0.81193   0.35786   0.21777   0.00000  Uiso   1.00
C598   C     0.85062   0.64285   0.28468   0.00000  Uiso   1.00
C599   C     0.85482   0.35929   0.28188   0.00000  Uiso   1.00
C600   C     0.81643   0.64168   0.21509   0.00000  Uiso   1.00
N601   N     0.83333   0.61736   0.25000   0.00000  Uiso   1.00
N602   N     0.83333   0.38264   0.25000   0.00000  Uiso   1.00
C603   C     0.90829   0.52951   0.38053   0.00000  Uiso   1.00
H604   H     0.93469   0.51236   0.39684   0.00000  Uiso   1.00
H605   H     0.90735   0.51580   0.34632   0.00000  Uiso   1.00
H606   H     0.91431   0.56766   0.37820   0.00000  Uiso   1.00
C607   C     0.75967   0.48032   0.11864   0.00000  Uiso   1.00
H608   H     0.73620   0.50398   0.10551   0.00000  Uiso   1.00
H609   H     0.74922   0.44338   0.11687   0.00000  Uiso   1.00
H610   H     0.76185   0.48873   0.15434   0.00000  Uiso   1.00
C611   C     0.77286   0.44398   0.38315   0.00000  Uiso   1.00
H612   H     0.79097   0.41749   0.36655   0.00000  Uiso   1.00
H613   H     0.75372   0.42304   0.40615   0.00000  Uiso   1.00
H614   H     0.75310   0.46156   0.35817   0.00000  Uiso   1.00
C615   C     0.90668   0.53948   0.12246   0.00000  Uiso   1.00
H616   H     0.90033   0.54565   0.15756   0.00000  Uiso   1.00
H617   H     0.93309   0.51640   0.12399   0.00000  Uiso   1.00
H618   H     0.91479   0.57471   0.10952   0.00000  Uiso   1.00
C619   C     0.72059   0.48627   0.45172   0.00000  Uiso   1.00
H620   H     0.72383   0.50296   0.41869   0.00000  Uiso   1.00
H621   H     0.70331   0.45255   0.44789   0.00000  Uiso   1.00
H622   H     0.70226   0.51085   0.47050   0.00000  Uiso   1.00
C623   C     0.95024   0.53082   0.04042   0.00000  Uiso   1.00
H624   H     0.95444   0.49835   0.05971   0.00000  Uiso   1.00
H625   H     0.97221   0.52872   0.01306   0.00000  Uiso   1.00
H626   H     0.95968   0.56256   0.05918   0.00000  Uiso   1.00
O627   O     0.73656   0.43872   0.03907   0.00000  Uiso   1.00
C628   C     0.69637   0.45476   0.04298   0.00000  Uiso   1.00
H629   H     0.67620   0.44088   0.01572   0.00000  Uiso   1.00
H630   H     0.69523   0.49331   0.04471   0.00000  Uiso   1.00
H631   H     0.68342   0.44056   0.07416   0.00000  Uiso   1.00
O632   O     0.93276   0.56847   0.45733   0.00000  Uiso   1.00
C633   C     0.92557   0.61596   0.46422   0.00000  Uiso   1.00
H634   H     0.92875   0.62506   0.49996   0.00000  Uiso   1.00
H635   H     0.89482   0.62545   0.45091   0.00000  Uiso   1.00
H636   H     0.94890   0.63717   0.44614   0.00000  Uiso   1.00
C637   C     0.70171   0.40970   0.26602   0.00000  Uiso   1.00
H638   H     0.71792   0.41109   0.29878   0.00000  Uiso   1.00
H639   H     0.67633   0.38313   0.26890   0.00000  Uiso   1.00
H640   H     0.72281   0.39789   0.24109   0.00000  Uiso   1.00
C641   C     0.96137   0.58874   0.27392   0.00000  Uiso   1.00
H642   H     0.94573   0.59980   0.24272   0.00000  Uiso   1.00
H643   H     0.93938   0.58590   0.30133   0.00000  Uiso   1.00
H644   H     0.98328   0.61795   0.28186   0.00000  Uiso   1.00
C645   C     0.95919   0.42384   0.21089   0.00000  Uiso   1.00
H646   H     0.93942   0.43962   0.18477   0.00000  Uiso   1.00
H647   H     0.98293   0.40482   0.19325   0.00000  Uiso   1.00
H648   H     0.94086   0.39827   0.23039   0.00000  Uiso   1.00
C649   C     0.71399   0.57581   0.30258   0.00000  Uiso   1.00
H650   H     0.74225   0.56231   0.31850   0.00000  Uiso   1.00
H651   H     0.72214   0.60633   0.28137   0.00000  Uiso   1.00
H652   H     0.69538   0.58691   0.33074   0.00000  Uiso   1.00
O653   O     0.78959   0.38267   0.18616   0.00000  Uiso   1.00
C654   C     0.75237   0.35942   0.17251   0.00000  Uiso   1.00
H655   H     0.73984   0.33444   0.19760   0.00000  Uiso   1.00
H656   H     0.75623   0.34165   0.14044   0.00000  Uiso   1.00
H657   H     0.72877   0.38567   0.16642   0.00000  Uiso   1.00
O658   O     0.86454   0.62038   0.32235   0.00000  Uiso   1.00
C659   C     0.83794   0.62979   0.35736   0.00000  Uiso   1.00
H660   H     0.80533   0.62061   0.34834   0.00000  Uiso   1.00
H661   H     0.84094   0.33333   0.36811   0.00000  Uiso   1.00
H662   H     0.84641   0.60823   0.38644   0.00000  Uiso   1.00
O663   O     0.87720   0.38524   0.31334   0.00000  Uiso   1.00
C664   C     0.91757   0.36939   0.31912   0.00000  Uiso   1.00
H665   H     0.92866   0.34959   0.29042   0.00000  Uiso   1.00
H666   H     0.91968   0.34766   0.34957   0.00000  Uiso   1.00
H667   H     0.93877   0.40011   0.32390   0.00000  Uiso   1.00
O668   O     0.80348   0.61813   0.17730   0.00000  Uiso   1.00
C669   C     0.83126   0.62922   0.14314   0.00000  Uiso   1.00
H670   H     0.86351   0.62247   0.15356   0.00000  Uiso   1.00
H671   H     0.82914   0.66597   0.13193   0.00000  Uiso   1.00
H672   H     0.82333   0.60681   0.11417   0.00000  Uiso   1.00
O673   O     0.10655   0.87291   0.24999   0.00000  Uiso   1.00
O674   O     0.22679   0.79375   0.25000   0.00000  Uiso   1.00
O675   O     0.22679   0.87291   0.25000   0.00000  Uiso   1.00
O676   O     0.10655   0.79375   0.24999   0.00000  Uiso   1.00
C677   C     0.08785   0.83254   0.25528   0.00000  Uiso   1.00
C678   C     0.24619   0.83425   0.24914   0.00000  Uiso   1.00
O679   O     0.16666   0.87293   0.18513   0.00000  Uiso   1.00
O680   O     0.16668   0.79373   0.31487   0.00000  Uiso   1.00
O681   O     0.16668   0.87293   0.31487   0.00000  Uiso   1.00
O682   O     0.16666   0.79373   0.18513   0.00000  Uiso   1.00
C683   C     0.16863   0.83362   0.16481   0.00000  Uiso   1.00
C684   C     0.16621   0.83306   0.33534   0.00000  Uiso   1.00
Cu685  Cu    0.16667   0.88022   0.25000   0.00000  Uiso   1.00
Cu686  Cu    0.16667   0.78645   0.25000   0.00000  Uiso   1.00
C687   C     0.20259   0.85220   0.40618   0.00000  Uiso   1.00
C688   C     0.13252   0.82132   0.09314   0.00000  Uiso   1.00
C689   C     0.16798   0.83257   0.38359   0.00000  Uiso   1.00
C690   C     0.16884   0.83463   0.11657   0.00000  Uiso   1.00
C691   C     0.13479   0.81276   0.40667   0.00000  Uiso   1.00
C692   C     0.20444   0.85115   0.09483   0.00000  Uiso   1.00
C693   C     0.13202   0.82146   0.45249   0.00000  Uiso   1.00
C694   C     0.20462   0.85129   0.04756   0.00000  Uiso   1.00
C695   C     0.16733   0.83823   0.47639   0.00000  Uiso   1.00
C696   C     0.16780   0.83767   0.02351   0.00000  Uiso   1.00
C697   C     0.20198   0.85582   0.45311   0.00000  Uiso   1.00
C698   C     0.13222   0.82080   0.04611   0.00000  Uiso   1.00
C699   C     0.09510   0.81313   0.47508   0.00000  Uiso   1.00
C700   C     0.23977   0.86570   0.02290   0.00000  Uiso   1.00
C701   C     0.09656   0.80568   0.02115   0.00000  Uiso   1.00
C702   C     0.23545   0.87548   0.47766   0.00000  Uiso   1.00
C703   C     0.01954   0.79058   0.25403   0.00000  Uiso   1.00
C704   C     0.31459   0.87563   0.26709   0.00000  Uiso   1.00
C705   C     0.31198   0.79468   0.24061   0.00000  Uiso   1.00
C706   C     0.02384   0.87211   0.27547   0.00000  Uiso   1.00
C707   C     0.29156   0.83587   0.25060   0.00000  Uiso   1.00
C708   C     0.04337   0.83123   0.26309   0.00000  Uiso   1.00
C709   C     0.14526   0.69119   0.21777   0.00000  Uiso   1.00
C710   C     0.18395   0.97618   0.28468   0.00000  Uiso   1.00
C711   C     0.18816   0.69262   0.28188   0.00000  Uiso   1.00
C712   C     0.14976   0.97501   0.21509   0.00000  Uiso   1.00
N713   N     0.16667   0.95069   0.25000   0.00000  Uiso   1.00
N714   N     0.16667   0.71598   0.25000   0.00000  Uiso   1.00
C715   C     0.24162   0.86285   0.38053   0.00000  Uiso   1.00
H716   H     0.26802   0.84569   0.39684   0.00000  Uiso   1.00
H717   H     0.24068   0.84913   0.34632   0.00000  Uiso   1.00
H718   H     0.24764   0.90099   0.37820   0.00000  Uiso   1.00
C719   C     0.09300   0.81365   0.11864   0.00000  Uiso   1.00
H720   H     0.06954   0.83732   0.10551   0.00000  Uiso   1.00
H721   H     0.08255   0.77672   0.11687   0.00000  Uiso   1.00
H722   H     0.09518   0.82207   0.15434   0.00000  Uiso   1.00
C723   C     0.10620   0.77732   0.38315   0.00000  Uiso   1.00
H724   H     0.12431   0.75082   0.36655   0.00000  Uiso   1.00
H725   H     0.08705   0.75637   0.40615   0.00000  Uiso   1.00
H726   H     0.08643   0.79489   0.35817   0.00000  Uiso   1.00
C727   C     0.24001   0.87281   0.12246   0.00000  Uiso   1.00
H728   H     0.23367   0.87898   0.15756   0.00000  Uiso   1.00
H729   H     0.26642   0.84973   0.12399   0.00000  Uiso   1.00
H730   H     0.24812   0.90804   0.10952   0.00000  Uiso   1.00
C731   C     0.05392   0.81961   0.45172   0.00000  Uiso   1.00
H732   H     0.05717   0.83629   0.41869   0.00000  Uiso   1.00
H733   H     0.03665   0.78588   0.44789   0.00000  Uiso   1.00
H734   H     0.03560   0.84419   0.47050   0.00000  Uiso   1.00
C735   C     0.28358   0.86415   0.04042   0.00000  Uiso   1.00
H736   H     0.28777   0.83169   0.05971   0.00000  Uiso   1.00
H737   H     0.30554   0.86205   0.01306   0.00000  Uiso   1.00
H738   H     0.29301   0.89589   0.05918   0.00000  Uiso   1.00
O739   O     0.06989   0.77205   0.03907   0.00000  Uiso   1.00
C740   C     0.02971   0.78809   0.04298   0.00000  Uiso   1.00
H741   H     0.00953   0.77421   0.01572   0.00000  Uiso   1.00
H742   H     0.02856   0.82664   0.04471   0.00000  Uiso   1.00
H743   H     0.01676   0.77389   0.07416   0.00000  Uiso   1.00
O744   O     0.26609   0.90181   0.45733   0.00000  Uiso   1.00
C745   C     0.25890   0.94929   0.46422   0.00000  Uiso   1.00
H746   H     0.26209   0.95840   0.49996   0.00000  Uiso   1.00
H747   H     0.22815   0.95878   0.45091   0.00000  Uiso   1.00
H748   H     0.28223   0.97050   0.44614   0.00000  Uiso   1.00
C749   C     0.03505   0.74303   0.26602   0.00000  Uiso   1.00
H750   H     0.05126   0.74442   0.29878   0.00000  Uiso   1.00
H751   H     0.00966   0.71646   0.26890   0.00000  Uiso   1.00
H752   H     0.05614   0.73122   0.24109   0.00000  Uiso   1.00
C753   C     0.29471   0.92207   0.27392   0.00000  Uiso   1.00
H754   H     0.27906   0.93313   0.24272   0.00000  Uiso   1.00
H755   H     0.27272   0.91923   0.30133   0.00000  Uiso   1.00
H756   H     0.31661   0.95128   0.28186   0.00000  Uiso   1.00
C757   C     0.29252   0.75718   0.21089   0.00000  Uiso   1.00
H758   H     0.27275   0.77296   0.18477   0.00000  Uiso   1.00
H759   H     0.31626   0.73816   0.19325   0.00000  Uiso   1.00
H760   H     0.27420   0.73161   0.23039   0.00000  Uiso   1.00
C761   C     0.04733   0.90914   0.30258   0.00000  Uiso   1.00
H762   H     0.07558   0.89564   0.31850   0.00000  Uiso   1.00
H763   H     0.05547   0.93967   0.28137   0.00000  Uiso   1.00
H764   H     0.02872   0.92024   0.33074   0.00000  Uiso   1.00
O765   O     0.12292   0.71600   0.18616   0.00000  Uiso   1.00
C766   C     0.08571   0.69275   0.17251   0.00000  Uiso   1.00
H767   H     0.07318   0.66777   0.19760   0.00000  Uiso   1.00
H768   H     0.08957   0.67498   0.14044   0.00000  Uiso   1.00
H769   H     0.06211   0.71900   0.16642   0.00000  Uiso   1.00
O770   O     0.19788   0.95371   0.32235   0.00000  Uiso   1.00
C771   C     0.17128   0.96312   0.35736   0.00000  Uiso   1.00
H772   H     0.13866   0.95394   0.34834   0.00000  Uiso   1.00
H773   H     0.17427   0.66667   0.36811   0.00000  Uiso   1.00
H774   H     0.17975   0.94156   0.38644   0.00000  Uiso   1.00
O775   O     0.21053   0.71858   0.31334   0.00000  Uiso   1.00
C776   C     0.25090   0.70272   0.31912   0.00000  Uiso   1.00
H777   H     0.26199   0.68292   0.29042   0.00000  Uiso   1.00
H778   H     0.25301   0.68099   0.34957   0.00000  Uiso   1.00
H779   H     0.27211   0.73344   0.32390   0.00000  Uiso   1.00
O780   O     0.13682   0.95147   0.17730   0.00000  Uiso   1.00
C781   C     0.16460   0.96256   0.14314   0.00000  Uiso   1.00
H782   H     0.19684   0.95581   0.15356   0.00000  Uiso   1.00
H783   H     0.16248   0.99930   0.13193   0.00000  Uiso   1.00
H784   H     0.15666   0.94014   0.11417   0.00000  Uiso   1.00
O785   O     0.43988   0.87291   0.24999   0.00000  Uiso   1.00
O786   O     0.56012   0.79375   0.25000   0.00000  Uiso   1.00
O787   O     0.56012   0.87291   0.25000   0.00000  Uiso   1.00
O788   O     0.43988   0.79375   0.24999   0.00000  Uiso   1.00
C789   C     0.42119   0.83254   0.25528   0.00000  Uiso   1.00
C790   C     0.57952   0.83425   0.24914   0.00000  Uiso   1.00
O791   O     0.49999   0.87293   0.18513   0.00000  Uiso   1.00
O792   O     0.50001   0.79373   0.31487   0.00000  Uiso   1.00
O793   O     0.50001   0.87293   0.31487   0.00000  Uiso   1.00
O794   O     0.49999   0.79373   0.18513   0.00000  Uiso   1.00
C795   C     0.50197   0.83362   0.16481   0.00000  Uiso   1.00
C796   C     0.49954   0.83306   0.33534   0.00000  Uiso   1.00
Cu797  Cu    0.50000   0.88022   0.25000   0.00000  Uiso   1.00
Cu798  Cu    0.50000   0.78645   0.25000   0.00000  Uiso   1.00
C799   C     0.53593   0.85220   0.40618   0.00000  Uiso   1.00
C800   C     0.46585   0.82132   0.09314   0.00000  Uiso   1.00
C801   C     0.50131   0.83257   0.38359   0.00000  Uiso   1.00
C802   C     0.50217   0.83463   0.11657   0.00000  Uiso   1.00
C803   C     0.46812   0.81276   0.40667   0.00000  Uiso   1.00
C804   C     0.53777   0.85115   0.09483   0.00000  Uiso   1.00
C805   C     0.46536   0.82146   0.45249   0.00000  Uiso   1.00
C806   C     0.53795   0.85129   0.04756   0.00000  Uiso   1.00
C807   C     0.50066   0.83823   0.47639   0.00000  Uiso   1.00
C808   C     0.50113   0.83767   0.02351   0.00000  Uiso   1.00
C809   C     0.53532   0.85582   0.45311   0.00000  Uiso   1.00
C810   C     0.46555   0.82080   0.04611   0.00000  Uiso   1.00
C811   C     0.42843   0.81313   0.47508   0.00000  Uiso   1.00
C812   C     0.57310   0.86570   0.02290   0.00000  Uiso   1.00
C813   C     0.42990   0.80568   0.02115   0.00000  Uiso   1.00
C814   C     0.56879   0.87548   0.47766   0.00000  Uiso   1.00
C815   C     0.35287   0.79058   0.25403   0.00000  Uiso   1.00
C816   C     0.64793   0.87563   0.26709   0.00000  Uiso   1.00
C817   C     0.64531   0.79468   0.24061   0.00000  Uiso   1.00
C818   C     0.35717   0.87211   0.27547   0.00000  Uiso   1.00
C819   C     0.62489   0.83587   0.25060   0.00000  Uiso   1.00
C820   C     0.37670   0.83123   0.26309   0.00000  Uiso   1.00
C821   C     0.47860   0.69119   0.21777   0.00000  Uiso   1.00
C822   C     0.51729   0.97618   0.28468   0.00000  Uiso   1.00
C823   C     0.52149   0.69262   0.28188   0.00000  Uiso   1.00
C824   C     0.48310   0.97501   0.21509   0.00000  Uiso   1.00
N825   N     0.50000   0.95069   0.25000   0.00000  Uiso   1.00
N826   N     0.50000   0.71598   0.25000   0.00000  Uiso   1.00
C827   C     0.57496   0.86285   0.38053   0.00000  Uiso   1.00
H828   H     0.60136   0.84569   0.39684   0.00000  Uiso   1.00
H829   H     0.57401   0.84913   0.34632   0.00000  Uiso   1.00
H830   H     0.58098   0.90099   0.37820   0.00000  Uiso   1.00
C831   C     0.42633   0.81365   0.11864   0.00000  Uiso   1.00
H832   H     0.40287   0.83732   0.10551   0.00000  Uiso   1.00
H833   H     0.41588   0.77672   0.11687   0.00000  Uiso   1.00
H834   H     0.42851   0.82207   0.15434   0.00000  Uiso   1.00
C835   C     0.43953   0.77732   0.38315   0.00000  Uiso   1.00
H836   H     0.45764   0.75082   0.36655   0.00000  Uiso   1.00
H837   H     0.42039   0.75637   0.40615   0.00000  Uiso   1.00
H838   H     0.41977   0.79489   0.35817   0.00000  Uiso   1.00
C839   C     0.57334   0.87281   0.12246   0.00000  Uiso   1.00
H840   H     0.56700   0.87898   0.15756   0.00000  Uiso   1.00
H841   H     0.59976   0.84973   0.12399   0.00000  Uiso   1.00
H842   H     0.58145   0.90804   0.10952   0.00000  Uiso   1.00
C843   C     0.38726   0.81961   0.45172   0.00000  Uiso   1.00
H844   H     0.39050   0.83629   0.41869   0.00000  Uiso   1.00
H845   H     0.36998   0.78588   0.44789   0.00000  Uiso   1.00
H846   H     0.36893   0.84419   0.47050   0.00000  Uiso   1.00
C847   C     0.61691   0.86415   0.04042   0.00000  Uiso   1.00
H848   H     0.62111   0.83169   0.05971   0.00000  Uiso   1.00
H849   H     0.63887   0.86205   0.01306   0.00000  Uiso   1.00
H850   H     0.62635   0.89589   0.05918   0.00000  Uiso   1.00
O851   O     0.40323   0.77205   0.03907   0.00000  Uiso   1.00
C852   C     0.36304   0.78809   0.04298   0.00000  Uiso   1.00
H853   H     0.34287   0.77421   0.01572   0.00000  Uiso   1.00
H854   H     0.36189   0.82664   0.04471   0.00000  Uiso   1.00
H855   H     0.35009   0.77389   0.07416   0.00000  Uiso   1.00
O856   O     0.59943   0.90181   0.45733   0.00000  Uiso   1.00
C857   C     0.59223   0.94929   0.46422   0.00000  Uiso   1.00
H858   H     0.59542   0.95840   0.49996   0.00000  Uiso   1.00
H859   H     0.56148   0.95878   0.45091   0.00000  Uiso   1.00
H860   H     0.61556   0.97050   0.44614   0.00000  Uiso   1.00
C861   C     0.36838   0.74303   0.26602   0.00000  Uiso   1.00
H862   H     0.38459   0.74442   0.29878   0.00000  Uiso   1.00
H863   H     0.34300   0.71646   0.26890   0.00000  Uiso   1.00
H864   H     0.38948   0.73122   0.24109   0.00000  Uiso   1.00
C865   C     0.62804   0.92207   0.27392   0.00000  Uiso   1.00
H866   H     0.61239   0.93313   0.24272   0.00000  Uiso   1.00
H867   H     0.60605   0.91923   0.30133   0.00000  Uiso   1.00
H868   H     0.64995   0.95128   0.28186   0.00000  Uiso   1.00
C869   C     0.62585   0.75718   0.21089   0.00000  Uiso   1.00
H870   H     0.60609   0.77296   0.18477   0.00000  Uiso   1.00
H871   H     0.64959   0.73816   0.19325   0.00000  Uiso   1.00
H872   H     0.60753   0.73161   0.23039   0.00000  Uiso   1.00
C873   C     0.38066   0.90914   0.30258   0.00000  Uiso   1.00
H874   H     0.40892   0.89564   0.31850   0.00000  Uiso   1.00
H875   H     0.38881   0.93967   0.28137   0.00000  Uiso   1.00
H876   H     0.36205   0.92024   0.33074   0.00000  Uiso   1.00
O877   O     0.45625   0.71600   0.18616   0.00000  Uiso   1.00
C878   C     0.41904   0.69275   0.17251   0.00000  Uiso   1.00
H879   H     0.40651   0.66777   0.19760   0.00000  Uiso   1.00
H880   H     0.42290   0.67498   0.14044   0.00000  Uiso   1.00
H881   H     0.39544   0.71900   0.16642   0.00000  Uiso   1.00
O882   O     0.53121   0.95371   0.32235   0.00000  Uiso   1.00
C883   C     0.50461   0.96312   0.35736   0.00000  Uiso   1.00
H884   H     0.47199   0.95394   0.34834   0.00000  Uiso   1.00
H885   H     0.50761   0.66667   0.36811   0.00000  Uiso   1.00
H886   H     0.51308   0.94156   0.38644   0.00000  Uiso   1.00
O887   O     0.54387   0.71858   0.31334   0.00000  Uiso   1.00
C888   C     0.58424   0.70272   0.31912   0.00000  Uiso   1.00
H889   H     0.59532   0.68292   0.29042   0.00000  Uiso   1.00
H890   H     0.58634   0.68099   0.34957   0.00000  Uiso   1.00
H891   H     0.60544   0.73344   0.32390   0.00000  Uiso   1.00
O892   O     0.47015   0.95147   0.17730   0.00000  Uiso   1.00
C893   C     0.49793   0.96256   0.14314   0.00000  Uiso   1.00
H894   H     0.53018   0.95581   0.15356   0.00000  Uiso   1.00
H895   H     0.49581   0.99930   0.13193   0.00000  Uiso   1.00
H896   H     0.49000   0.94014   0.11417   0.00000  Uiso   1.00
O897   O     0.77321   0.87291   0.24999   0.00000  Uiso   1.00
O898   O     0.89345   0.79375   0.25000   0.00000  Uiso   1.00
O899   O     0.89345   0.87291   0.25000   0.00000  Uiso   1.00
O900   O     0.77321   0.79375   0.24999   0.00000  Uiso   1.00
C901   C     0.75452   0.83254   0.25528   0.00000  Uiso   1.00
C902   C     0.91286   0.83425   0.24914   0.00000  Uiso   1.00
O903   O     0.83332   0.87293   0.18513   0.00000  Uiso   1.00
O904   O     0.83334   0.79373   0.31487   0.00000  Uiso   1.00
O905   O     0.83334   0.87293   0.31487   0.00000  Uiso   1.00
O906   O     0.83332   0.79373   0.18513   0.00000  Uiso   1.00
C907   C     0.83530   0.83362   0.16481   0.00000  Uiso   1.00
C908   C     0.83287   0.83306   0.33534   0.00000  Uiso   1.00
Cu909  Cu    0.83333   0.88022   0.25000   0.00000  Uiso   1.00
Cu910  Cu    0.83333   0.78645   0.25000   0.00000  Uiso   1.00
C911   C     0.86926   0.85220   0.40618   0.00000  Uiso   1.00
C912   C     0.79918   0.82132   0.09314   0.00000  Uiso   1.00
C913   C     0.83464   0.83257   0.38359   0.00000  Uiso   1.00
C914   C     0.83551   0.83463   0.11657   0.00000  Uiso   1.00
C915   C     0.80146   0.81276   0.40667   0.00000  Uiso   1.00
C916   C     0.87110   0.85115   0.09483   0.00000  Uiso   1.00
C917   C     0.79869   0.82146   0.45249   0.00000  Uiso   1.00
C918   C     0.87128   0.85129   0.04756   0.00000  Uiso   1.00
C919   C     0.83400   0.83823   0.47639   0.00000  Uiso   1.00
C920   C     0.83447   0.83767   0.02351   0.00000  Uiso   1.00
C921   C     0.86865   0.85582   0.45311   0.00000  Uiso   1.00
C922   C     0.79888   0.82080   0.04611   0.00000  Uiso   1.00
C923   C     0.76177   0.81313   0.47508   0.00000  Uiso   1.00
C924   C     0.90644   0.86570   0.02290   0.00000  Uiso   1.00
C925   C     0.76323   0.80568   0.02115   0.00000  Uiso   1.00
C926   C     0.90212   0.87548   0.47766   0.00000  Uiso   1.00
C927   C     0.68620   0.79058   0.25403   0.00000  Uiso   1.00
C928   C     0.98126   0.87563   0.26709   0.00000  Uiso   1.00
C929   C     0.97865   0.79468   0.24061   0.00000  Uiso   1.00
C930   C     0.69050   0.87211   0.27547   0.00000  Uiso   1.00
C931   C     0.95823   0.83587   0.25060   0.00000  Uiso   1.00
C932   C     0.71003   0.83123   0.26309   0.00000  Uiso   1.00
C933   C     0.81193   0.69119   0.21777   0.00000  Uiso   1.00
C934   C     0.85062   0.97618   0.28468   0.00000  Uiso   1.00
C935   C     0.85482   0.69262   0.28188   0.00000  Uiso   1.00
C936   C     0.81643   0.97501   0.21509   0.00000  Uiso   1.00
N937   N     0.83333   0.95069   0.25000   0.00000  Uiso   1.00
N938   N     0.83333   0.71598   0.25000   0.00000  Uiso   1.00
C939   C     0.90829   0.86285   0.38053   0.00000  Uiso   1.00
H940   H     0.93469   0.84569   0.39684   0.00000  Uiso   1.00
H941   H     0.90735   0.84913   0.34632   0.00000  Uiso   1.00
H942   H     0.91431   0.90099   0.37820   0.00000  Uiso   1.00
C943   C     0.75967   0.81365   0.11864   0.00000  Uiso   1.00
H944   H     0.73620   0.83732   0.10551   0.00000  Uiso   1.00
H945   H     0.74922   0.77672   0.11687   0.00000  Uiso   1.00
H946   H     0.76185   0.82207   0.15434   0.00000  Uiso   1.00
C947   C     0.77286   0.77732   0.38315   0.00000  Uiso   1.00
H948   H     0.79097   0.75082   0.36655   0.00000  Uiso   1.00
H949   H     0.75372   0.75637   0.40615   0.00000  Uiso   1.00
H950   H     0.75310   0.79489   0.35817   0.00000  Uiso   1.00
C951   C     0.90668   0.87281   0.12246   0.00000  Uiso   1.00
H952   H     0.90033   0.87898   0.15756   0.00000  Uiso   1.00
H953   H     0.93309   0.84973   0.12399   0.00000  Uiso   1.00
H954   H     0.91479   0.90804   0.10952   0.00000  Uiso   1.00
C955   C     0.72059   0.81961   0.45172   0.00000  Uiso   1.00
H956   H     0.72383   0.83629   0.41869   0.00000  Uiso   1.00
H957   H     0.70331   0.78588   0.44789   0.00000  Uiso   1.00
H958   H     0.70226   0.84419   0.47050   0.00000  Uiso   1.00
C959   C     0.95024   0.86415   0.04042   0.00000  Uiso   1.00
H960   H     0.95444   0.83169   0.05971   0.00000  Uiso   1.00
H961   H     0.97221   0.86205   0.01306   0.00000  Uiso   1.00
H962   H     0.95968   0.89589   0.05918   0.00000  Uiso   1.00
O963   O     0.73656   0.77205   0.03907   0.00000  Uiso   1.00
C964   C     0.69637   0.78809   0.04298   0.00000  Uiso   1.00
H965   H     0.67620   0.77421   0.01572   0.00000  Uiso   1.00
H966   H     0.69523   0.82664   0.04471   0.00000  Uiso   1.00
H967   H     0.68342   0.77389   0.07416   0.00000  Uiso   1.00
O968   O     0.93276   0.90181   0.45733   0.00000  Uiso   1.00
C969   C     0.92557   0.94929   0.46422   0.00000  Uiso   1.00
H970   H     0.92875   0.95840   0.49996   0.00000  Uiso   1.00
H971   H     0.89482   0.95878   0.45091   0.00000  Uiso   1.00
H972   H     0.94890   0.97050   0.44614   0.00000  Uiso   1.00
C973   C     0.70171   0.74303   0.26602   0.00000  Uiso   1.00
H974   H     0.71792   0.74442   0.29878   0.00000  Uiso   1.00
H975   H     0.67633   0.71646   0.26890   0.00000  Uiso   1.00
H976   H     0.72281   0.73122   0.24109   0.00000  Uiso   1.00
C977   C     0.96137   0.92207   0.27392   0.00000  Uiso   1.00
H978   H     0.94573   0.93313   0.24272   0.00000  Uiso   1.00
H979   H     0.93938   0.91923   0.30133   0.00000  Uiso   1.00
H980   H     0.98328   0.95128   0.28186   0.00000  Uiso   1.00
C981   C     0.95919   0.75718   0.21089   0.00000  Uiso   1.00
H982   H     0.93942   0.77296   0.18477   0.00000  Uiso   1.00
H983   H     0.98293   0.73816   0.19325   0.00000  Uiso   1.00
H984   H     0.94086   0.73161   0.23039   0.00000  Uiso   1.00
C985   C     0.71399   0.90914   0.30258   0.00000  Uiso   1.00
H986   H     0.74225   0.89564   0.31850   0.00000  Uiso   1.00
H987   H     0.72214   0.93967   0.28137   0.00000  Uiso   1.00
H988   H     0.69538   0.92024   0.33074   0.00000  Uiso   1.00
O989   O     0.78959   0.71600   0.18616   0.00000  Uiso   1.00
C990   C     0.75237   0.69275   0.17251   0.00000  Uiso   1.00
H991   H     0.73984   0.66777   0.19760   0.00000  Uiso   1.00
H992   H     0.75623   0.67498   0.14044   0.00000  Uiso   1.00
H993   H     0.72877   0.71900   0.16642   0.00000  Uiso   1.00
O994   O     0.86454   0.95371   0.32235   0.00000  Uiso   1.00
C995   C     0.83794   0.96312   0.35736   0.00000  Uiso   1.00
H996   H     0.80533   0.95394   0.34834   0.00000  Uiso   1.00
H997   H     0.84094   0.66667   0.36811   0.00000  Uiso   1.00
H998   H     0.84641   0.94156   0.38644   0.00000  Uiso   1.00
O999   O     0.87720   0.71858   0.31334   0.00000  Uiso   1.00
C1000  C     0.91757   0.70272   0.31912   0.00000  Uiso   1.00
H1001  H     0.92866   0.68292   0.29042   0.00000  Uiso   1.00
H1002  H     0.91968   0.68099   0.34957   0.00000  Uiso   1.00
H1003  H     0.93877   0.73344   0.32390   0.00000  Uiso   1.00
O1004  O     0.80348   0.95147   0.17730   0.00000  Uiso   1.00
C1005  C     0.83126   0.96256   0.14314   0.00000  Uiso   1.00
H1006  H     0.86351   0.95581   0.15356   0.00000  Uiso   1.00
H1007  H     0.82914   0.99930   0.13193   0.00000  Uiso   1.00
H1008  H     0.82333   0.94014   0.11417   0.00000  Uiso   1.00
O1009  O     0.10655   0.20625   0.74999   0.00000  Uiso   1.00
O1010  O     0.22679   0.12709   0.75000   0.00000  Uiso   1.00
O1011  O     0.22679   0.20625   0.75000   0.00000  Uiso   1.00
O1012  O     0.10655   0.12709   0.74999   0.00000  Uiso   1.00
C1013  C     0.08785   0.16588   0.75528   0.00000  Uiso   1.00
C1014  C     0.24619   0.16759   0.74914   0.00000  Uiso   1.00
O1015  O     0.16666   0.20627   0.68513   0.00000  Uiso   1.00
O1016  O     0.16668   0.12707   0.81487   0.00000  Uiso   1.00
O1017  O     0.16668   0.20627   0.81487   0.00000  Uiso   1.00
O1018  O     0.16666   0.12707   0.68513   0.00000  Uiso   1.00
C1019  C     0.16863   0.16695   0.66481   0.00000  Uiso   1.00
C1020  C     0.16621   0.16639   0.83534   0.00000  Uiso   1.00
Cu1021 Cu    0.16667   0.21355   0.75000   0.00000  Uiso   1.00
Cu1022 Cu    0.16667   0.11978   0.75000   0.00000  Uiso   1.00
C1023  C     0.20259   0.18554   0.90618   0.00000  Uiso   1.00
C1024  C     0.13252   0.15466   0.59314   0.00000  Uiso   1.00
C1025  C     0.16798   0.16590   0.88359   0.00000  Uiso   1.00
C1026  C     0.16884   0.16797   0.61657   0.00000  Uiso   1.00
C1027  C     0.13479   0.14610   0.90667   0.00000  Uiso   1.00
C1028  C     0.20444   0.18448   0.59483   0.00000  Uiso   1.00
C1029  C     0.13202   0.15480   0.95249   0.00000  Uiso   1.00
C1030  C     0.20462   0.18462   0.54756   0.00000  Uiso   1.00
C1031  C     0.16733   0.17156   0.97639   0.00000  Uiso   1.00
C1032  C     0.16780   0.17101   0.52351   0.00000  Uiso   1.00
C1033  C     0.20198   0.18916   0.95311   0.00000  Uiso   1.00
C1034  C     0.13222   0.15413   0.54611   0.00000  Uiso   1.00
C1035  C     0.09510   0.14646   0.97508   0.00000  Uiso   1.00
C1036  C     0.23977   0.19904   0.52290   0.00000  Uiso   1.00
C1037  C     0.09656   0.13901   0.52115   0.00000  Uiso   1.00
C1038  C     0.23545   0.20882   0.97766   0.00000  Uiso   1.00
C1039  C     0.01954   0.12391   0.75403   0.00000  Uiso   1.00
C1040  C     0.31459   0.20897   0.76709   0.00000  Uiso   1.00
C1041  C     0.31198   0.12801   0.74061   0.00000  Uiso   1.00
C1042  C     0.02384   0.20545   0.77547   0.00000  Uiso   1.00
C1043  C     0.29156   0.16920   0.75060   0.00000  Uiso   1.00
C1044  C     0.04337   0.16456   0.76309   0.00000  Uiso   1.00
C1045  C     0.14526   0.02453   0.71777   0.00000  Uiso   1.00
C1046  C     0.18395   0.30951   0.78468   0.00000  Uiso   1.00
C1047  C     0.18816   0.02596   0.78188   0.00000  Uiso   1.00
C1048  C     0.14976   0.30834   0.71509   0.00000  Uiso   1.00
N1049  N     0.16667   0.28402   0.75000   0.00000  Uiso   1.00
N1050  N     0.16667   0.04931   0.75000   0.00000  Uiso   1.00
C1051  C     0.24162   0.19618   0.88053   0.00000  Uiso   1.00
H1052  H     0.26802   0.17903   0.89684   0.00000  Uiso   1.00
H1053  H     0.24068   0.18247   0.84632   0.00000  Uiso   1.00
H1054  H     0.24764   0.23433   0.87820   0.00000  Uiso   1.00
C1055  C     0.09300   0.14699   0.61864   0.00000  Uiso   1.00
H1056  H     0.06954   0.17065   0.60551   0.00000  Uiso   1.00
H1057  H     0.08255   0.11005   0.61687   0.00000  Uiso   1.00
H1058  H     0.09518   0.15540   0.65434   0.00000  Uiso   1.00
C1059  C     0.10620   0.11065   0.88315   0.00000  Uiso   1.00
H1060  H     0.12431   0.08416   0.86655   0.00000  Uiso   1.00
H1061  H     0.08705   0.08971   0.90615   0.00000  Uiso   1.00
H1062  H     0.08643   0.12823   0.85817   0.00000  Uiso   1.00
C1063  C     0.24001   0.20615   0.62246   0.00000  Uiso   1.00
H1064  H     0.23367   0.21231   0.65756   0.00000  Uiso   1.00
H1065  H     0.26642   0.18306   0.62399   0.00000  Uiso   1.00
H1066  H     0.24812   0.24137   0.60952   0.00000  Uiso   1.00
C1067  C     0.05392   0.15294   0.95172   0.00000  Uiso   1.00
H1068  H     0.05717   0.16963   0.91869   0.00000  Uiso   1.00
H1069  H     0.03665   0.11921   0.94789   0.00000  Uiso   1.00
H1070  H     0.03560   0.17752   0.97050   0.00000  Uiso   1.00
C1071  C     0.28358   0.19748   0.54042   0.00000  Uiso   1.00
H1072  H     0.28777   0.16502   0.55971   0.00000  Uiso   1.00
H1073  H     0.30554   0.19538   0.51306   0.00000  Uiso   1.00
H1074  H     0.29301   0.22922   0.55918   0.00000  Uiso   1.00
O1075  O     0.06989   0.10538   0.53907   0.00000  Uiso   1.00
C1076  C     0.02971   0.12142   0.54298   0.00000  Uiso   1.00
H1077  H     0.00953   0.10754   0.51572   0.00000  Uiso   1.00
H1078  H     0.02856   0.15997   0.54471   0.00000  Uiso   1.00
H1079  H     0.01676   0.10723   0.57416   0.00000  Uiso   1.00
O1080  O     0.26609   0.23514   0.95733   0.00000  Uiso   1.00
C1081  C     0.25890   0.28263   0.96422   0.00000  Uiso   1.00
H1082  H     0.26209   0.29173   0.99996   0.00000  Uiso   1.00
H1083  H     0.22815   0.29211   0.95091   0.00000  Uiso   1.00
H1084  H     0.28223   0.30384   0.94614   0.00000  Uiso   1.00
C1085  C     0.03505   0.07636   0.76602   0.00000  Uiso   1.00
H1086  H     0.05126   0.07775   0.79878   0.00000  Uiso   1.00
H1087  H     0.00966   0.04979   0.76890   0.00000  Uiso   1.00
H1088  H     0.05614   0.06456   0.74109   0.00000  Uiso   1.00
C1089  C     0.29471   0.25541   0.77392   0.00000  Uiso   1.00
H1090  H     0.27906   0.26647   0.74272   0.00000  Uiso   1.00
H1091  H     0.27272   0.25256   0.80133   0.00000  Uiso   1.00
H1092  H     0.31661   0.28461   0.78186   0.00000  Uiso   1.00
C1093  C     0.29252   0.09051   0.71089   0.00000  Uiso   1.00
H1094  H     0.27275   0.10629   0.68477   0.00000  Uiso   1.00
H1095  H     0.31626   0.07149   0.69325   0.00000  Uiso   1.00
H1096  H     0.27420   0.06494   0.73039   0.00000  Uiso   1.00
C1097  C     0.04733   0.24248   0.80258   0.00000  Uiso   1.00
H1098  H     0.07558   0.22897   0.81850   0.00000  Uiso   1.00
H1099  H     0.05547   0.27300   0.78137   0.00000  Uiso   1.00
H1100  H     0.02872   0.25357   0.83074   0.00000  Uiso   1.00
O1101  O     0.12292   0.04933   0.68616   0.00000  Uiso   1.00
C1102  C     0.08571   0.02608   0.67251   0.00000  Uiso   1.00
H1103  H     0.07318   0.00111   0.69760   0.00000  Uiso   1.00
H1104  H     0.08957   0.00831   0.64044   0.00000  Uiso   1.00
H1105  H     0.06211   0.05233   0.66642   0.00000  Uiso   1.00
O1106  O     0.19788   0.28704   0.82235   0.00000  Uiso   1.00
C1107  C     0.17128   0.29646   0.85736   0.00000  Uiso   1.00
H1108  H     0.13866   0.28727   0.84834   0.00000  Uiso   1.00
H1109  H     0.17427  -0.00000   0.86811   0.00000  Uiso   1.00
H1110  H     0.17975   0.27489   0.88644   0.00000  Uiso   1.00
O1111  O     0.21053   0.05191   0.81334   0.00000  Uiso   1.00
C1112  C     0.25090   0.03605   0.81912   0.00000  Uiso   1.00
H1113  H     0.26199   0.01626   0.79042   0.00000  Uiso   1.00
H1114  H     0.25301   0.01432   0.84957   0.00000  Uiso   1.00
H1115  H     0.27211   0.06677   0.82390   0.00000  Uiso   1.00
O1116  O     0.13682   0.28480   0.67730   0.00000  Uiso   1.00
C1117  C     0.16460   0.29589   0.64314   0.00000  Uiso   1.00
H1118  H     0.19684   0.28914   0.65356   0.00000  Uiso   1.00
H1119  H     0.16248   0.33263   0.63193   0.00000  Uiso   1.00
H1120  H     0.15666   0.27348   0.61417   0.00000  Uiso   1.00
O1121  O     0.43988   0.20625   0.74999   0.00000  Uiso   1.00
O1122  O     0.56012   0.12709   0.75000   0.00000  Uiso   1.00
O1123  O     0.56012   0.20625   0.75000   0.00000  Uiso   1.00
O1124  O     0.43988   0.12709   0.74999   0.00000  Uiso   1.00
C1125  C     0.42119   0.16588   0.75528   0.00000  Uiso   1.00
C1126  C     0.57952   0.16759   0.74914   0.00000  Uiso   1.00
O1127  O     0.49999   0.20627   0.68513   0.00000  Uiso   1.00
O1128  O     0.50001   0.12707   0.81487   0.00000  Uiso   1.00
O1129  O     0.50001   0.20627   0.81487   0.00000  Uiso   1.00
O1130  O     0.49999   0.12707   0.68513   0.00000  Uiso   1.00
C1131  C     0.50197   0.16695   0.66481   0.00000  Uiso   1.00
C1132  C     0.49954   0.16639   0.83534   0.00000  Uiso   1.00
Cu1133 Cu    0.50000   0.21355   0.75000   0.00000  Uiso   1.00
Cu1134 Cu    0.50000   0.11978   0.75000   0.00000  Uiso   1.00
C1135  C     0.53593   0.18554   0.90618   0.00000  Uiso   1.00
C1136  C     0.46585   0.15466   0.59314   0.00000  Uiso   1.00
C1137  C     0.50131   0.16590   0.88359   0.00000  Uiso   1.00
C1138  C     0.50217   0.16797   0.61657   0.00000  Uiso   1.00
C1139  C     0.46812   0.14610   0.90667   0.00000  Uiso   1.00
C1140  C     0.53777   0.18448   0.59483   0.00000  Uiso   1.00
C1141  C     0.46536   0.15480   0.95249   0.00000  Uiso   1.00
C1142  C     0.53795   0.18462   0.54756   0.00000  Uiso   1.00
C1143  C     0.50066   0.17156   0.97639   0.00000  Uiso   1.00
C1144  C     0.50113   0.17101   0.52351   0.00000  Uiso   1.00
C1145  C     0.53532   0.18916   0.95311   0.00000  Uiso   1.00
C1146  C     0.46555   0.15413   0.54611   0.00000  Uiso   1.00
C1147  C     0.42843   0.14646   0.97508   0.00000  Uiso   1.00
C1148  C     0.57310   0.19904   0.52290   0.00000  Uiso   1.00
C1149  C     0.42990   0.13901   0.52115   0.00000  Uiso   1.00
C1150  C     0.56879   0.20882   0.97766   0.00000  Uiso   1.00
C1151  C     0.35287   0.12391   0.75403   0.00000  Uiso   1.00
C1152  C     0.64793   0.20897   0.76709   0.00000  Uiso   1.00
C1153  C     0.64531   0.12801   0.74061   0.00000  Uiso   1.00
C1154  C     0.35717   0.20545   0.77547   0.00000  Uiso   1.00
C1155  C     0.62489   0.16920   0.75060   0.00000  Uiso   1.00
C1156  C     0.37670   0.16456   0.76309   0.00000  Uiso   1.00
C1157  C     0.47860   0.02453   0.71777   0.00000  Uiso   1.00
C1158  C     0.51729   0.30951   0.78468   0.00000  Uiso   1.00
C1159  C     0.52149   0.02596   0.78188   0.00000  Uiso   1.00
C1160  C     0.48310   0.30834   0.71509   0.00000  Uiso   1.00
N1161  N     0.50000   0.28402   0.75000   0.00000  Uiso   1.00
N1162  N     0.50000   0.04931   0.75000   0.00000  Uiso   1.00
C1163  C     0.57496   0.19618   0.88053   0.00000  Uiso   1.00
H1164  H     0.60136   0.17903   0.89684   0.00000  Uiso   1.00
H1165  H     0.57401   0.18247   0.84632   0.00000  Uiso   1.00
H1166  H     0.58098   0.23433   0.87820   0.00000  Uiso   1.00
C1167  C     0.42633   0.14699   0.61864   0.00000  Uiso   1.00
H1168  H     0.40287   0.17065   0.60551   0.00000  Uiso   1.00
H1169  H     0.41588   0.11005   0.61687   0.00000  Uiso   1.00
H1170  H     0.42851   0.15540   0.65434   0.00000  Uiso   1.00
C1171  C     0.43953   0.11065   0.88315   0.00000  Uiso   1.00
H1172  H     0.45764   0.08416   0.86655   0.00000  Uiso   1.00
H1173  H     0.42039   0.08971   0.90615   0.00000  Uiso   1.00
H1174  H     0.41977   0.12823   0.85817   0.00000  Uiso   1.00
C1175  C     0.57334   0.20615   0.62246   0.00000  Uiso   1.00
H1176  H     0.56700   0.21231   0.65756   0.00000  Uiso   1.00
H1177  H     0.59976   0.18306   0.62399   0.00000  Uiso   1.00
H1178  H     0.58145   0.24137   0.60952   0.00000  Uiso   1.00
C1179  C     0.38726   0.15294   0.95172   0.00000  Uiso   1.00
H1180  H     0.39050   0.16963   0.91869   0.00000  Uiso   1.00
H1181  H     0.36998   0.11921   0.94789   0.00000  Uiso   1.00
H1182  H     0.36893   0.17752   0.97050   0.00000  Uiso   1.00
C1183  C     0.61691   0.19748   0.54042   0.00000  Uiso   1.00
H1184  H     0.62111   0.16502   0.55971   0.00000  Uiso   1.00
H1185  H     0.63887   0.19538   0.51306   0.00000  Uiso   1.00
H1186  H     0.62635   0.22922   0.55918   0.00000  Uiso   1.00
O1187  O     0.40323   0.10538   0.53907   0.00000  Uiso   1.00
C1188  C     0.36304   0.12142   0.54298   0.00000  Uiso   1.00
H1189  H     0.34287   0.10754   0.51572   0.00000  Uiso   1.00
H1190  H     0.36189   0.15997   0.54471   0.00000  Uiso   1.00
H1191  H     0.35009   0.10723   0.57416   0.00000  Uiso   1.00
O1192  O     0.59943   0.23514   0.95733   0.00000  Uiso   1.00
C1193  C     0.59223   0.28263   0.96422   0.00000  Uiso   1.00
H1194  H     0.59542   0.29173   0.99996   0.00000  Uiso   1.00
H1195  H     0.56148   0.29211   0.95091   0.00000  Uiso   1.00
H1196  H     0.61556   0.30384   0.94614   0.00000  Uiso   1.00
C1197  C     0.36838   0.07636   0.76602   0.00000  Uiso   1.00
H1198  H     0.38459   0.07775   0.79878   0.00000  Uiso   1.00
H1199  H     0.34300   0.04979   0.76890   0.00000  Uiso   1.00
H1200  H     0.38948   0.06456   0.74109   0.00000  Uiso   1.00
C1201  C     0.62804   0.25541   0.77392   0.00000  Uiso   1.00
H1202  H     0.61239   0.26647   0.74272   0.00000  Uiso   1.00
H1203  H     0.60605   0.25256   0.80133   0.00000  Uiso   1.00
H1204  H     0.64995   0.28461   0.78186   0.00000  Uiso   1.00
C1205  C     0.62585   0.09051   0.71089   0.00000  Uiso   1.00
H1206  H     0.60609   0.10629   0.68477   0.00000  Uiso   1.00
H1207  H     0.64959   0.07149   0.69325   0.00000  Uiso   1.00
H1208  H     0.60753   0.06494   0.73039   0.00000  Uiso   1.00
C1209  C     0.38066   0.24248   0.80258   0.00000  Uiso   1.00
H1210  H     0.40892   0.22897   0.81850   0.00000  Uiso   1.00
H1211  H     0.38881   0.27300   0.78137   0.00000  Uiso   1.00
H1212  H     0.36205   0.25357   0.83074   0.00000  Uiso   1.00
O1213  O     0.45625   0.04933   0.68616   0.00000  Uiso   1.00
C1214  C     0.41904   0.02608   0.67251   0.00000  Uiso   1.00
H1215  H     0.40651   0.00111   0.69760   0.00000  Uiso   1.00
H1216  H     0.42290   0.00831   0.64044   0.00000  Uiso   1.00
H1217  H     0.39544   0.05233   0.66642   0.00000  Uiso   1.00
O1218  O     0.53121   0.28704   0.82235   0.00000  Uiso   1.00
C1219  C     0.50461   0.29646   0.85736   0.00000  Uiso   1.00
H1220  H     0.47199   0.28727   0.84834   0.00000  Uiso   1.00
H1221  H     0.50761  -0.00000   0.86811   0.00000  Uiso   1.00
H1222  H     0.51308   0.27489   0.88644   0.00000  Uiso   1.00
O1223  O     0.54387   0.05191   0.81334   0.00000  Uiso   1.00
C1224  C     0.58424   0.03605   0.81912   0.00000  Uiso   1.00
H1225  H     0.59532   0.01626   0.79042   0.00000  Uiso   1.00
H1226  H     0.58634   0.01432   0.84957   0.00000  Uiso   1.00
H1227  H     0.60544   0.06677   0.82390   0.00000  Uiso   1.00
O1228  O     0.47015   0.28480   0.67730   0.00000  Uiso   1.00
C1229  C     0.49793   0.29589   0.64314   0.00000  Uiso   1.00
H1230  H     0.53018   0.28914   0.65356   0.00000  Uiso   1.00
H1231  H     0.49581   0.33263   0.63193   0.00000  Uiso   1.00
H1232  H     0.49000   0.27348   0.61417   0.00000  Uiso   1.00
O1233  O     0.77321   0.20625   0.74999   0.00000  Uiso   1.00
O1234  O     0.89345   0.12709   0.75000   0.00000  Uiso   1.00
O1235  O     0.89345   0.20625   0.75000   0.00000  Uiso   1.00
O1236  O     0.77321   0.12709   0.74999   0.00000  Uiso   1.00
C1237  C     0.75452   0.16588   0.75528   0.00000  Uiso   1.00
C1238  C     0.91286   0.16759   0.74914   0.00000  Uiso   1.00
O1239  O     0.83332   0.20627   0.68513   0.00000  Uiso   1.00
O1240  O     0.83334   0.12707   0.81487   0.00000  Uiso   1.00
O1241  O     0.83334   0.20627   0.81487   0.00000  Uiso   1.00
O1242  O     0.83332   0.12707   0.68513   0.00000  Uiso   1.00
C1243  C     0.83530   0.16695   0.66481   0.00000  Uiso   1.00
C1244  C     0.83287   0.16639   0.83534   0.00000  Uiso   1.00
Cu1245 Cu    0.83333   0.21355   0.75000   0.00000  Uiso   1.00
Cu1246 Cu    0.83333   0.11978   0.75000   0.00000  Uiso   1.00
C1247  C     0.86926   0.18554   0.90618   0.00000  Uiso   1.00
C1248  C     0.79918   0.15466   0.59314   0.00000  Uiso   1.00
C1249  C     0.83464   0.16590   0.88359   0.00000  Uiso   1.00
C1250  C     0.83551   0.16797   0.61657   0.00000  Uiso   1.00
C1251  C     0.80146   0.14610   0.90667   0.00000  Uiso   1.00
C1252  C     0.87110   0.18448   0.59483   0.00000  Uiso   1.00
C1253  C     0.79869   0.15480   0.95249   0.00000  Uiso   1.00
C1254  C     0.87128   0.18462   0.54756   0.00000  Uiso   1.00
C1255  C     0.83400   0.17156   0.97639   0.00000  Uiso   1.00
C1256  C     0.83447   0.17101   0.52351   0.00000  Uiso   1.00
C1257  C     0.86865   0.18916   0.95311   0.00000  Uiso   1.00
C1258  C     0.79888   0.15413   0.54611   0.00000  Uiso   1.00
C1259  C     0.76177   0.14646   0.97508   0.00000  Uiso   1.00
C1260  C     0.90644   0.19904   0.52290   0.00000  Uiso   1.00
C1261  C     0.76323   0.13901   0.52115   0.00000  Uiso   1.00
C1262  C     0.90212   0.20882   0.97766   0.00000  Uiso   1.00
C1263  C     0.68620   0.12391   0.75403   0.00000  Uiso   1.00
C1264  C     0.98126   0.20897   0.76709   0.00000  Uiso   1.00
C1265  C     0.97865   0.12801   0.74061   0.00000  Uiso   1.00
C1266  C     0.69050   0.20545   0.77547   0.00000  Uiso   1.00
C1267  C     0.95823   0.16920   0.75060   0.00000  Uiso   1.00
C1268  C     0.71003   0.16456   0.76309   0.00000  Uiso   1.00
C1269  C     0.81193   0.02453   0.71777   0.00000  Uiso   1.00
C1270  C     0.85062   0.30951   0.78468   0.00000  Uiso   1.00
C1271  C     0.85482   0.02596   0.78188   0.00000  Uiso   1.00
C1272  C     0.81643   0.30834   0.71509   0.00000  Uiso   1.00
N1273  N     0.83333   0.28402   0.75000   0.00000  Uiso   1.00
N1274  N     0.83333   0.04931   0.75000   0.00000  Uiso   1.00
C1275  C     0.90829   0.19618   0.88053   0.00000  Uiso   1.00
H1276  H     0.93469   0.17903   0.89684   0.00000  Uiso   1.00
H1277  H     0.90735   0.18247   0.84632   0.00000  Uiso   1.00
H1278  H     0.91431   0.23433   0.87820   0.00000  Uiso   1.00
C1279  C     0.75967   0.14699   0.61864   0.00000  Uiso   1.00
H1280  H     0.73620   0.17065   0.60551   0.00000  Uiso   1.00
H1281  H     0.74922   0.11005   0.61687   0.00000  Uiso   1.00
H1282  H     0.76185   0.15540   0.65434   0.00000  Uiso   1.00
C1283  C     0.77286   0.11065   0.88315   0.00000  Uiso   1.00
H1284  H     0.79097   0.08416   0.86655   0.00000  Uiso   1.00
H1285  H     0.75372   0.08971   0.90615   0.00000  Uiso   1.00
H1286  H     0.75310   0.12823   0.85817   0.00000  Uiso   1.00
C1287  C     0.90668   0.20615   0.62246   0.00000  Uiso   1.00
H1288  H     0.90033   0.21231   0.65756   0.00000  Uiso   1.00
H1289  H     0.93309   0.18306   0.62399   0.00000  Uiso   1.00
H1290  H     0.91479   0.24137   0.60952   0.00000  Uiso   1.00
C1291  C     0.72059   0.15294   0.95172   0.00000  Uiso   1.00
H1292  H     0.72383   0.16963   0.91869   0.00000  Uiso   1.00
H1293  H     0.70331   0.11921   0.94789   0.00000  Uiso   1.00
H1294  H     0.70226   0.17752   0.97050   0.00000  Uiso   1.00
C1295  C     0.95024   0.19748   0.54042   0.00000  Uiso   1.00
H1296  H     0.95444   0.16502   0.55971   0.00000  Uiso   1.00
H1297  H     0.97221   0.19538   0.51306   0.00000  Uiso   1.00
H1298  H     0.95968   0.22922   0.55918   0.00000  Uiso   1.00
O1299  O     0.73656   0.10538   0.53907   0.00000  Uiso   1.00
C1300  C     0.69637   0.12142   0.54298   0.00000  Uiso   1.00
H1301  H     0.67620   0.10754   0.51572   0.00000  Uiso   1.00
H1302  H     0.69523   0.15997   0.54471   0.00000  Uiso   1.00
H1303  H     0.68342   0.10723   0.57416   0.00000  Uiso   1.00
O1304  O     0.93276   0.23514   0.95733   0.00000  Uiso   1.00
C1305  C     0.92557   0.28263   0.96422   0.00000  Uiso   1.00
H1306  H     0.92875   0.29173   0.99996   0.00000  Uiso   1.00
H1307  H     0.89482   0.29211   0.95091   0.00000  Uiso   1.00
H1308  H     0.94890   0.30384   0.94614   0.00000  Uiso   1.00
C1309  C     0.70171   0.07636   0.76602   0.00000  Uiso   1.00
H1310  H     0.71792   0.07775   0.79878   0.00000  Uiso   1.00
H1311  H     0.67633   0.04979   0.76890   0.00000  Uiso   1.00
H1312  H     0.72281   0.06456   0.74109   0.00000  Uiso   1.00
C1313  C     0.96137   0.25541   0.77392   0.00000  Uiso   1.00
H1314  H     0.94573   0.26647   0.74272   0.00000  Uiso   1.00
H1315  H     0.93938   0.25256   0.80133   0.00000  Uiso   1.00
H1316  H     0.98328   0.28461   0.78186   0.00000  Uiso   1.00
C1317  C     0.95919   0.09051   0.71089   0.00000  Uiso   1.00
H1318  H     0.93942   0.10629   0.68477   0.00000  Uiso   1.00
H1319  H     0.98293   0.07149   0.69325   0.00000  Uiso   1.00
H1320  H     0.94086   0.06494   0.73039   0.00000  Uiso   1.00
C1321  C     0.71399   0.24248   0.80258   0.00000  Uiso   1.00
H1322  H     0.74225   0.22897   0.81850   0.00000  Uiso   1.00
H1323  H     0.72214   0.27300   0.78137   0.00000  Uiso   1.00
H1324  H     0.69538   0.25357   0.83074   0.00000  Uiso   1.00
O1325  O     0.78959   0.04933   0.68616   0.00000  Uiso   1.00
C1326  C     0.75237   0.02608   0.67251   0.00000  Uiso   1.00
H1327  H     0.73984   0.00111   0.69760   0.00000  Uiso   1.00
H1328  H     0.75623   0.00831   0.64044   0.00000  Uiso   1.00
H1329  H     0.72877   0.05233   0.66642   0.00000  Uiso   1.00
O1330  O     0.86454   0.28704   0.82235   0.00000  Uiso   1.00
C1331  C     0.83794   0.29646   0.85736   0.00000  Uiso   1.00
H1332  H     0.80533   0.28727   0.84834   0.00000  Uiso   1.00
H1333  H     0.84094  -0.00000   0.86811   0.00000  Uiso   1.00
H1334  H     0.84641   0.27489   0.88644   0.00000  Uiso   1.00
O1335  O     0.87720   0.05191   0.81334   0.00000  Uiso   1.00
C1336  C     0.91757   0.03605   0.81912   0.00000  Uiso   1.00
H1337  H     0.92866   0.01626   0.79042   0.00000  Uiso   1.00
H1338  H     0.91968   0.01432   0.84957   0.00000  Uiso   1.00
H1339  H     0.93877   0.06677   0.82390   0.00000  Uiso   1.00
O1340  O     0.80348   0.28480   0.67730   0.00000  Uiso   1.00
C1341  C     0.83126   0.29589   0.64314   0.00000  Uiso   1.00
H1342  H     0.86351   0.28914   0.65356   0.00000  Uiso   1.00
H1343  H     0.82914   0.33263   0.63193   0.00000  Uiso   1.00
H1344  H     0.82333   0.27348   0.61417   0.00000  Uiso   1.00
O1345  O     0.10655   0.53958   0.74999   0.00000  Uiso   1.00
O1346  O     0.22679   0.46042   0.75000   0.00000  Uiso   1.00
O1347  O     0.22679   0.53958   0.75000   0.00000  Uiso   1.00
O1348  O     0.10655   0.46042   0.74999   0.00000  Uiso   1.00
C1349  C     0.08785   0.49921   0.75528   0.00000  Uiso   1.00
C1350  C     0.24619   0.50092   0.74914   0.00000  Uiso   1.00
O1351  O     0.16666   0.53960   0.68513   0.00000  Uiso   1.00
O1352  O     0.16668   0.46040   0.81487   0.00000  Uiso   1.00
O1353  O     0.16668   0.53960   0.81487   0.00000  Uiso   1.00
O1354  O     0.16666   0.46040   0.68513   0.00000  Uiso   1.00
C1355  C     0.16863   0.50029   0.66481   0.00000  Uiso   1.00
C1356  C     0.16621   0.49973   0.83534   0.00000  Uiso   1.00
Cu1357 Cu    0.16667   0.54689   0.75000   0.00000  Uiso   1.00
Cu1358 Cu    0.16667   0.45311   0.75000   0.00000  Uiso   1.00
C1359  C     0.20259   0.51887   0.90618   0.00000  Uiso   1.00
C1360  C     0.13252   0.48799   0.59314   0.00000  Uiso   1.00
C1361  C     0.16798   0.49923   0.88359   0.00000  Uiso   1.00
C1362  C     0.16884   0.50130   0.61657   0.00000  Uiso   1.00
C1363  C     0.13479   0.47943   0.90667   0.00000  Uiso   1.00
C1364  C     0.20444   0.51781   0.59483   0.00000  Uiso   1.00
C1365  C     0.13202   0.48813   0.95249   0.00000  Uiso   1.00
C1366  C     0.20462   0.51796   0.54756   0.00000  Uiso   1.00
C1367  C     0.16733   0.50489   0.97639   0.00000  Uiso   1.00
C1368  C     0.16780   0.50434   0.52351   0.00000  Uiso   1.00
C1369  C     0.20198   0.52249   0.95311   0.00000  Uiso   1.00
C1370  C     0.13222   0.48747   0.54611   0.00000  Uiso   1.00
C1371  C     0.09510   0.47980   0.97508   0.00000  Uiso   1.00
C1372  C     0.23977   0.53237   0.52290   0.00000  Uiso   1.00
C1373  C     0.09656   0.47235   0.52115   0.00000  Uiso   1.00
C1374  C     0.23545   0.54215   0.97766   0.00000  Uiso   1.00
C1375  C     0.01954   0.45725   0.75403   0.00000  Uiso   1.00
C1376  C     0.31459   0.54230   0.76709   0.00000  Uiso   1.00
C1377  C     0.31198   0.46135   0.74061   0.00000  Uiso   1.00
C1378  C     0.02384   0.53878   0.77547   0.00000  Uiso   1.00
C1379  C     0.29156   0.50254   0.75060   0.00000  Uiso   1.00
C1380  C     0.04337   0.49789   0.76309   0.00000  Uiso   1.00
C1381  C     0.14526   0.35786   0.71777   0.00000  Uiso   1.00
C1382  C     0.18395   0.64285   0.78468   0.00000  Uiso   1.00
C1383  C     0.18816   0.35929   0.78188   0.00000  Uiso   1.00
C1384  C     0.14976   0.64168   0.71509   0.00000  Uiso   1.00
N1385  N     0.16667   0.61736   0.75000   0.00000  Uiso   1.00
N1386  N     0.16667   0.38264   0.75000   0.00000  Uiso   1.00
C1387  C     0.24162   0.52951   0.88053   0.00000  Uiso   1.00
H1388  H     0.26802   0.51236   0.89684   0.00000  Uiso   1.00
H1389  H     0.24068   0.51580   0.84632   0.00000  Uiso   1.00
H1390  H     0.24764   0.56766   0.87820   0.00000  Uiso   1.00
C1391  C     0.09300   0.48032   0.61864   0.00000  Uiso   1.00
H1392  H     0.06954   0.50398   0.60551   0.00000  Uiso   1.00
H1393  H     0.08255   0.44338   0.61687   0.00000  Uiso   1.00
H1394  H     0.09518   0.48873   0.65434   0.00000  Uiso   1.00
C1395  C     0.10620   0.44398   0.88315   0.00000  Uiso   1.00
H1396  H     0.12431   0.41749   0.86655   0.00000  Uiso   1.00
H1397  H     0.08705   0.42304   0.90615   0.00000  Uiso   1.00
H1398  H     0.08643   0.46156   0.85817   0.00000  Uiso   1.00
C1399  C     0.24001   0.53948   0.62246   0.00000  Uiso   1.00
H1400  H     0.23367   0.54565   0.65756   0.00000  Uiso   1.00
H1401  H     0.26642   0.51640   0.62399   0.00000  Uiso   1.00
H1402  H     0.24812   0.57471   0.60952   0.00000  Uiso   1.00
C1403  C     0.05392   0.48627   0.95172   0.00000  Uiso   1.00
H1404  H     0.05717   0.50296   0.91869   0.00000  Uiso   1.00
H1405  H     0.03665   0.45255   0.94789   0.00000  Uiso   1.00
H1406  H     0.03560   0.51085   0.97050   0.00000  Uiso   1.00
C1407  C     0.28358   0.53082   0.54042   0.00000  Uiso   1.00
H1408  H     0.28777   0.49835   0.55971   0.00000  Uiso   1.00
H1409  H     0.30554   0.52872   0.51306   0.00000  Uiso   1.00
H1410  H     0.29301   0.56256   0.55918   0.00000  Uiso   1.00
O1411  O     0.06989   0.43872   0.53907   0.00000  Uiso   1.00
C1412  C     0.02971   0.45476   0.54298   0.00000  Uiso   1.00
H1413  H     0.00953   0.44088   0.51572   0.00000  Uiso   1.00
H1414  H     0.02856   0.49331   0.54471   0.00000  Uiso   1.00
H1415  H     0.01676   0.44056   0.57416   0.00000  Uiso   1.00
O1416  O     0.26609   0.56847   0.95733   0.00000  Uiso   1.00
C1417  C     0.25890   0.61596   0.96422   0.00000  Uiso   1.00
H1418  H     0.26209   0.62506   0.99996   0.00000  Uiso   1.00
H1419  H     0.22815   0.62545   0.95091   0.00000  Uiso   1.00
H1420  H     0.28223   0.63717   0.94614   0.00000  Uiso   1.00
C1421  C     0.03505   0.40970   0.76602   0.00000  Uiso   1.00
H1422  H     0.05126   0.41109   0.79878   0.00000  Uiso   1.00
H1423  H     0.00966   0.38313   0.76890   0.00000  Uiso   1.00
H1424  H     0.05614   0.39789   0.74109   0.00000  Uiso   1.00
C1425  C     0.29471   0.58874   0.77392   0.00000  Uiso   1.00
H1426  H     0.27906   0.59980   0.74272   0.00000  Uiso   1.00
H1427  H     0.27272   0.58590   0.80133   0.00000  Uiso   1.00
H1428  H     0.31661   0.61795   0.78186   0.00000  Uiso   1.00
C1429  C     0.29252   0.42384   0.71089   0.00000  Uiso   1.00
H1430  H     0.27275   0.43962   0.68477   0.00000  Uiso   1.00
H1431  H     0.31626   0.40482   0.69325   0.00000  Uiso   1.00
H1432  H     0.27420   0.39827   0.73039   0.00000  Uiso   1.00
C1433  C     0.04733   0.57581   0.80258   0.00000  Uiso   1.00
H1434  H     0.07558   0.56231   0.81850   0.00000  Uiso   1.00
H1435  H     0.05547   0.60633   0.78137   0.00000  Uiso   1.00
H1436  H     0.02872   0.58691   0.83074   0.00000  Uiso   1.00
O1437  O     0.12292   0.38267   0.68616   0.00000  Uiso   1.00
C1438  C     0.08571   0.35942   0.67251   0.00000  Uiso   1.00
H1439  H     0.07318   0.33444   0.69760   0.00000  Uiso   1.00
H1440  H     0.08957   0.34165   0.64044   0.00000  Uiso   1.00
H1441  H     0.06211   0.38567   0.66642   0.00000  Uiso   1.00
O1442  O     0.19788   0.62038   0.82235   0.00000  Uiso   1.00
C1443  C     0.17128   0.62979   0.85736   0.00000  Uiso   1.00
H1444  H     0.13866   0.62061   0.84834   0.00000  Uiso   1.00
H1445  H     0.17427   0.33333   0.86811   0.00000  Uiso   1.00
H1446  H     0.17975   0.60823   0.88644   0.00000  Uiso   1.00
O1447  O     0.21053   0.38524   0.81334   0.00000  Uiso   1.00
C1448  C     0.25090   0.36939   0.81912   0.00000  Uiso   1.00
H1449  H     0.26199   0.34959   0.79042   0.00000  Uiso   1.00
H1450  H     0.25301   0.34766   0.84957   0.00000  Uiso   1.00
H1451  H     0.27211   0.40011   0.82390   0.00000  Uiso   1.00
O1452  O     0.13682   0.61813   0.67730   0.00000  Uiso   1.00
C1453  C     0.16460   0.62922   0.64314   0.00000  Uiso   1.00
H1454  H     0.19684   0.62247   0.65356   0.00000  Uiso   1.00
H1455  H     0.16248   0.66597   0.63193   0.00000  Uiso   1.00
H1456  H     0.15666   0.60681   0.61417   0.00000  Uiso   1.00
O1457  O     0.43988   0.53958   0.74999   0.00000  Uiso   1.00
O1458  O     0.56012   0.46042   0.75000   0.00000  Uiso   1.00
O1459  O     0.56012   0.53958   0.75000   0.00000  Uiso   1.00
O1460  O     0.43988   0.46042   0.74999   0.00000  Uiso   1.00
C1461  C     0.42119   0.49921   0.75528   0.00000  Uiso   1.00
C1462  C     0.57952   0.50092   0.74914   0.00000  Uiso   1.00
O1463  O     0.49999   0.53960   0.68513   0.00000  Uiso   1.00
O1464  O     0.50001   0.46040   0.81487   0.00000  Uiso   1.00
O1465  O     0.50001   0.53960   0.81487   0.00000  Uiso   1.00
O1466  O     0.49999   0.46040   0.68513   0.00000  Uiso   1.00
C1467  C     0.50197   0.50029   0.66481   0.00000  Uiso   1.00
C1468  C     0.49954   0.49973   0.83534   0.00000  Uiso   1.00
Cu1469 Cu    0.50000   0.54689   0.75000   0.00000  Uiso   1.00
Cu1470 Cu    0.50000   0.45311   0.75000   0.00000  Uiso   1.00
C1471  C     0.53593   0.51887   0.90618   0.00000  Uiso   1.00
C1472  C     0.46585   0.48799   0.59314   0.00000  Uiso   1.00
C1473  C     0.50131   0.49923   0.88359   0.00000  Uiso   1.00
C1474  C     0.50217   0.50130   0.61657   0.00000  Uiso   1.00
C1475  C     0.46812   0.47943   0.90667   0.00000  Uiso   1.00
C1476  C     0.53777   0.51781   0.59483   0.00000  Uiso   1.00
C1477  C     0.46536   0.48813   0.95249   0.00000  Uiso   1.00
C1478  C     0.53795   0.51796   0.54756   0.00000  Uiso   1.00
C1479  C     0.50066   0.50489   0.97639   0.00000  Uiso   1.00
C1480  C     0.50113   0.50434   0.52351   0.00000  Uiso   1.00
C1481  C     0.53532   0.52249   0.95311   0.00000  Uiso   1.00
C1482  C     0.46555   0.48747   0.54611   0.00000  Uiso   1.00
C1483  C     0.42843   0.47980   0.97508   0.00000  Uiso   1.00
C1484  C     0.57310   0.53237   0.52290   0.00000  Uiso   1.00
C1485  C     0.42990   0.47235   0.52115   0.00000  Uiso   1.00
C1486  C     0.56879   0.54215   0.97766   0.00000  Uiso   1.00
C1487  C     0.35287   0.45725   0.75403   0.00000  Uiso   1.00
C1488  C     0.64793   0.54230   0.76709   0.00000  Uiso   1.00
C1489  C     0.64531   0.46135   0.74061   0.00000  Uiso   1.00
C1490  C     0.35717   0.53878   0.77547   0.00000  Uiso   1.00
C1491  C     0.62489   0.50254   0.75060   0.00000  Uiso   1.00
C1492  C     0.37670   0.49789   0.76309   0.00000  Uiso   1.00
C1493  C     0.47860   0.35786   0.71777   0.00000  Uiso   1.00
C1494  C     0.51729   0.64285   0.78468   0.00000  Uiso   1.00
C1495  C     0.52149   0.35929   0.78188   0.00000  Uiso   1.00
C1496  C     0.48310   0.64168   0.71509   0.00000  Uiso   1.00
N1497  N     0.50000   0.61736   0.75000   0.00000  Uiso   1.00
N1498  N     0.50000   0.38264   0.75000   0.00000  Uiso   1.00
C1499  C     0.57496   0.52951   0.88053   0.00000  Uiso   1.00
H1500  H     0.60136   0.51236   0.89684   0.00000  Uiso   1.00
H1501  H     0.57401   0.51580   0.84632   0.00000  Uiso   1.00
H1502  H     0.58098   0.56766   0.87820   0.00000  Uiso   1.00
C1503  C     0.42633   0.48032   0.61864   0.00000  Uiso   1.00
H1504  H     0.40287   0.50398   0.60551   0.00000  Uiso   1.00
H1505  H     0.41588   0.44338   0.61687   0.00000  Uiso   1.00
H1506  H     0.42851   0.48873   0.65434   0.00000  Uiso   1.00
C1507  C     0.43953   0.44398   0.88315   0.00000  Uiso   1.00
H1508  H     0.45764   0.41749   0.86655   0.00000  Uiso   1.00
H1509  H     0.42039   0.42304   0.90615   0.00000  Uiso   1.00
H1510  H     0.41977   0.46156   0.85817   0.00000  Uiso   1.00
C1511  C     0.57334   0.53948   0.62246   0.00000  Uiso   1.00
H1512  H     0.56700   0.54565   0.65756   0.00000  Uiso   1.00
H1513  H     0.59976   0.51640   0.62399   0.00000  Uiso   1.00
H1514  H     0.58145   0.57471   0.60952   0.00000  Uiso   1.00
C1515  C     0.38726   0.48627   0.95172   0.00000  Uiso   1.00
H1516  H     0.39050   0.50296   0.91869   0.00000  Uiso   1.00
H1517  H     0.36998   0.45255   0.94789   0.00000  Uiso   1.00
H1518  H     0.36893   0.51085   0.97050   0.00000  Uiso   1.00
C1519  C     0.61691   0.53082   0.54042   0.00000  Uiso   1.00
H1520  H     0.62111   0.49835   0.55971   0.00000  Uiso   1.00
H1521  H     0.63887   0.52872   0.51306   0.00000  Uiso   1.00
H1522  H     0.62635   0.56256   0.55918   0.00000  Uiso   1.00
O1523  O     0.40323   0.43872   0.53907   0.00000  Uiso   1.00
C1524  C     0.36304   0.45476   0.54298   0.00000  Uiso   1.00
H1525  H     0.34287   0.44088   0.51572   0.00000  Uiso   1.00
H1526  H     0.36189   0.49331   0.54471   0.00000  Uiso   1.00
H1527  H     0.35009   0.44056   0.57416   0.00000  Uiso   1.00
O1528  O     0.59943   0.56847   0.95733   0.00000  Uiso   1.00
C1529  C     0.59223   0.61596   0.96422   0.00000  Uiso   1.00
H1530  H     0.59542   0.62506   0.99996   0.00000  Uiso   1.00
H1531  H     0.56148   0.62545   0.95091   0.00000  Uiso   1.00
H1532  H     0.61556   0.63717   0.94614   0.00000  Uiso   1.00
C1533  C     0.36838   0.40970   0.76602   0.00000  Uiso   1.00
H1534  H     0.38459   0.41109   0.79878   0.00000  Uiso   1.00
H1535  H     0.34300   0.38313   0.76890   0.00000  Uiso   1.00
H1536  H     0.38948   0.39789   0.74109   0.00000  Uiso   1.00
C1537  C     0.62804   0.58874   0.77392   0.00000  Uiso   1.00
H1538  H     0.61239   0.59980   0.74272   0.00000  Uiso   1.00
H1539  H     0.60605   0.58590   0.80133   0.00000  Uiso   1.00
H1540  H     0.64995   0.61795   0.78186   0.00000  Uiso   1.00
C1541  C     0.62585   0.42384   0.71089   0.00000  Uiso   1.00
H1542  H     0.60609   0.43962   0.68477   0.00000  Uiso   1.00
H1543  H     0.64959   0.40482   0.69325   0.00000  Uiso   1.00
H1544  H     0.60753   0.39827   0.73039   0.00000  Uiso   1.00
C1545  C     0.38066   0.57581   0.80258   0.00000  Uiso   1.00
H1546  H     0.40892   0.56231   0.81850   0.00000  Uiso   1.00
H1547  H     0.38881   0.60633   0.78137   0.00000  Uiso   1.00
H1548  H     0.36205   0.58691   0.83074   0.00000  Uiso   1.00
O1549  O     0.45625   0.38267   0.68616   0.00000  Uiso   1.00
C1550  C     0.41904   0.35942   0.67251   0.00000  Uiso   1.00
H1551  H     0.40651   0.33444   0.69760   0.00000  Uiso   1.00
H1552  H     0.42290   0.34165   0.64044   0.00000  Uiso   1.00
H1553  H     0.39544   0.38567   0.66642   0.00000  Uiso   1.00
O1554  O     0.53121   0.62038   0.82235   0.00000  Uiso   1.00
C1555  C     0.50461   0.62979   0.85736   0.00000  Uiso   1.00
H1556  H     0.47199   0.62061   0.84834   0.00000  Uiso   1.00
H1557  H     0.50761   0.33333   0.86811   0.00000  Uiso   1.00
H1558  H     0.51308   0.60823   0.88644   0.00000  Uiso   1.00
O1559  O     0.54387   0.38524   0.81334   0.00000  Uiso   1.00
C1560  C     0.58424   0.36939   0.81912   0.00000  Uiso   1.00
H1561  H     0.59532   0.34959   0.79042   0.00000  Uiso   1.00
H1562  H     0.58634   0.34766   0.84957   0.00000  Uiso   1.00
H1563  H     0.60544   0.40011   0.82390   0.00000  Uiso   1.00
O1564  O     0.47015   0.61813   0.67730   0.00000  Uiso   1.00
C1565  C     0.49793   0.62922   0.64314   0.00000  Uiso   1.00
H1566  H     0.53018   0.62247   0.65356   0.00000  Uiso   1.00
H1567  H     0.49581   0.66597   0.63193   0.00000  Uiso   1.00
H1568  H     0.49000   0.60681   0.61417   0.00000  Uiso   1.00
O1569  O     0.77321   0.53958   0.74999   0.00000  Uiso   1.00
O1570  O     0.89345   0.46042   0.75000   0.00000  Uiso   1.00
O1571  O     0.89345   0.53958   0.75000   0.00000  Uiso   1.00
O1572  O     0.77321   0.46042   0.74999   0.00000  Uiso   1.00
C1573  C     0.75452   0.49921   0.75528   0.00000  Uiso   1.00
C1574  C     0.91286   0.50092   0.74914   0.00000  Uiso   1.00
O1575  O     0.83332   0.53960   0.68513   0.00000  Uiso   1.00
O1576  O     0.83334   0.46040   0.81487   0.00000  Uiso   1.00
O1577  O     0.83334   0.53960   0.81487   0.00000  Uiso   1.00
O1578  O     0.83332   0.46040   0.68513   0.00000  Uiso   1.00
C1579  C     0.83530   0.50029   0.66481   0.00000  Uiso   1.00
C1580  C     0.83287   0.49973   0.83534   0.00000  Uiso   1.00
Cu1581 Cu    0.83333   0.54689   0.75000   0.00000  Uiso   1.00
Cu1582 Cu    0.83333   0.45311   0.75000   0.00000  Uiso   1.00
C1583  C     0.86926   0.51887   0.90618   0.00000  Uiso   1.00
C1584  C     0.79918   0.48799   0.59314   0.00000  Uiso   1.00
C1585  C     0.83464   0.49923   0.88359   0.00000  Uiso   1.00
C1586  C     0.83551   0.50130   0.61657   0.00000  Uiso   1.00
C1587  C     0.80146   0.47943   0.90667   0.00000  Uiso   1.00
C1588  C     0.87110   0.51781   0.59483   0.00000  Uiso   1.00
C1589  C     0.79869   0.48813   0.95249   0.00000  Uiso   1.00
C1590  C     0.87128   0.51796   0.54756   0.00000  Uiso   1.00
C1591  C     0.83400   0.50489   0.97639   0.00000  Uiso   1.00
C1592  C     0.83447   0.50434   0.52351   0.00000  Uiso   1.00
C1593  C     0.86865   0.52249   0.95311   0.00000  Uiso   1.00
C1594  C     0.79888   0.48747   0.54611   0.00000  Uiso   1.00
C1595  C     0.76177   0.47980   0.97508   0.00000  Uiso   1.00
C1596  C     0.90644   0.53237   0.52290   0.00000  Uiso   1.00
C1597  C     0.76323   0.47235   0.52115   0.00000  Uiso   1.00
C1598  C     0.90212   0.54215   0.97766   0.00000  Uiso   1.00
C1599  C     0.68620   0.45725   0.75403   0.00000  Uiso   1.00
C1600  C     0.98126   0.54230   0.76709   0.00000  Uiso   1.00
C1601  C     0.97865   0.46135   0.74061   0.00000  Uiso   1.00
C1602  C     0.69050   0.53878   0.77547   0.00000  Uiso   1.00
C1603  C     0.95823   0.50254   0.75060   0.00000  Uiso   1.00
C1604  C     0.71003   0.49789   0.76309   0.00000  Uiso   1.00
C1605  C     0.81193   0.35786   0.71777   0.00000  Uiso   1.00
C1606  C     0.85062   0.64285   0.78468   0.00000  Uiso   1.00
C1607  C     0.85482   0.35929   0.78188   0.00000  Uiso   1.00
C1608  C     0.81643   0.64168   0.71509   0.00000  Uiso   1.00
N1609  N     0.83333   0.61736   0.75000   0.00000  Uiso   1.00
N1610  N     0.83333   0.38264   0.75000   0.00000  Uiso   1.00
C1611  C     0.90829   0.52951   0.88053   0.00000  Uiso   1.00
H1612  H     0.93469   0.51236   0.89684   0.00000  Uiso   1.00
H1613  H     0.90735   0.51580   0.84632   0.00000  Uiso   1.00
H1614  H     0.91431   0.56766   0.87820   0.00000  Uiso   1.00
C1615  C     0.75967   0.48032   0.61864   0.00000  Uiso   1.00
H1616  H     0.73620   0.50398   0.60551   0.00000  Uiso   1.00
H1617  H     0.74922   0.44338   0.61687   0.00000  Uiso   1.00
H1618  H     0.76185   0.48873   0.65434   0.00000  Uiso   1.00
C1619  C     0.77286   0.44398   0.88315   0.00000  Uiso   1.00
H1620  H     0.79097   0.41749   0.86655   0.00000  Uiso   1.00
H1621  H     0.75372   0.42304   0.90615   0.00000  Uiso   1.00
H1622  H     0.75310   0.46156   0.85817   0.00000  Uiso   1.00
C1623  C     0.90668   0.53948   0.62246   0.00000  Uiso   1.00
H1624  H     0.90033   0.54565   0.65756   0.00000  Uiso   1.00
H1625  H     0.93309   0.51640   0.62399   0.00000  Uiso   1.00
H1626  H     0.91479   0.57471   0.60952   0.00000  Uiso   1.00
C1627  C     0.72059   0.48627   0.95172   0.00000  Uiso   1.00
H1628  H     0.72383   0.50296   0.91869   0.00000  Uiso   1.00
H1629  H     0.70331   0.45255   0.94789   0.00000  Uiso   1.00
H1630  H     0.70226   0.51085   0.97050   0.00000  Uiso   1.00
C1631  C     0.95024   0.53082   0.54042   0.00000  Uiso   1.00
H1632  H     0.95444   0.49835   0.55971   0.00000  Uiso   1.00
H1633  H     0.97221   0.52872   0.51306   0.00000  Uiso   1.00
H1634  H     0.95968   0.56256   0.55918   0.00000  Uiso   1.00
O1635  O     0.73656   0.43872   0.53907   0.00000  Uiso   1.00
C1636  C     0.69637   0.45476   0.54298   0.00000  Uiso   1.00
H1637  H     0.67620   0.44088   0.51572   0.00000  Uiso   1.00
H1638  H     0.69523   0.49331   0.54471   0.00000  Uiso   1.00
H1639  H     0.68342   0.44056   0.57416   0.00000  Uiso   1.00
O1640  O     0.93276   0.56847   0.95733   0.00000  Uiso   1.00
C1641  C     0.92557   0.61596   0.96422   0.00000  Uiso   1.00
H1642  H     0.92875   0.62506   0.99996   0.00000  Uiso   1.00
H1643  H     0.89482   0.62545   0.95091   0.00000  Uiso   1.00
H1644  H     0.94890   0.63717   0.94614   0.00000  Uiso   1.00
C1645  C     0.70171   0.40970   0.76602   0.00000  Uiso   1.00
H1646  H     0.71792   0.41109   0.79878   0.00000  Uiso   1.00
H1647  H     0.67633   0.38313   0.76890   0.00000  Uiso   1.00
H1648  H     0.72281   0.39789   0.74109   0.00000  Uiso   1.00
C1649  C     0.96137   0.58874   0.77392   0.00000  Uiso   1.00
H1650  H     0.94573   0.59980   0.74272   0.00000  Uiso   1.00
H1651  H     0.93938   0.58590   0.80133   0.00000  Uiso   1.00
H1652  H     0.98328   0.61795   0.78186   0.00000  Uiso   1.00
C1653  C     0.95919   0.42384   0.71089   0.00000  Uiso   1.00
H1654  H     0.93942   0.43962   0.68477   0.00000  Uiso   1.00
H1655  H     0.98293   0.40482   0.69325   0.00000  Uiso   1.00
H1656  H     0.94086   0.39827   0.73039   0.00000  Uiso   1.00
C1657  C     0.71399   0.57581   0.80258   0.00000  Uiso   1.00
H1658  H     0.74225   0.56231   0.81850   0.00000  Uiso   1.00
H1659  H     0.72214   0.60633   0.78137   0.00000  Uiso   1.00
H1660  H     0.69538   0.58691   0.83074   0.00000  Uiso   1.00
O1661  O     0.78959   0.38267   0.68616   0.00000  Uiso   1.00
C1662  C     0.75237   0.35942   0.67251   0.00000  Uiso   1.00
H1663  H     0.73984   0.33444   0.69760   0.00000  Uiso   1.00
H1664  H     0.75623   0.34165   0.64044   0.00000  Uiso   1.00
H1665  H     0.72877   0.38567   0.66642   0.00000  Uiso   1.00
O1666  O     0.86454   0.62038   0.82235   0.00000  Uiso   1.00
C1667  C     0.83794   0.62979   0.85736   0.00000  Uiso   1.00
H1668  H     0.80533   0.62061   0.84834   0.00000  Uiso   1.00
H1669  H     0.84094   0.33333   0.86811   0.00000  Uiso   1.00
H1670  H     0.84641   0.60823   0.88644   0.00000  Uiso   1.00
O1671  O     0.87720   0.38524   0.81334   0.00000  Uiso   1.00
C1672  C     0.91757   0.36939   0.81912   0.00000  Uiso   1.00
H1673  H     0.92866   0.34959   0.79042   0.00000  Uiso   1.00
H1674  H     0.91968   0.34766   0.84957   0.00000  Uiso   1.00
H1675  H     0.93877   0.40011   0.82390   0.00000  Uiso   1.00
O1676  O     0.80348   0.61813   0.67730   0.00000  Uiso   1.00
C1677  C     0.83126   0.62922   0.64314   0.00000  Uiso   1.00
H1678  H     0.86351   0.62247   0.65356   0.00000  Uiso   1.00
H1679  H     0.82914   0.66597   0.63193   0.00000  Uiso   1.00
H1680  H     0.82333   0.60681   0.61417   0.00000  Uiso   1.00
O1681  O     0.10655   0.87291   0.74999   0.00000  Uiso   1.00
O1682  O     0.22679   0.79375   0.75000   0.00000  Uiso   1.00
O1683  O     0.22679   0.87291   0.75000   0.00000  Uiso   1.00
O1684  O     0.10655   0.79375   0.74999   0.00000  Uiso   1.00
C1685  C     0.08785   0.83254   0.75528   0.00000  Uiso   1.00
C1686  C     0.24619   0.83425   0.74914   0.00000  Uiso   1.00
O1687  O     0.16666   0.87293   0.68513   0.00000  Uiso   1.00
O1688  O     0.16668   0.79373   0.81487   0.00000  Uiso   1.00
O1689  O     0.16668   0.87293   0.81487   0.00000  Uiso   1.00
O1690  O     0.16666   0.79373   0.68513   0.00000  Uiso   1.00
C1691  C     0.16863   0.83362   0.66481   0.00000  Uiso   1.00
C1692  C     0.16621   0.83306   0.83534   0.00000  Uiso   1.00
Cu1693 Cu    0.16667   0.88022   0.75000   0.00000  Uiso   1.00
Cu1694 Cu    0.16667   0.78645   0.75000   0.00000  Uiso   1.00
C1695  C     0.20259   0.85220   0.90618   0.00000  Uiso   1.00
C1696  C     0.13252   0.82132   0.59314   0.00000  Uiso   1.00
C1697  C     0.16798   0.83257   0.88359   0.00000  Uiso   1.00
C1698  C     0.16884   0.83463   0.61657   0.00000  Uiso   1.00
C1699  C     0.13479   0.81276   0.90667   0.00000  Uiso   1.00
C1700  C     0.20444   0.85115   0.59483   0.00000  Uiso   1.00
C1701  C     0.13202   0.82146   0.95249   0.00000  Uiso   1.00
C1702  C     0.20462   0.85129   0.54756   0.00000  Uiso   1.00
C1703  C     0.16733   0.83823   0.97639   0.00000  Uiso   1.00
C1704  C     0.16780   0.83767   0.52351   0.00000  Uiso   1.00
C1705  C     0.20198   0.85582   0.95311   0.00000  Uiso   1.00
C1706  C     0.13222   0.82080   0.54611   0.00000  Uiso   1.00
C1707  C     0.09510   0.81313   0.97508   0.00000  Uiso   1.00
C1708  C     0.23977   0.86570   0.52290   0.00000  Uiso   1.00
C1709  C     0.09656   0.80568   0.52115   0.00000  Uiso   1.00
C1710  C     0.23545   0.87548   0.97766   0.00000  Uiso   1.00
C1711  C     0.01954   0.79058   0.75403   0.00000  Uiso   1.00
C1712  C     0.31459   0.87563   0.76709   0.00000  Uiso   1.00
C1713  C     0.31198   0.79468   0.74061   0.00000  Uiso   1.00
C1714  C     0.02384   0.87211   0.77547   0.00000  Uiso   1.00
C1715  C     0.29156   0.83587   0.75060   0.00000  Uiso   1.00
C1716  C     0.04337   0.83123   0.76309   0.00000  Uiso   1.00
C1717  C     0.14526   0.69119   0.71777   0.00000  Uiso   1.00
C1718  C     0.18395   0.97618   0.78468   0.00000  Uiso   1.00
C1719  C     0.18816   0.69262   0.78188   0.00000  Uiso   1.00
C1720  C     0.14976   0.97501   0.71509   0.00000  Uiso   1.00
N1721  N     0.16667   0.95069   0.75000   0.00000  Uiso   1.00
N1722  N     0.16667   0.71598   0.75000   0.00000  Uiso   1.00
C1723  C     0.24162   0.86285   0.88053   0.00000  Uiso   1.00
H1724  H     0.26802   0.84569   0.89684   0.00000  Uiso   1.00
H1725  H     0.24068   0.84913   0.84632   0.00000  Uiso   1.00
H1726  H     0.24764   0.90099   0.87820   0.00000  Uiso   1.00
C1727  C     0.09300   0.81365   0.61864   0.00000  Uiso   1.00
H1728  H     0.06954   0.83732   0.60551   0.00000  Uiso   1.00
H1729  H     0.08255   0.77672   0.61687   0.00000  Uiso   1.00
H1730  H     0.09518   0.82207   0.65434   0.00000  Uiso   1.00
C1731  C     0.10620   0.77732   0.88315   0.00000  Uiso   1.00
H1732  H     0.12431   0.75082   0.86655   0.00000  Uiso   1.00
H1733  H     0.08705   0.75637   0.90615   0.00000  Uiso   1.00
H1734  H     0.08643   0.79489   0.85817   0.00000  Uiso   1.00
C1735  C     0.24001   0.87281   0.62246   0.00000  Uiso   1.00
H1736  H     0.23367   0.87898   0.65756   0.00000  Uiso   1.00
H1737  H     0.26642   0.84973   0.62399   0.00000  Uiso   1.00
H1738  H     0.24812   0.90804   0.60952   0.00000  Uiso   1.00
C1739  C     0.05392   0.81961   0.95172   0.00000  Uiso   1.00
H1740  H     0.05717   0.83629   0.91869   0.00000  Uiso   1.00
H1741  H     0.03665   0.78588   0.94789   0.00000  Uiso   1.00
H1742  H     0.03560   0.84419   0.97050   0.00000  Uiso   1.00
C1743  C     0.28358   0.86415   0.54042   0.00000  Uiso   1.00
H1744  H     0.28777   0.83169   0.55971   0.00000  Uiso   1.00
H1745  H     0.30554   0.86205   0.51306   0.00000  Uiso   1.00
H1746  H     0.29301   0.89589   0.55918   0.00000  Uiso   1.00
O1747  O     0.06989   0.77205   0.53907   0.00000  Uiso   1.00
C1748  C     0.02971   0.78809   0.54298   0.00000  Uiso   1.00
H1749  H     0.00953   0.77421   0.51572   0.00000  Uiso   1.00
H1750  H     0.02856   0.82664   0.54471   0.00000  Uiso   1.00
H1751  H     0.01676   0.77389   0.57416   0.00000  Uiso   1.00
O1752  O     0.26609   0.90181   0.95733   0.00000  Uiso   1.00
C1753  C     0.25890   0.94929   0.96422   0.00000  Uiso   1.00
H1754  H     0.26209   0.95840   0.99996   0.00000  Uiso   1.00
H1755  H     0.22815   0.95878   0.95091   0.00000  Uiso   1.00
H1756  H     0.28223   0.97050   0.94614   0.00000  Uiso   1.00
C1757  C     0.03505   0.74303   0.76602   0.00000  Uiso   1.00
H1758  H     0.05126   0.74442   0.79878   0.00000  Uiso   1.00
H1759  H     0.00966   0.71646   0.76890   0.00000  Uiso   1.00
H1760  H     0.05614   0.73122   0.74109   0.00000  Uiso   1.00
C1761  C     0.29471   0.92207   0.77392   0.00000  Uiso   1.00
H1762  H     0.27906   0.93313   0.74272   0.00000  Uiso   1.00
H1763  H     0.27272   0.91923   0.80133   0.00000  Uiso   1.00
H1764  H     0.31661   0.95128   0.78186   0.00000  Uiso   1.00
C1765  C     0.29252   0.75718   0.71089   0.00000  Uiso   1.00
H1766  H     0.27275   0.77296   0.68477   0.00000  Uiso   1.00
H1767  H     0.31626   0.73816   0.69325   0.00000  Uiso   1.00
H1768  H     0.27420   0.73161   0.73039   0.00000  Uiso   1.00
C1769  C     0.04733   0.90914   0.80258   0.00000  Uiso   1.00
H1770  H     0.07558   0.89564   0.81850   0.00000  Uiso   1.00
H1771  H     0.05547   0.93967   0.78137   0.00000  Uiso   1.00
H1772  H     0.02872   0.92024   0.83074   0.00000  Uiso   1.00
O1773  O     0.12292   0.71600   0.68616   0.00000  Uiso   1.00
C1774  C     0.08571   0.69275   0.67251   0.00000  Uiso   1.00
H1775  H     0.07318   0.66777   0.69760   0.00000  Uiso   1.00
H1776  H     0.08957   0.67498   0.64044   0.00000  Uiso   1.00
H1777  H     0.06211   0.71900   0.66642   0.00000  Uiso   1.00
O1778  O     0.19788   0.95371   0.82235   0.00000  Uiso   1.00
C1779  C     0.17128   0.96312   0.85736   0.00000  Uiso   1.00
H1780  H     0.13866   0.95394   0.84834   0.00000  Uiso   1.00
H1781  H     0.17427   0.66667   0.86811   0.00000  Uiso   1.00
H1782  H     0.17975   0.94156   0.88644   0.00000  Uiso   1.00
O1783  O     0.21053   0.71858   0.81334   0.00000  Uiso   1.00
C1784  C     0.25090   0.70272   0.81912   0.00000  Uiso   1.00
H1785  H     0.26199   0.68292   0.79042   0.00000  Uiso   1.00
H1786  H     0.25301   0.68099   0.84957   0.00000  Uiso   1.00
H1787  H     0.27211   0.73344   0.82390   0.00000  Uiso   1.00
O1788  O     0.13682   0.95147   0.67730   0.00000  Uiso   1.00
C1789  C     0.16460   0.96256   0.64314   0.00000  Uiso   1.00
H1790  H     0.19684   0.95581   0.65356   0.00000  Uiso   1.00
H1791  H     0.16248   0.99930   0.63193   0.00000  Uiso   1.00
H1792  H     0.15666   0.94014   0.61417   0.00000  Uiso   1.00
O1793  O     0.43988   0.87291   0.74999   0.00000  Uiso   1.00
O1794  O     0.56012   0.79375   0.75000   0.00000  Uiso   1.00
O1795  O     0.56012   0.87291   0.75000   0.00000  Uiso   1.00
O1796  O     0.43988   0.79375   0.74999   0.00000  Uiso   1.00
C1797  C     0.42119   0.83254   0.75528   0.00000  Uiso   1.00
C1798  C     0.57952   0.83425   0.74914   0.00000  Uiso   1.00
O1799  O     0.49999   0.87293   0.68513   0.00000  Uiso   1.00
O1800  O     0.50001   0.79373   0.81487   0.00000  Uiso   1.00
O1801  O     0.50001   0.87293   0.81487   0.00000  Uiso   1.00
O1802  O     0.49999   0.79373   0.68513   0.00000  Uiso   1.00
C1803  C     0.50197   0.83362   0.66481   0.00000  Uiso   1.00
C1804  C     0.49954   0.83306   0.83534   0.00000  Uiso   1.00
Cu1805 Cu    0.50000   0.88022   0.75000   0.00000  Uiso   1.00
Cu1806 Cu    0.50000   0.78645   0.75000   0.00000  Uiso   1.00
C1807  C     0.53593   0.85220   0.90618   0.00000  Uiso   1.00
C1808  C     0.46585   0.82132   0.59314   0.00000  Uiso   1.00
C1809  C     0.50131   0.83257   0.88359   0.00000  Uiso   1.00
C1810  C     0.50217   0.83463   0.61657   0.00000  Uiso   1.00
C1811  C     0.46812   0.81276   0.90667   0.00000  Uiso   1.00
C1812  C     0.53777   0.85115   0.59483   0.00000  Uiso   1.00
C1813  C     0.46536   0.82146   0.95249   0.00000  Uiso   1.00
C1814  C     0.53795   0.85129   0.54756   0.00000  Uiso   1.00
C1815  C     0.50066   0.83823   0.97639   0.00000  Uiso   1.00
C1816  C     0.50113   0.83767   0.52351   0.00000  Uiso   1.00
C1817  C     0.53532   0.85582   0.95311   0.00000  Uiso   1.00
C1818  C     0.46555   0.82080   0.54611   0.00000  Uiso   1.00
C1819  C     0.42843   0.81313   0.97508   0.00000  Uiso   1.00
C1820  C     0.57310   0.86570   0.52290   0.00000  Uiso   1.00
C1821  C     0.42990   0.80568   0.52115   0.00000  Uiso   1.00
C1822  C     0.56879   0.87548   0.97766   0.00000  Uiso   1.00
C1823  C     0.35287   0.79058   0.75403   0.00000  Uiso   1.00
C1824  C     0.64793   0.87563   0.76709   0.00000  Uiso   1.00
C1825  C     0.64531   0.79468   0.74061   0.00000  Uiso   1.00
C1826  C     0.35717   0.87211   0.77547   0.00000  Uiso   1.00
C1827  C     0.62489   0.83587   0.75060   0.00000  Uiso   1.00
C1828  C     0.37670   0.83123   0.76309   0.00000  Uiso   1.00
C1829  C     0.47860   0.69119   0.71777   0.00000  Uiso   1.00
C1830  C     0.51729   0.97618   0.78468   0.00000  Uiso   1.00
C1831  C     0.52149   0.69262   0.78188   0.00000  Uiso   1.00
C1832  C     0.48310   0.97501   0.71509   0.00000  Uiso   1.00
N1833  N     0.50000   0.95069   0.75000   0.00000  Uiso   1.00
N1834  N     0.50000   0.71598   0.75000   0.00000  Uiso   1.00
C1835  C     0.57496   0.86285   0.88053   0.00000  Uiso   1.00
H1836  H     0.60136   0.84569   0.89684   0.00000  Uiso   1.00
H1837  H     0.57401   0.84913   0.84632   0.00000  Uiso   1.00
H1838  H     0.58098   0.90099   0.87820   0.00000  Uiso   1.00
C1839  C     0.42633   0.81365   0.61864   0.00000  Uiso   1.00
H1840  H     0.40287   0.83732   0.60551   0.00000  Uiso   1.00
H1841  H     0.41588   0.77672   0.61687   0.00000  Uiso   1.00
H1842  H     0.42851   0.82207   0.65434   0.00000  Uiso   1.00
C1843  C     0.43953   0.77732   0.88315   0.00000  Uiso   1.00
H1844  H     0.45764   0.75082   0.86655   0.00000  Uiso   1.00
H1845  H     0.42039   0.75637   0.90615   0.00000  Uiso   1.00
H1846  H     0.41977   0.79489   0.85817   0.00000  Uiso   1.00
C1847  C     0.57334   0.87281   0.62246   0.00000  Uiso   1.00
H1848  H     0.56700   0.87898   0.65756   0.00000  Uiso   1.00
H1849  H     0.59976   0.84973   0.62399   0.00000  Uiso   1.00
H1850  H     0.58145   0.90804   0.60952   0.00000  Uiso   1.00
C1851  C     0.38726   0.81961   0.95172   0.00000  Uiso   1.00
H1852  H     0.39050   0.83629   0.91869   0.00000  Uiso   1.00
H1853  H     0.36998   0.78588   0.94789   0.00000  Uiso   1.00
H1854  H     0.36893   0.84419   0.97050   0.00000  Uiso   1.00
C1855  C     0.61691   0.86415   0.54042   0.00000  Uiso   1.00
H1856  H     0.62111   0.83169   0.55971   0.00000  Uiso   1.00
H1857  H     0.63887   0.86205   0.51306   0.00000  Uiso   1.00
H1858  H     0.62635   0.89589   0.55918   0.00000  Uiso   1.00
O1859  O     0.40323   0.77205   0.53907   0.00000  Uiso   1.00
C1860  C     0.36304   0.78809   0.54298   0.00000  Uiso   1.00
H1861  H     0.34287   0.77421   0.51572   0.00000  Uiso   1.00
H1862  H     0.36189   0.82664   0.54471   0.00000  Uiso   1.00
H1863  H     0.35009   0.77389   0.57416   0.00000  Uiso   1.00
O1864  O     0.59943   0.90181   0.95733   0.00000  Uiso   1.00
C1865  C     0.59223   0.94929   0.96422   0.00000  Uiso   1.00
H1866  H     0.59542   0.95840   0.99996   0.00000  Uiso   1.00
H1867  H     0.56148   0.95878   0.95091   0.00000  Uiso   1.00
H1868  H     0.61556   0.97050   0.94614   0.00000  Uiso   1.00
C1869  C     0.36838   0.74303   0.76602   0.00000  Uiso   1.00
H1870  H     0.38459   0.74442   0.79878   0.00000  Uiso   1.00
H1871  H     0.34300   0.71646   0.76890   0.00000  Uiso   1.00
H1872  H     0.38948   0.73122   0.74109   0.00000  Uiso   1.00
C1873  C     0.62804   0.92207   0.77392   0.00000  Uiso   1.00
H1874  H     0.61239   0.93313   0.74272   0.00000  Uiso   1.00
H1875  H     0.60605   0.91923   0.80133   0.00000  Uiso   1.00
H1876  H     0.64995   0.95128   0.78186   0.00000  Uiso   1.00
C1877  C     0.62585   0.75718   0.71089   0.00000  Uiso   1.00
H1878  H     0.60609   0.77296   0.68477   0.00000  Uiso   1.00
H1879  H     0.64959   0.73816   0.69325   0.00000  Uiso   1.00
H1880  H     0.60753   0.73161   0.73039   0.00000  Uiso   1.00
C1881  C     0.38066   0.90914   0.80258   0.00000  Uiso   1.00
H1882  H     0.40892   0.89564   0.81850   0.00000  Uiso   1.00
H1883  H     0.38881   0.93967   0.78137   0.00000  Uiso   1.00
H1884  H     0.36205   0.92024   0.83074   0.00000  Uiso   1.00
O1885  O     0.45625   0.71600   0.68616   0.00000  Uiso   1.00
C1886  C     0.41904   0.69275   0.67251   0.00000  Uiso   1.00
H1887  H     0.40651   0.66777   0.69760   0.00000  Uiso   1.00
H1888  H     0.42290   0.67498   0.64044   0.00000  Uiso   1.00
H1889  H     0.39544   0.71900   0.66642   0.00000  Uiso   1.00
O1890  O     0.53121   0.95371   0.82235   0.00000  Uiso   1.00
C1891  C     0.50461   0.96312   0.85736   0.00000  Uiso   1.00
H1892  H     0.47199   0.95394   0.84834   0.00000  Uiso   1.00
H1893  H     0.50761   0.66667   0.86811   0.00000  Uiso   1.00
H1894  H     0.51308   0.94156   0.88644   0.00000  Uiso   1.00
O1895  O     0.54387   0.71858   0.81334   0.00000  Uiso   1.00
C1896  C     0.58424   0.70272   0.81912   0.00000  Uiso   1.00
H1897  H     0.59532   0.68292   0.79042   0.00000  Uiso   1.00
H1898  H     0.58634   0.68099   0.84957   0.00000  Uiso   1.00
H1899  H     0.60544   0.73344   0.82390   0.00000  Uiso   1.00
O1900  O     0.47015   0.95147   0.67730   0.00000  Uiso   1.00
C1901  C     0.49793   0.96256   0.64314   0.00000  Uiso   1.00
H1902  H     0.53018   0.95581   0.65356   0.00000  Uiso   1.00
H1903  H     0.49581   0.99930   0.63193   0.00000  Uiso   1.00
H1904  H     0.49000   0.94014   0.61417   0.00000  Uiso   1.00
O1905  O     0.77321   0.87291   0.74999   0.00000  Uiso   1.00
O1906  O     0.89345   0.79375   0.75000   0.00000  Uiso   1.00
O1907  O     0.89345   0.87291   0.75000   0.00000  Uiso   1.00
O1908  O     0.77321   0.79375   0.74999   0.00000  Uiso   1.00
C1909  C     0.75452   0.83254   0.75528   0.00000  Uiso   1.00
C1910  C     0.91286   0.83425   0.74914   0.00000  Uiso   1.00
O1911  O     0.83332   0.87293   0.68513   0.00000  Uiso   1.00
O1912  O     0.83334   0.79373   0.81487   0.00000  Uiso   1.00
O1913  O     0.83334   0.87293   0.81487   0.00000  Uiso   1.00
O1914  O     0.83332   0.79373   0.68513   0.00000  Uiso   1.00
C1915  C     0.83530   0.83362   0.66481   0.00000  Uiso   1.00
C1916  C     0.83287   0.83306   0.83534   0.00000  Uiso   1.00
Cu1917 Cu    0.83333   0.88022   0.75000   0.00000  Uiso   1.00
Cu1918 Cu    0.83333   0.78645   0.75000   0.00000  Uiso   1.00
C1919  C     0.86926   0.85220   0.90618   0.00000  Uiso   1.00
C1920  C     0.79918   0.82132   0.59314   0.00000  Uiso   1.00
C1921  C     0.83464   0.83257   0.88359   0.00000  Uiso   1.00
C1922  C     0.83551   0.83463   0.61657   0.00000  Uiso   1.00
C1923  C     0.80146   0.81276   0.90667   0.00000  Uiso   1.00
C1924  C     0.87110   0.85115   0.59483   0.00000  Uiso   1.00
C1925  C     0.79869   0.82146   0.95249   0.00000  Uiso   1.00
C1926  C     0.87128   0.85129   0.54756   0.00000  Uiso   1.00
C1927  C     0.83400   0.83823   0.97639   0.00000  Uiso   1.00
C1928  C     0.83447   0.83767   0.52351   0.00000  Uiso   1.00
C1929  C     0.86865   0.85582   0.95311   0.00000  Uiso   1.00
C1930  C     0.79888   0.82080   0.54611   0.00000  Uiso   1.00
C1931  C     0.76177   0.81313   0.97508   0.00000  Uiso   1.00
C1932  C     0.90644   0.86570   0.52290   0.00000  Uiso   1.00
C1933  C     0.76323   0.80568   0.52115   0.00000  Uiso   1.00
C1934  C     0.90212   0.87548   0.97766   0.00000  Uiso   1.00
C1935  C     0.68620   0.79058   0.75403   0.00000  Uiso   1.00
C1936  C     0.98126   0.87563   0.76709   0.00000  Uiso   1.00
C1937  C     0.97865   0.79468   0.74061   0.00000  Uiso   1.00
C1938  C     0.69050   0.87211   0.77547   0.00000  Uiso   1.00
C1939  C     0.95823   0.83587   0.75060   0.00000  Uiso   1.00
C1940  C     0.71003   0.83123   0.76309   0.00000  Uiso   1.00
C1941  C     0.81193   0.69119   0.71777   0.00000  Uiso   1.00
C1942  C     0.85062   0.97618   0.78468   0.00000  Uiso   1.00
C1943  C     0.85482   0.69262   0.78188   0.00000  Uiso   1.00
C1944  C     0.81643   0.97501   0.71509   0.00000  Uiso   1.00
N1945  N     0.83333   0.95069   0.75000   0.00000  Uiso   1.00
N1946  N     0.83333   0.71598   0.75000   0.00000  Uiso   1.00
C1947  C     0.90829   0.86285   0.88053   0.00000  Uiso   1.00
H1948  H     0.93469   0.84569   0.89684   0.00000  Uiso   1.00
H1949  H     0.90735   0.84913   0.84632   0.00000  Uiso   1.00
H1950  H     0.91431   0.90099   0.87820   0.00000  Uiso   1.00
C1951  C     0.75967   0.81365   0.61864   0.00000  Uiso   1.00
H1952  H     0.73620   0.83732   0.60551   0.00000  Uiso   1.00
H1953  H     0.74922   0.77672   0.61687   0.00000  Uiso   1.00
H1954  H     0.76185   0.82207   0.65434   0.00000  Uiso   1.00
C1955  C     0.77286   0.77732   0.88315   0.00000  Uiso   1.00
H1956  H     0.79097   0.75082   0.86655   0.00000  Uiso   1.00
H1957  H     0.75372   0.75637   0.90615   0.00000  Uiso   1.00
H1958  H     0.75310   0.79489   0.85817   0.00000  Uiso   1.00
C1959  C     0.90668   0.87281   0.62246   0.00000  Uiso   1.00
H1960  H     0.90033   0.87898   0.65756   0.00000  Uiso   1.00
H1961  H     0.93309   0.84973   0.62399   0.00000  Uiso   1.00
H1962  H     0.91479   0.90804   0.60952   0.00000  Uiso   1.00
C1963  C     0.72059   0.81961   0.95172   0.00000  Uiso   1.00
H1964  H     0.72383   0.83629   0.91869   0.00000  Uiso   1.00
H1965  H     0.70331   0.78588   0.94789   0.00000  Uiso   1.00
H1966  H     0.70226   0.84419   0.97050   0.00000  Uiso   1.00
C1967  C     0.95024   0.86415   0.54042   0.00000  Uiso   1.00
H1968  H     0.95444   0.83169   0.55971   0.00000  Uiso   1.00
H1969  H     0.97221   0.86205   0.51306   0.00000  Uiso   1.00
H1970  H     0.95968   0.89589   0.55918   0.00000  Uiso   1.00
O1971  O     0.73656   0.77205   0.53907   0.00000  Uiso   1.00
C1972  C     0.69637   0.78809   0.54298   0.00000  Uiso   1.00
H1973  H     0.67620   0.77421   0.51572   0.00000  Uiso   1.00
H1974  H     0.69523   0.82664   0.54471   0.00000  Uiso   1.00
H1975  H     0.68342   0.77389   0.57416   0.00000  Uiso   1.00
O1976  O     0.93276   0.90181   0.95733   0.00000  Uiso   1.00
C1977  C     0.92557   0.94929   0.96422   0.00000  Uiso   1.00
H1978  H     0.92875   0.95840   0.99996   0.00000  Uiso   1.00
H1979  H     0.89482   0.95878   0.95091   0.00000  Uiso   1.00
H1980  H     0.94890   0.97050   0.94614   0.00000  Uiso   1.00
C1981  C     0.70171   0.74303   0.76602   0.00000  Uiso   1.00
H1982  H     0.71792   0.74442   0.79878   0.00000  Uiso   1.00
H1983  H     0.67633   0.71646   0.76890   0.00000  Uiso   1.00
H1984  H     0.72281   0.73122   0.74109   0.00000  Uiso   1.00
C1985  C     0.96137   0.92207   0.77392   0.00000  Uiso   1.00
H1986  H     0.94573   0.93313   0.74272   0.00000  Uiso   1.00
H1987  H     0.93938   0.91923   0.80133   0.00000  Uiso   1.00
H1988  H     0.98328   0.95128   0.78186   0.00000  Uiso   1.00
C1989  C     0.95919   0.75718   0.71089   0.00000  Uiso   1.00
H1990  H     0.93942   0.77296   0.68477   0.00000  Uiso   1.00
H1991  H     0.98293   0.73816   0.69325   0.00000  Uiso   1.00
H1992  H     0.94086   0.73161   0.73039   0.00000  Uiso   1.00
C1993  C     0.71399   0.90914   0.80258   0.00000  Uiso   1.00
H1994  H     0.74225   0.89564   0.81850   0.00000  Uiso   1.00
H1995  H     0.72214   0.93967   0.78137   0.00000  Uiso   1.00
H1996  H     0.69538   0.92024   0.83074   0.00000  Uiso   1.00
O1997  O     0.78959   0.71600   0.68616   0.00000  Uiso   1.00
C1998  C     0.75237   0.69275   0.67251   0.00000  Uiso   1.00
H1999  H     0.73984   0.66777   0.69760   0.00000  Uiso   1.00
H2000  H     0.75623   0.67498   0.64044   0.00000  Uiso   1.00
H2001  H     0.72877   0.71900   0.66642   0.00000  Uiso   1.00
O2002  O     0.86454   0.95371   0.82235   0.00000  Uiso   1.00
C2003  C     0.83794   0.96312   0.85736   0.00000  Uiso   1.00
H2004  H     0.80533   0.95394   0.84834   0.00000  Uiso   1.00
H2005  H     0.84094   0.66667   0.86811   0.00000  Uiso   1.00
H2006  H     0.84641   0.94156   0.88644   0.00000  Uiso   1.00
O2007  O     0.87720   0.71858   0.81334   0.00000  Uiso   1.00
C2008  C     0.91757   0.70272   0.81912   0.00000  Uiso   1.00
H2009  H     0.92866   0.68292   0.79042   0.00000  Uiso   1.00
H2010  H     0.91968   0.68099   0.84957   0.00000  Uiso   1.00
H2011  H     0.93877   0.73344   0.82390   0.00000  Uiso   1.00
O2012  O     0.80348   0.95147   0.67730   0.00000  Uiso   1.00
C2013  C     0.83126   0.96256   0.64314   0.00000  Uiso   1.00
H2014  H     0.86351   0.95581   0.65356   0.00000  Uiso   1.00
H2015  H     0.82914   0.99930   0.63193   0.00000  Uiso   1.00
H2016  H     0.82333   0.94014   0.61417   0.00000  Uiso   1.00
loop_
_geom_bond_atom_site_label_1
_geom_bond_atom_site_label_2
_geom_bond_distance
_geom_bond_site_symmetry_2
_ccdc_geom_bond_type
O1     C5      1.302   .     A
O1     Cu13    1.964   .     S
O2     C6      1.305   .     A
O2     Cu14    1.964   .     S
O3     C6      1.298   .     A
O3     Cu13    1.979   .     S
O4     C5      1.302   .     A
O4     Cu14    1.979   .     S
C5     C36     1.474   .     S
C6     C35     1.478   .     S
O7     C11     1.293   .     A
O7     Cu13    1.970   .     S
O8     C12     1.292   .     A
O8     Cu14    1.970   .     S
O9     Cu13    1.967   .     S
O9     C12     1.298   .     A
O10    Cu14    1.967   .     S
O10    C11     1.297   .     A
C11    C18     1.456   .     S
C12    C17     1.456   .     S
Cu13   Cu14    2.694   .     S
Cu13   N41     2.025   .     S
Cu14   N42     2.025   .     S
C15    C25     1.421   .     A
C15    C17     1.407   .     A
C15    C43     1.526   .     S
C16    C47     1.525   .     S
C16    C26     1.419   .     A
C16    C18     1.407   .     A
C17    C19     1.403   .     A
C18    C20     1.413   .     A
C19    C21     1.412   .     A
C19    C51     1.523   .     S
C20    C55     1.529   .     S
C20    C22     1.427   .     A
C21    C27     1.410   .     A
C21    C23     1.415   .     A
C22    C28     1.429   .     A
C22    C24     1.431   .     A
C23    C25     1.421   .     A
C23    C1032   1.422   .     S
C24    C26     1.428   .     A
C24    C1031   1.422   1_554 S
C25    C30     1.408   .     A
C26    C29     1.426   .     A
C27    C59     1.518   .     S
C27    C1037   1.405   .     S
C28    C63     1.513   .     S
C28    C1038   1.397   1_554 S
C29    O67     1.392   .     S
C29    C1035   1.405   1_554 S
C30    O72     1.384   .     S
C30    C1036   1.397   .     S
C31    C77     1.512   .     S
C31    C36     1.404   .     A
C31    C257    1.393   1_455 S
C32    C81     1.521   .     S
C32    C35     1.430   .     A
C32    C146    1.412   .     S
C33    C85     1.518   .     S
C33    C35     1.416   .     A
C33    C143    1.393   .     S
C34    C89     1.520   .     S
C34    C36     1.412   .     A
C34    C256    1.412   1_455 S
C37    N42     1.371   .     A
C37    O93     1.394   .     S
C37    C712    1.438   1_545 S
C38    O98     1.379   .     S
C38    N41     1.379   .     A
C38    C375    1.434   .     S
C39    N42     1.364   .     A
C39    O103    1.388   .     S
C39    C710    1.434   1_545 S
C40    O108    1.379   .     S
C40    N41     1.376   .     A
C40    C373    1.438   .     S
C43    H44     1.110   .     S
C43    H45     1.107   .     S
C43    H46     1.109   .     S
C47    H49     1.104   .     S
C47    H50     1.106   .     S
C47    H48     1.106   .     S
C51    H52     1.109   .     S
C51    H53     1.106   .     S
C51    H54     1.111   .     S
C55    H56     1.101   .     S
C55    H57     1.105   .     S
C55    H58     1.108   .     S
C59    H60     1.109   .     S
C59    H61     1.109   .     S
C59    H62     1.108   .     S
C63    H65     1.109   .     S
C63    H66     1.107   .     S
C63    H64     1.107   .     S
O67    C68     1.412   .     S
C68    H69     1.108   .     S
C68    H71     1.110   .     S
C68    H70     1.111   .     S
O72    C73     1.410   .     S
C73    H74     1.113   .     S
C73    H75     1.113   .     S
C73    H76     1.109   .     S
C77    H78     1.110   .     S
C77    H79     1.110   .     S
C77    H80     1.095   .     S
C81    H82     1.110   .     S
C81    H83     1.108   .     S
C81    H84     1.106   .     S
C85    H87     1.111   .     S
C85    H86     1.111   .     S
C85    H88     1.106   .     S
C89    H91     1.111   .     S
C89    H92     1.111   .     S
C89    H90     1.110   .     S
O93    C94     1.418   .     S
C94    H97     1.108   .     S
C94    H96     1.109   .     S
C94    H95     1.115   .     S
O98    C99     1.416   .     S
C99    H100    1.114   .     S
C99    H437    1.110   .     S
C99    H102    1.106   .     S
H101   C771    1.110   1_545 S
O103   C104    1.415   .     S
C104   H106    1.110   .     S
C104   H105    1.114   .     S
C104   H107    1.110   .     S
O108   C109    1.416   .     S
C109   H111    1.111   .     S
C109   H112    1.109   .     S
C109   H110    1.113   .     S
O113   C117    1.302   .     A
O113   Cu125   1.964   .     S
O114   C118    1.305   .     A
O114   Cu126   1.964   .     S
O115   C118    1.298   .     A
O115   Cu125   1.979   .     S
O116   C117    1.302   .     A
O116   Cu126   1.979   .     S
C117   C148    1.474   .     S
C118   C147    1.478   .     S
O119   C123    1.293   .     A
O119   Cu125   1.970   .     S
O120   C124    1.292   .     A
O120   Cu126   1.970   .     S
O121   Cu125   1.967   .     S
O121   C124    1.298   .     A
O122   Cu126   1.967   .     S
O122   C123    1.297   .     A
C123   C130    1.456   .     S
C124   C129    1.456   .     S
Cu125  Cu126   2.694   .     S
Cu125  N153    2.025   .     S
Cu126  N154    2.025   .     S
C127   C137    1.421   .     A
C127   C129    1.407   .     A
C127   C155    1.526   .     S
C128   C159    1.525   .     S
C128   C138    1.419   .     A
C128   C130    1.407   .     A
C129   C131    1.403   .     A
C130   C132    1.413   .     A
C131   C133    1.412   .     A
C131   C163    1.523   .     S
C132   C167    1.529   .     S
C132   C134    1.427   .     A
C133   C139    1.410   .     A
C133   C135    1.415   .     A
C134   C140    1.429   .     A
C134   C136    1.431   .     A
C135   C137    1.421   .     A
C135   C1144   1.422   .     S
C136   C138    1.428   .     A
C136   C1143   1.422   1_554 S
C137   C142    1.408   .     A
C138   C141    1.426   .     A
C139   C171    1.518   .     S
C139   C1149   1.405   .     S
C140   C175    1.513   .     S
C140   C1150   1.397   1_554 S
C141   O179    1.392   .     S
C141   C1147   1.405   1_554 S
C142   O184    1.384   .     S
C142   C1148   1.397   .     S
C143   C189    1.512   .     S
C143   C148    1.404   .     A
C144   C193    1.521   .     S
C144   C147    1.430   .     A
C144   C258    1.412   .     S
C145   C197    1.518   .     S
C145   C147    1.416   .     A
C145   C255    1.393   .     S
C146   C201    1.520   .     S
C146   C148    1.412   .     A
C149   N154    1.371   .     A
C149   O205    1.394   .     S
C149   C824    1.438   1_545 S
C150   O210    1.379   .     S
C150   N153    1.379   .     A
C150   C487    1.434   .     S
C151   N154    1.364   .     A
C151   O215    1.388   .     S
C151   C822    1.434   1_545 S
C152   O220    1.379   .     S
C152   N153    1.376   .     A
C152   C485    1.438   .     S
C155   H156    1.110   .     S
C155   H157    1.107   .     S
C155   H158    1.109   .     S
C159   H161    1.104   .     S
C159   H162    1.106   .     S
C159   H160    1.106   .     S
C163   H164    1.109   .     S
C163   H165    1.106   .     S
C163   H166    1.111   .     S
C167   H168    1.101   .     S
C167   H169    1.105   .     S
C167   H170    1.108   .     S
C171   H172    1.109   .     S
C171   H173    1.109   .     S
C171   H174    1.108   .     S
C175   H177    1.109   .     S
C175   H178    1.107   .     S
C175   H176    1.107   .     S
O179   C180    1.412   .     S
C180   H181    1.108   .     S
C180   H183    1.110   .     S
C180   H182    1.111   .     S
O184   C185    1.410   .     S
C185   H186    1.113   .     S
C185   H187    1.113   .     S
C185   H188    1.109   .     S
C189   H190    1.110   .     S
C189   H191    1.110   .     S
C189   H192    1.095   .     S
C193   H194    1.110   .     S
C193   H195    1.108   .     S
C193   H196    1.106   .     S
C197   H199    1.111   .     S
C197   H198    1.111   .     S
C197   H200    1.106   .     S
C201   H203    1.111   .     S
C201   H204    1.111   .     S
C201   H202    1.110   .     S
O205   C206    1.418   .     S
C206   H209    1.108   .     S
C206   H208    1.109   .     S
C206   H207    1.115   .     S
O210   C211    1.416   .     S
C211   H212    1.114   .     S
C211   H549    1.110   .     S
C211   H214    1.106   .     S
H213   C883    1.110   1_545 S
O215   C216    1.415   .     S
C216   H218    1.110   .     S
C216   H217    1.114   .     S
C216   H219    1.110   .     S
O220   C221    1.416   .     S
C221   H223    1.111   .     S
C221   H224    1.109   .     S
C221   H222    1.113   .     S
O225   C229    1.302   .     A
O225   Cu237   1.964   .     S
O226   C230    1.305   .     A
O226   Cu238   1.964   .     S
O227   C230    1.298   .     A
O227   Cu237   1.979   .     S
O228   C229    1.302   .     A
O228   Cu238   1.979   .     S
C229   C260    1.474   .     S
C230   C259    1.478   .     S
O231   C235    1.293   .     A
O231   Cu237   1.970   .     S
O232   C236    1.292   .     A
O232   Cu238   1.970   .     S
O233   Cu237   1.967   .     S
O233   C236    1.298   .     A
O234   Cu238   1.967   .     S
O234   C235    1.297   .     A
C235   C242    1.456   .     S
C236   C241    1.456   .     S
Cu237  Cu238   2.694   .     S
Cu237  N265    2.025   .     S
Cu238  N266    2.025   .     S
C239   C249    1.421   .     A
C239   C241    1.407   .     A
C239   C267    1.526   .     S
C240   C271    1.525   .     S
C240   C250    1.419   .     A
C240   C242    1.407   .     A
C241   C243    1.403   .     A
C242   C244    1.413   .     A
C243   C245    1.412   .     A
C243   C275    1.523   .     S
C244   C279    1.529   .     S
C244   C246    1.427   .     A
C245   C251    1.410   .     A
C245   C247    1.415   .     A
C246   C252    1.429   .     A
C246   C248    1.431   .     A
C247   C249    1.421   .     A
C247   C1256   1.422   .     S
C248   C250    1.428   .     A
C248   C1255   1.422   1_554 S
C249   C254    1.408   .     A
C250   C253    1.426   .     A
C251   C283    1.518   .     S
C251   C1261   1.405   .     S
C252   C287    1.513   .     S
C252   C1262   1.397   1_554 S
C253   O291    1.392   .     S
C253   C1259   1.405   1_554 S
C254   O296    1.384   .     S
C254   C1260   1.397   .     S
C255   C301    1.512   .     S
C255   C260    1.404   .     A
C256   C305    1.521   .     S
C256   C259    1.430   .     A
C256   C34     1.412   1_655 S
C257   C309    1.518   .     S
C257   C259    1.416   .     A
C257   C31     1.393   1_655 S
C258   C313    1.520   .     S
C258   C260    1.412   .     A
C261   N266    1.371   .     A
C261   O317    1.394   .     S
C261   C936    1.438   1_545 S
C262   O322    1.379   .     S
C262   N265    1.379   .     A
C262   C599    1.434   .     S
C263   N266    1.364   .     A
C263   O327    1.388   .     S
C263   C934    1.434   1_545 S
C264   O332    1.379   .     S
C264   N265    1.376   .     A
C264   C597    1.438   .     S
C267   H268    1.110   .     S
C267   H269    1.107   .     S
C267   H270    1.109   .     S
C271   H273    1.104   .     S
C271   H274    1.106   .     S
C271   H272    1.106   .     S
C275   H276    1.109   .     S
C275   H277    1.106   .     S
C275   H278    1.111   .     S
C279   H280    1.101   .     S
C279   H281    1.105   .     S
C279   H282    1.108   .     S
C283   H284    1.109   .     S
C283   H285    1.109   .     S
C283   H286    1.108   .     S
C287   H289    1.109   .     S
C287   H290    1.107   .     S
C287   H288    1.107   .     S
O291   C292    1.412   .     S
C292   H293    1.108   .     S
C292   H295    1.110   .     S
C292   H294    1.111   .     S
O296   C297    1.410   .     S
C297   H298    1.113   .     S
C297   H299    1.113   .     S
C297   H300    1.109   .     S
C301   H302    1.110   .     S
C301   H303    1.110   .     S
C301   H304    1.095   .     S
C305   H306    1.110   .     S
C305   H307    1.108   .     S
C305   H308    1.106   .     S
C309   H311    1.111   .     S
C309   H310    1.111   .     S
C309   H312    1.106   .     S
C313   H315    1.111   .     S
C313   H316    1.111   .     S
C313   H314    1.110   .     S
O317   C318    1.418   .     S
C318   H321    1.108   .     S
C318   H320    1.109   .     S
C318   H319    1.115   .     S
O322   C323    1.416   .     S
C323   H324    1.114   .     S
C323   H661    1.110   .     S
C323   H326    1.106   .     S
H325   C995    1.110   1_545 S
O327   C328    1.415   .     S
C328   H330    1.110   .     S
C328   H329    1.114   .     S
C328   H331    1.110   .     S
O332   C333    1.416   .     S
C333   H335    1.111   .     S
C333   H336    1.109   .     S
C333   H334    1.113   .     S
O337   C341    1.302   .     A
O337   Cu349   1.964   .     S
O338   C342    1.305   .     A
O338   Cu350   1.964   .     S
O339   C342    1.298   .     A
O339   Cu349   1.979   .     S
O340   C341    1.302   .     A
O340   Cu350   1.979   .     S
C341   C372    1.474   .     S
C342   C371    1.478   .     S
O343   C347    1.293   .     A
O343   Cu349   1.970   .     S
O344   C348    1.292   .     A
O344   Cu350   1.970   .     S
O345   Cu349   1.967   .     S
O345   C348    1.298   .     A
O346   Cu350   1.967   .     S
O346   C347    1.297   .     A
C347   C354    1.456   .     S
C348   C353    1.456   .     S
Cu349  Cu350   2.694   .     S
Cu349  N377    2.025   .     S
Cu350  N378    2.025   .     S
C351   C361    1.421   .     A
C351   C353    1.407   .     A
C351   C379    1.526   .     S
C352   C383    1.525   .     S
C352   C362    1.419   .     A
C352   C354    1.407   .     A
C353   C355    1.403   .     A
C354   C356    1.413   .     A
C355   C357    1.412   .     A
C355   C387    1.523   .     S
C356   C391    1.529   .     S
C356   C358    1.427   .     A
C357   C363    1.410   .     A
C357   C359    1.415   .     A
C358   C364    1.429   .     A
C358   C360    1.431   .     A
C359   C361    1.421   .     A
C359   C1368   1.422   .     S
C360   C362    1.428   .     A
C360   C1367   1.422   1_554 S
C361   C366    1.408   .     A
C362   C365    1.426   .     A
C363   C395    1.518   .     S
C363   C1373   1.405   .     S
C364   C399    1.513   .     S
C364   C1374   1.397   1_554 S
C365   O403    1.392   .     S
C365   C1371   1.405   1_554 S
C366   O408    1.384   .     S
C366   C1372   1.397   .     S
C367   C413    1.512   .     S
C367   C372    1.404   .     A
C367   C593    1.393   1_455 S
C368   C417    1.521   .     S
C368   C371    1.430   .     A
C368   C482    1.412   .     S
C369   C421    1.518   .     S
C369   C371    1.416   .     A
C369   C479    1.393   .     S
C370   C425    1.520   .     S
C370   C372    1.412   .     A
C370   C592    1.412   1_455 S
C373   N378    1.371   .     A
C373   O429    1.394   .     S
C374   O434    1.379   .     S
C374   N377    1.379   .     A
C374   C711    1.434   .     S
C375   N378    1.364   .     A
C375   O439    1.388   .     S
C376   O444    1.379   .     S
C376   N377    1.376   .     A
C376   C709    1.438   .     S
C379   H380    1.110   .     S
C379   H381    1.107   .     S
C379   H382    1.109   .     S
C383   H385    1.104   .     S
C383   H386    1.106   .     S
C383   H384    1.106   .     S
C387   H388    1.109   .     S
C387   H389    1.106   .     S
C387   H390    1.111   .     S
C391   H392    1.101   .     S
C391   H393    1.105   .     S
C391   H394    1.108   .     S
C395   H396    1.109   .     S
C395   H397    1.109   .     S
C395   H398    1.108   .     S
C399   H401    1.109   .     S
C399   H402    1.107   .     S
C399   H400    1.107   .     S
O403   C404    1.412   .     S
C404   H405    1.108   .     S
C404   H407    1.110   .     S
C404   H406    1.111   .     S
O408   C409    1.410   .     S
C409   H410    1.113   .     S
C409   H411    1.113   .     S
C409   H412    1.109   .     S
C413   H414    1.110   .     S
C413   H415    1.110   .     S
C413   H416    1.095   .     S
C417   H418    1.110   .     S
C417   H419    1.108   .     S
C417   H420    1.106   .     S
C421   H423    1.111   .     S
C421   H422    1.111   .     S
C421   H424    1.106   .     S
C425   H427    1.111   .     S
C425   H428    1.111   .     S
C425   H426    1.110   .     S
O429   C430    1.418   .     S
C430   H433    1.108   .     S
C430   H432    1.109   .     S
C430   H431    1.115   .     S
O434   C435    1.416   .     S
C435   H436    1.114   .     S
C435   H773    1.110   .     S
C435   H438    1.106   .     S
O439   C440    1.415   .     S
C440   H442    1.110   .     S
C440   H441    1.114   .     S
C440   H443    1.110   .     S
O444   C445    1.416   .     S
C445   H447    1.111   .     S
C445   H448    1.109   .     S
C445   H446    1.113   .     S
O449   C453    1.302   .     A
O449   Cu461   1.964   .     S
O450   C454    1.305   .     A
O450   Cu462   1.964   .     S
O451   C454    1.298   .     A
O451   Cu461   1.979   .     S
O452   C453    1.302   .     A
O452   Cu462   1.979   .     S
C453   C484    1.474   .     S
C454   C483    1.478   .     S
O455   C459    1.293   .     A
O455   Cu461   1.970   .     S
O456   C460    1.292   .     A
O456   Cu462   1.970   .     S
O457   Cu461   1.967   .     S
O457   C460    1.298   .     A
O458   Cu462   1.967   .     S
O458   C459    1.297   .     A
C459   C466    1.456   .     S
C460   C465    1.456   .     S
Cu461  Cu462   2.694   .     S
Cu461  N489    2.025   .     S
Cu462  N490    2.025   .     S
C463   C473    1.421   .     A
C463   C465    1.407   .     A
C463   C491    1.526   .     S
C464   C495    1.525   .     S
C464   C474    1.419   .     A
C464   C466    1.407   .     A
C465   C467    1.403   .     A
C466   C468    1.413   .     A
C467   C469    1.412   .     A
C467   C499    1.523   .     S
C468   C503    1.529   .     S
C468   C470    1.427   .     A
C469   C475    1.410   .     A
C469   C471    1.415   .     A
C470   C476    1.429   .     A
C470   C472    1.431   .     A
C471   C473    1.421   .     A
C471   C1480   1.422   .     S
C472   C474    1.428   .     A
C472   C1479   1.422   1_554 S
C473   C478    1.408   .     A
C474   C477    1.426   .     A
C475   C507    1.518   .     S
C475   C1485   1.405   .     S
C476   C511    1.513   .     S
C476   C1486   1.397   1_554 S
C477   O515    1.392   .     S
C477   C1483   1.405   1_554 S
C478   O520    1.384   .     S
C478   C1484   1.397   .     S
C479   C525    1.512   .     S
C479   C484    1.404   .     A
C480   C529    1.521   .     S
C480   C483    1.430   .     A
C480   C594    1.412   .     S
C481   C533    1.518   .     S
C481   C483    1.416   .     A
C481   C591    1.393   .     S
C482   C537    1.520   .     S
C482   C484    1.412   .     A
C485   N490    1.371   .     A
C485   O541    1.394   .     S
C486   O546    1.379   .     S
C486   N489    1.379   .     A
C486   C823    1.434   .     S
C487   N490    1.364   .     A
C487   O551    1.388   .     S
C488   O556    1.379   .     S
C488   N489    1.376   .     A
C488   C821    1.438   .     S
C491   H492    1.110   .     S
C491   H493    1.107   .     S
C491   H494    1.109   .     S
C495   H497    1.104   .     S
C495   H498    1.106   .     S
C495   H496    1.106   .     S
C499   H500    1.109   .     S
C499   H501    1.106   .     S
C499   H502    1.111   .     S
C503   H504    1.101   .     S
C503   H505    1.105   .     S
C503   H506    1.108   .     S
C507   H508    1.109   .     S
C507   H509    1.109   .     S
C507   H510    1.108   .     S
C511   H513    1.109   .     S
C511   H514    1.107   .     S
C511   H512    1.107   .     S
O515   C516    1.412   .     S
C516   H517    1.108   .     S
C516   H519    1.110   .     S
C516   H518    1.111   .     S
O520   C521    1.410   .     S
C521   H522    1.113   .     S
C521   H523    1.113   .     S
C521   H524    1.109   .     S
C525   H526    1.110   .     S
C525   H527    1.110   .     S
C525   H528    1.095   .     S
C529   H530    1.110   .     S
C529   H531    1.108   .     S
C529   H532    1.106   .     S
C533   H535    1.111   .     S
C533   H534    1.111   .     S
C533   H536    1.106   .     S
C537   H539    1.111   .     S
C537   H540    1.111   .     S
C537   H538    1.110   .     S
O541   C542    1.418   .     S
C542   H545    1.108   .     S
C542   H544    1.109   .     S
C542   H543    1.115   .     S
O546   C547    1.416   .     S
C547   H548    1.114   .     S
C547   H885    1.110   .     S
C547   H550    1.106   .     S
O551   C552    1.415   .     S
C552   H554    1.110   .     S
C552   H553    1.114   .     S
C552   H555    1.110   .     S
O556   C557    1.416   .     S
C557   H559    1.111   .     S
C557   H560    1.109   .     S
C557   H558    1.113   .     S
O561   C565    1.302   .     A
O561   Cu573   1.964   .     S
O562   C566    1.305   .     A
O562   Cu574   1.964   .     S
O563   C566    1.298   .     A
O563   Cu573   1.979   .     S
O564   C565    1.302   .     A
O564   Cu574   1.979   .     S
C565   C596    1.474   .     S
C566   C595    1.478   .     S
O567   C571    1.293   .     A
O567   Cu573   1.970   .     S
O568   C572    1.292   .     A
O568   Cu574   1.970   .     S
O569   Cu573   1.967   .     S
O569   C572    1.298   .     A
O570   Cu574   1.967   .     S
O570   C571    1.297   .     A
C571   C578    1.456   .     S
C572   C577    1.456   .     S
Cu573  Cu574   2.694   .     S
Cu573  N601    2.025   .     S
Cu574  N602    2.025   .     S
C575   C585    1.421   .     A
C575   C577    1.407   .     A
C575   C603    1.526   .     S
C576   C607    1.525   .     S
C576   C586    1.419   .     A
C576   C578    1.407   .     A
C577   C579    1.403   .     A
C578   C580    1.413   .     A
C579   C581    1.412   .     A
C579   C611    1.523   .     S
C580   C615    1.529   .     S
C580   C582    1.427   .     A
C581   C587    1.410   .     A
C581   C583    1.415   .     A
C582   C588    1.429   .     A
C582   C584    1.431   .     A
C583   C585    1.421   .     A
C583   C1592   1.422   .     S
C584   C586    1.428   .     A
C584   C1591   1.422   1_554 S
C585   C590    1.408   .     A
C586   C589    1.426   .     A
C587   C619    1.518   .     S
C587   C1597   1.405   .     S
C588   C623    1.513   .     S
C588   C1598   1.397   1_554 S
C589   O627    1.392   .     S
C589   C1595   1.405   1_554 S
C590   O632    1.384   .     S
C590   C1596   1.397   .     S
C591   C637    1.512   .     S
C591   C596    1.404   .     A
C592   C641    1.521   .     S
C592   C595    1.430   .     A
C592   C370    1.412   1_655 S
C593   C645    1.518   .     S
C593   C595    1.416   .     A
C593   C367    1.393   1_655 S
C594   C649    1.520   .     S
C594   C596    1.412   .     A
C597   N602    1.371   .     A
C597   O653    1.394   .     S
C598   O658    1.379   .     S
C598   N601    1.379   .     A
C598   C935    1.434   .     S
C599   N602    1.364   .     A
C599   O663    1.388   .     S
C600   O668    1.379   .     S
C600   N601    1.376   .     A
C600   C933    1.438   .     S
C603   H604    1.110   .     S
C603   H605    1.107   .     S
C603   H606    1.109   .     S
C607   H609    1.104   .     S
C607   H610    1.106   .     S
C607   H608    1.106   .     S
C611   H612    1.109   .     S
C611   H613    1.106   .     S
C611   H614    1.111   .     S
C615   H616    1.101   .     S
C615   H617    1.105   .     S
C615   H618    1.108   .     S
C619   H620    1.109   .     S
C619   H621    1.109   .     S
C619   H622    1.108   .     S
C623   H625    1.109   .     S
C623   H626    1.107   .     S
C623   H624    1.107   .     S
O627   C628    1.412   .     S
C628   H629    1.108   .     S
C628   H631    1.110   .     S
C628   H630    1.111   .     S
O632   C633    1.410   .     S
C633   H634    1.113   .     S
C633   H635    1.113   .     S
C633   H636    1.109   .     S
C637   H638    1.110   .     S
C637   H639    1.110   .     S
C637   H640    1.095   .     S
C641   H642    1.110   .     S
C641   H643    1.108   .     S
C641   H644    1.106   .     S
C645   H647    1.111   .     S
C645   H646    1.111   .     S
C645   H648    1.106   .     S
C649   H651    1.111   .     S
C649   H652    1.111   .     S
C649   H650    1.110   .     S
O653   C654    1.418   .     S
C654   H657    1.108   .     S
C654   H656    1.109   .     S
C654   H655    1.115   .     S
O658   C659    1.416   .     S
C659   H660    1.114   .     S
C659   H997    1.110   .     S
C659   H662    1.106   .     S
O663   C664    1.415   .     S
C664   H666    1.110   .     S
C664   H665    1.114   .     S
C664   H667    1.110   .     S
O668   C669    1.416   .     S
C669   H671    1.111   .     S
C669   H672    1.109   .     S
C669   H670    1.113   .     S
O673   C677    1.302   .     A
O673   Cu685   1.964   .     S
O674   C678    1.305   .     A
O674   Cu686   1.964   .     S
O675   C678    1.298   .     A
O675   Cu685   1.979   .     S
O676   C677    1.302   .     A
O676   Cu686   1.979   .     S
C677   C708    1.474   .     S
C678   C707    1.478   .     S
O679   C683    1.293   .     A
O679   Cu685   1.970   .     S
O680   C684    1.292   .     A
O680   Cu686   1.970   .     S
O681   Cu685   1.967   .     S
O681   C684    1.298   .     A
O682   Cu686   1.967   .     S
O682   C683    1.297   .     A
C683   C690    1.456   .     S
C684   C689    1.456   .     S
Cu685  Cu686   2.694   .     S
Cu685  N713    2.025   .     S
Cu686  N714    2.025   .     S
C687   C697    1.421   .     A
C687   C689    1.407   .     A
C687   C715    1.526   .     S
C688   C719    1.525   .     S
C688   C698    1.419   .     A
C688   C690    1.407   .     A
C689   C691    1.403   .     A
C690   C692    1.413   .     A
C691   C693    1.412   .     A
C691   C723    1.523   .     S
C692   C727    1.529   .     S
C692   C694    1.427   .     A
C693   C699    1.410   .     A
C693   C695    1.415   .     A
C694   C700    1.429   .     A
C694   C696    1.431   .     A
C695   C697    1.421   .     A
C695   C1704   1.422   .     S
C696   C698    1.428   .     A
C696   C1703   1.422   1_554 S
C697   C702    1.408   .     A
C698   C701    1.426   .     A
C699   C731    1.518   .     S
C699   C1709   1.405   .     S
C700   C735    1.513   .     S
C700   C1710   1.397   1_554 S
C701   O739    1.392   .     S
C701   C1707   1.405   1_554 S
C702   O744    1.384   .     S
C702   C1708   1.397   .     S
C703   C749    1.512   .     S
C703   C708    1.404   .     A
C703   C929    1.393   1_455 S
C704   C753    1.521   .     S
C704   C707    1.430   .     A
C704   C818    1.412   .     S
C705   C757    1.518   .     S
C705   C707    1.416   .     A
C705   C815    1.393   .     S
C706   C761    1.520   .     S
C706   C708    1.412   .     A
C706   C928    1.412   1_455 S
C709   N714    1.371   .     A
C709   O765    1.394   .     S
C710   O770    1.379   .     S
C710   N713    1.379   .     A
C710   C39     1.434   1_565 S
C711   N714    1.364   .     A
C711   O775    1.388   .     S
C712   O780    1.379   .     S
C712   N713    1.376   .     A
C712   C37     1.438   1_565 S
C715   H716    1.110   .     S
C715   H717    1.107   .     S
C715   H718    1.109   .     S
C719   H721    1.104   .     S
C719   H722    1.106   .     S
C719   H720    1.106   .     S
C723   H724    1.109   .     S
C723   H725    1.106   .     S
C723   H726    1.111   .     S
C727   H728    1.101   .     S
C727   H729    1.105   .     S
C727   H730    1.108   .     S
C731   H732    1.109   .     S
C731   H733    1.109   .     S
C731   H734    1.108   .     S
C735   H737    1.109   .     S
C735   H738    1.107   .     S
C735   H736    1.107   .     S
O739   C740    1.412   .     S
C740   H741    1.108   .     S
C740   H743    1.110   .     S
C740   H742    1.111   .     S
O744   C745    1.410   .     S
C745   H746    1.113   .     S
C745   H747    1.113   .     S
C745   H748    1.109   .     S
C749   H750    1.110   .     S
C749   H751    1.110   .     S
C749   H752    1.095   .     S
C753   H754    1.110   .     S
C753   H755    1.108   .     S
C753   H756    1.106   .     S
C757   H759    1.111   .     S
C757   H758    1.111   .     S
C757   H760    1.106   .     S
C761   H763    1.111   .     S
C761   H764    1.111   .     S
C761   H762    1.110   .     S
O765   C766    1.418   .     S
C766   H769    1.108   .     S
C766   H768    1.109   .     S
C766   H767    1.115   .     S
O770   C771    1.416   .     S
C771   H772    1.114   .     S
C771   H101    1.110   1_565 S
C771   H774    1.106   .     S
O775   C776    1.415   .     S
C776   H778    1.110   .     S
C776   H777    1.114   .     S
C776   H779    1.110   .     S
O780   C781    1.416   .     S
C781   H783    1.111   .     S
C781   H784    1.109   .     S
C781   H782    1.113   .     S
O785   C789    1.302   .     A
O785   Cu797   1.964   .     S
O786   C790    1.305   .     A
O786   Cu798   1.964   .     S
O787   C790    1.298   .     A
O787   Cu797   1.979   .     S
O788   C789    1.302   .     A
O788   Cu798   1.979   .     S
C789   C820    1.474   .     S
C790   C819    1.478   .     S
O791   C795    1.293   .     A
O791   Cu797   1.970   .     S
O792   C796    1.292   .     A
O792   Cu798   1.970   .     S
O793   Cu797   1.967   .     S
O793   C796    1.298   .     A
O794   Cu798   1.967   .     S
O794   C795    1.297   .     A
C795   C802    1.456   .     S
C796   C801    1.456   .     S
Cu797  Cu798   2.694   .     S
Cu797  N825    2.025   .     S
Cu798  N826    2.025   .     S
C799   C809    1.421   .     A
C799   C801    1.407   .     A
C799   C827    1.526   .     S
C800   C831    1.525   .     S
C800   C810    1.419   .     A
C800   C802    1.407   .     A
C801   C803    1.403   .     A
C802   C804    1.413   .     A
C803   C805    1.412   .     A
C803   C835    1.523   .     S
C804   C839    1.529   .     S
C804   C806    1.427   .     A
C805   C811    1.410   .     A
C805   C807    1.415   .     A
C806   C812    1.429   .     A
C806   C808    1.431   .     A
C807   C809    1.421   .     A
C807   C1816   1.422   .     S
C808   C810    1.428   .     A
C808   C1815   1.422   1_554 S
C809   C814    1.408   .     A
C810   C813    1.426   .     A
C811   C843    1.518   .     S
C811   C1821   1.405   .     S
C812   C847    1.513   .     S
C812   C1822   1.397   1_554 S
C813   O851    1.392   .     S
C813   C1819   1.405   1_554 S
C814   O856    1.384   .     S
C814   C1820   1.397   .     S
C815   C861    1.512   .     S
C815   C820    1.404   .     A
C816   C865    1.521   .     S
C816   C819    1.430   .     A
C816   C930    1.412   .     S
C817   C869    1.518   .     S
C817   C819    1.416   .     A
C817   C927    1.393   .     S
C818   C873    1.520   .     S
C818   C820    1.412   .     A
C821   N826    1.371   .     A
C821   O877    1.394   .     S
C822   O882    1.379   .     S
C822   N825    1.379   .     A
C822   C151    1.434   1_565 S
C823   N826    1.364   .     A
C823   O887    1.388   .     S
C824   O892    1.379   .     S
C824   N825    1.376   .     A
C824   C149    1.438   1_565 S
C827   H828    1.110   .     S
C827   H829    1.107   .     S
C827   H830    1.109   .     S
C831   H833    1.104   .     S
C831   H834    1.106   .     S
C831   H832    1.106   .     S
C835   H836    1.109   .     S
C835   H837    1.106   .     S
C835   H838    1.111   .     S
C839   H840    1.101   .     S
C839   H841    1.105   .     S
C839   H842    1.108   .     S
C843   H844    1.109   .     S
C843   H845    1.109   .     S
C843   H846    1.108   .     S
C847   H849    1.109   .     S
C847   H850    1.107   .     S
C847   H848    1.107   .     S
O851   C852    1.412   .     S
C852   H853    1.108   .     S
C852   H855    1.110   .     S
C852   H854    1.111   .     S
O856   C857    1.410   .     S
C857   H858    1.113   .     S
C857   H859    1.113   .     S
C857   H860    1.109   .     S
C861   H862    1.110   .     S
C861   H863    1.110   .     S
C861   H864    1.095   .     S
C865   H866    1.110   .     S
C865   H867    1.108   .     S
C865   H868    1.106   .     S
C869   H871    1.111   .     S
C869   H870    1.111   .     S
C869   H872    1.106   .     S
C873   H875    1.111   .     S
C873   H876    1.111   .     S
C873   H874    1.110   .     S
O877   C878    1.418   .     S
C878   H881    1.108   .     S
C878   H880    1.109   .     S
C878   H879    1.115   .     S
O882   C883    1.416   .     S
C883   H884    1.114   .     S
C883   H213    1.110   1_565 S
C883   H886    1.106   .     S
O887   C888    1.415   .     S
C888   H890    1.110   .     S
C888   H889    1.114   .     S
C888   H891    1.110   .     S
O892   C893    1.416   .     S
C893   H895    1.111   .     S
C893   H896    1.109   .     S
C893   H894    1.113   .     S
O897   C901    1.302   .     A
O897   Cu909   1.964   .     S
O898   C902    1.305   .     A
O898   Cu910   1.964   .     S
O899   C902    1.298   .     A
O899   Cu909   1.979   .     S
O900   C901    1.302   .     A
O900   Cu910   1.979   .     S
C901   C932    1.474   .     S
C902   C931    1.478   .     S
O903   C907    1.293   .     A
O903   Cu909   1.970   .     S
O904   C908    1.292   .     A
O904   Cu910   1.970   .     S
O905   Cu909   1.967   .     S
O905   C908    1.298   .     A
O906   Cu910   1.967   .     S
O906   C907    1.297   .     A
C907   C914    1.456   .     S
C908   C913    1.456   .     S
Cu909  Cu910   2.694   .     S
Cu909  N937    2.025   .     S
Cu910  N938    2.025   .     S
C911   C921    1.421   .     A
C911   C913    1.407   .     A
C911   C939    1.526   .     S
C912   C943    1.525   .     S
C912   C922    1.419   .     A
C912   C914    1.407   .     A
C913   C915    1.403   .     A
C914   C916    1.413   .     A
C915   C917    1.412   .     A
C915   C947    1.523   .     S
C916   C951    1.529   .     S
C916   C918    1.427   .     A
C917   C923    1.410   .     A
C917   C919    1.415   .     A
C918   C924    1.429   .     A
C918   C920    1.431   .     A
C919   C921    1.421   .     A
C919   C1928   1.422   .     S
C920   C922    1.428   .     A
C920   C1927   1.422   1_554 S
C921   C926    1.408   .     A
C922   C925    1.426   .     A
C923   C955    1.518   .     S
C923   C1933   1.405   .     S
C924   C959    1.513   .     S
C924   C1934   1.397   1_554 S
C925   O963    1.392   .     S
C925   C1931   1.405   1_554 S
C926   O968    1.384   .     S
C926   C1932   1.397   .     S
C927   C973    1.512   .     S
C927   C932    1.404   .     A
C928   C977    1.521   .     S
C928   C931    1.430   .     A
C928   C706    1.412   1_655 S
C929   C981    1.518   .     S
C929   C931    1.416   .     A
C929   C703    1.393   1_655 S
C930   C985    1.520   .     S
C930   C932    1.412   .     A
C933   N938    1.371   .     A
C933   O989    1.394   .     S
C934   O994    1.379   .     S
C934   N937    1.379   .     A
C934   C263    1.434   1_565 S
C935   N938    1.364   .     A
C935   O999    1.388   .     S
C936   O1004   1.379   .     S
C936   N937    1.376   .     A
C936   C261    1.438   1_565 S
C939   H940    1.110   .     S
C939   H941    1.107   .     S
C939   H942    1.109   .     S
C943   H945    1.104   .     S
C943   H946    1.106   .     S
C943   H944    1.106   .     S
C947   H948    1.109   .     S
C947   H949    1.106   .     S
C947   H950    1.111   .     S
C951   H952    1.101   .     S
C951   H953    1.105   .     S
C951   H954    1.108   .     S
C955   H956    1.109   .     S
C955   H957    1.109   .     S
C955   H958    1.108   .     S
C959   H961    1.109   .     S
C959   H962    1.107   .     S
C959   H960    1.107   .     S
O963   C964    1.412   .     S
C964   H965    1.108   .     S
C964   H967    1.110   .     S
C964   H966    1.111   .     S
O968   C969    1.410   .     S
C969   H970    1.113   .     S
C969   H971    1.113   .     S
C969   H972    1.109   .     S
C973   H974    1.110   .     S
C973   H975    1.110   .     S
C973   H976    1.095   .     S
C977   H978    1.110   .     S
C977   H979    1.108   .     S
C977   H980    1.106   .     S
C981   H983    1.111   .     S
C981   H982    1.111   .     S
C981   H984    1.106   .     S
C985   H987    1.111   .     S
C985   H988    1.111   .     S
C985   H986    1.110   .     S
O989   C990    1.418   .     S
C990   H993    1.108   .     S
C990   H992    1.109   .     S
C990   H991    1.115   .     S
O994   C995    1.416   .     S
C995   H996    1.114   .     S
C995   H325    1.110   1_565 S
C995   H998    1.106   .     S
O999   C1000   1.415   .     S
C1000  H1002   1.110   .     S
C1000  H1001   1.114   .     S
C1000  H1003   1.110   .     S
O1004  C1005   1.416   .     S
C1005  H1007   1.111   .     S
C1005  H1008   1.109   .     S
C1005  H1006   1.113   .     S
O1009  C1013   1.302   .     A
O1009  Cu1021  1.964   .     S
O1010  C1014   1.305   .     A
O1010  Cu1022  1.964   .     S
O1011  C1014   1.298   .     A
O1011  Cu1021  1.979   .     S
O1012  C1013   1.302   .     A
O1012  Cu1022  1.979   .     S
C1013  C1044   1.474   .     S
C1014  C1043   1.478   .     S
O1015  C1019   1.293   .     A
O1015  Cu1021  1.970   .     S
O1016  C1020   1.292   .     A
O1016  Cu1022  1.970   .     S
O1017  Cu1021  1.967   .     S
O1017  C1020   1.298   .     A
O1018  Cu1022  1.967   .     S
O1018  C1019   1.297   .     A
C1019  C1026   1.456   .     S
C1020  C1025   1.456   .     S
Cu1021 Cu1022  2.694   .     S
Cu1021 N1049   2.025   .     S
Cu1022 N1050   2.025   .     S
C1023  C1033   1.421   .     A
C1023  C1025   1.407   .     A
C1023  C1051   1.526   .     S
C1024  C1055   1.525   .     S
C1024  C1034   1.419   .     A
C1024  C1026   1.407   .     A
C1025  C1027   1.403   .     A
C1026  C1028   1.413   .     A
C1027  C1029   1.412   .     A
C1027  C1059   1.523   .     S
C1028  C1063   1.529   .     S
C1028  C1030   1.427   .     A
C1029  C1035   1.410   .     A
C1029  C1031   1.415   .     A
C1030  C1036   1.429   .     A
C1030  C1032   1.431   .     A
C1031  C1033   1.421   .     A
C1031  C24     1.422   1_556 S
C1032  C1034   1.428   .     A
C1033  C1038   1.408   .     A
C1034  C1037   1.426   .     A
C1035  C1067   1.518   .     S
C1035  C29     1.405   1_556 S
C1036  C1071   1.513   .     S
C1037  O1075   1.392   .     S
C1038  O1080   1.384   .     S
C1038  C28     1.397   1_556 S
C1039  C1085   1.512   .     S
C1039  C1044   1.404   .     A
C1039  C1265   1.393   1_455 S
C1040  C1089   1.521   .     S
C1040  C1043   1.430   .     A
C1040  C1154   1.412   .     S
C1041  C1093   1.518   .     S
C1041  C1043   1.416   .     A
C1041  C1151   1.393   .     S
C1042  C1097   1.520   .     S
C1042  C1044   1.412   .     A
C1042  C1264   1.412   1_455 S
C1045  N1050   1.371   .     A
C1045  O1101   1.394   .     S
C1045  C1720   1.438   1_545 S
C1046  O1106   1.379   .     S
C1046  N1049   1.379   .     A
C1046  C1383   1.434   .     S
C1047  N1050   1.364   .     A
C1047  O1111   1.388   .     S
C1047  C1718   1.434   1_545 S
C1048  O1116   1.379   .     S
C1048  N1049   1.376   .     A
C1048  C1381   1.438   .     S
C1051  H1052   1.110   .     S
C1051  H1053   1.107   .     S
C1051  H1054   1.109   .     S
C1055  H1057   1.104   .     S
C1055  H1058   1.106   .     S
C1055  H1056   1.106   .     S
C1059  H1060   1.109   .     S
C1059  H1061   1.106   .     S
C1059  H1062   1.111   .     S
C1063  H1064   1.101   .     S
C1063  H1065   1.105   .     S
C1063  H1066   1.108   .     S
C1067  H1068   1.109   .     S
C1067  H1069   1.109   .     S
C1067  H1070   1.108   .     S
C1071  H1073   1.109   .     S
C1071  H1074   1.107   .     S
C1071  H1072   1.107   .     S
O1075  C1076   1.412   .     S
C1076  H1077   1.108   .     S
C1076  H1079   1.110   .     S
C1076  H1078   1.111   .     S
O1080  C1081   1.410   .     S
C1081  H1082   1.113   .     S
C1081  H1083   1.113   .     S
C1081  H1084   1.109   .     S
C1085  H1086   1.110   .     S
C1085  H1087   1.110   .     S
C1085  H1088   1.095   .     S
C1089  H1090   1.110   .     S
C1089  H1091   1.108   .     S
C1089  H1092   1.106   .     S
C1093  H1095   1.111   .     S
C1093  H1094   1.111   .     S
C1093  H1096   1.106   .     S
C1097  H1099   1.111   .     S
C1097  H1100   1.111   .     S
C1097  H1098   1.110   .     S
O1101  C1102   1.418   .     S
C1102  H1105   1.108   .     S
C1102  H1104   1.109   .     S
C1102  H1103   1.115   .     S
O1106  C1107   1.416   .     S
C1107  H1108   1.114   .     S
C1107  H1445   1.110   .     S
C1107  H1110   1.106   .     S
H1109  C1779   1.110   1_545 S
O1111  C1112   1.415   .     S
C1112  H1114   1.110   .     S
C1112  H1113   1.114   .     S
C1112  H1115   1.110   .     S
O1116  C1117   1.416   .     S
C1117  H1119   1.111   .     S
C1117  H1120   1.109   .     S
C1117  H1118   1.113   .     S
O1121  C1125   1.302   .     A
O1121  Cu1133  1.964   .     S
O1122  C1126   1.305   .     A
O1122  Cu1134  1.964   .     S
O1123  C1126   1.298   .     A
O1123  Cu1133  1.979   .     S
O1124  C1125   1.302   .     A
O1124  Cu1134  1.979   .     S
C1125  C1156   1.474   .     S
C1126  C1155   1.478   .     S
O1127  C1131   1.293   .     A
O1127  Cu1133  1.970   .     S
O1128  C1132   1.292   .     A
O1128  Cu1134  1.970   .     S
O1129  Cu1133  1.967   .     S
O1129  C1132   1.298   .     A
O1130  Cu1134  1.967   .     S
O1130  C1131   1.297   .     A
C1131  C1138   1.456   .     S
C1132  C1137   1.456   .     S
Cu1133 Cu1134  2.694   .     S
Cu1133 N1161   2.025   .     S
Cu1134 N1162   2.025   .     S
C1135  C1145   1.421   .     A
C1135  C1137   1.407   .     A
C1135  C1163   1.526   .     S
C1136  C1167   1.525   .     S
C1136  C1146   1.419   .     A
C1136  C1138   1.407   .     A
C1137  C1139   1.403   .     A
C1138  C1140   1.413   .     A
C1139  C1141   1.412   .     A
C1139  C1171   1.523   .     S
C1140  C1175   1.529   .     S
C1140  C1142   1.427   .     A
C1141  C1147   1.410   .     A
C1141  C1143   1.415   .     A
C1142  C1148   1.429   .     A
C1142  C1144   1.431   .     A
C1143  C1145   1.421   .     A
C1143  C136    1.422   1_556 S
C1144  C1146   1.428   .     A
C1145  C1150   1.408   .     A
C1146  C1149   1.426   .     A
C1147  C1179   1.518   .     S
C1147  C141    1.405   1_556 S
C1148  C1183   1.513   .     S
C1149  O1187   1.392   .     S
C1150  O1192   1.384   .     S
C1150  C140    1.397   1_556 S
C1151  C1197   1.512   .     S
C1151  C1156   1.404   .     A
C1152  C1201   1.521   .     S
C1152  C1155   1.430   .     A
C1152  C1266   1.412   .     S
C1153  C1205   1.518   .     S
C1153  C1155   1.416   .     A
C1153  C1263   1.393   .     S
C1154  C1209   1.520   .     S
C1154  C1156   1.412   .     A
C1157  N1162   1.371   .     A
C1157  O1213   1.394   .     S
C1157  C1832   1.438   1_545 S
C1158  O1218   1.379   .     S
C1158  N1161   1.379   .     A
C1158  C1495   1.434   .     S
C1159  N1162   1.364   .     A
C1159  O1223   1.388   .     S
C1159  C1830   1.434   1_545 S
C1160  O1228   1.379   .     S
C1160  N1161   1.376   .     A
C1160  C1493   1.438   .     S
C1163  H1164   1.110   .     S
C1163  H1165   1.107   .     S
C1163  H1166   1.109   .     S
C1167  H1169   1.104   .     S
C1167  H1170   1.106   .     S
C1167  H1168   1.106   .     S
C1171  H1172   1.109   .     S
C1171  H1173   1.106   .     S
C1171  H1174   1.111   .     S
C1175  H1176   1.101   .     S
C1175  H1177   1.105   .     S
C1175  H1178   1.108   .     S
C1179  H1180   1.109   .     S
C1179  H1181   1.109   .     S
C1179  H1182   1.108   .     S
C1183  H1185   1.109   .     S
C1183  H1186   1.107   .     S
C1183  H1184   1.107   .     S
O1187  C1188   1.412   .     S
C1188  H1189   1.108   .     S
C1188  H1191   1.110   .     S
C1188  H1190   1.111   .     S
O1192  C1193   1.410   .     S
C1193  H1194   1.113   .     S
C1193  H1195   1.113   .     S
C1193  H1196   1.109   .     S
C1197  H1198   1.110   .     S
C1197  H1199   1.110   .     S
C1197  H1200   1.095   .     S
C1201  H1202   1.110   .     S
C1201  H1203   1.108   .     S
C1201  H1204   1.106   .     S
C1205  H1207   1.111   .     S
C1205  H1206   1.111   .     S
C1205  H1208   1.106   .     S
C1209  H1211   1.111   .     S
C1209  H1212   1.111   .     S
C1209  H1210   1.110   .     S
O1213  C1214   1.418   .     S
C1214  H1217   1.108   .     S
C1214  H1216   1.109   .     S
C1214  H1215   1.115   .     S
O1218  C1219   1.416   .     S
C1219  H1220   1.114   .     S
C1219  H1557   1.110   .     S
C1219  H1222   1.106   .     S
H1221  C1891   1.110   1_545 S
O1223  C1224   1.415   .     S
C1224  H1226   1.110   .     S
C1224  H1225   1.114   .     S
C1224  H1227   1.110   .     S
O1228  C1229   1.416   .     S
C1229  H1231   1.111   .     S
C1229  H1232   1.109   .     S
C1229  H1230   1.113   .     S
O1233  C1237   1.302   .     A
O1233  Cu1245  1.964   .     S
O1234  C1238   1.305   .     A
O1234  Cu1246  1.964   .     S
O1235  C1238   1.298   .     A
O1235  Cu1245  1.979   .     S
O1236  C1237   1.302   .     A
O1236  Cu1246  1.979   .     S
C1237  C1268   1.474   .     S
C1238  C1267   1.478   .     S
O1239  C1243   1.293   .     A
O1239  Cu1245  1.970   .     S
O1240  C1244   1.292   .     A
O1240  Cu1246  1.970   .     S
O1241  Cu1245  1.967   .     S
O1241  C1244   1.298   .     A
O1242  Cu1246  1.967   .     S
O1242  C1243   1.297   .     A
C1243  C1250   1.456   .     S
C1244  C1249   1.456   .     S
Cu1245 Cu1246  2.694   .     S
Cu1245 N1273   2.025   .     S
Cu1246 N1274   2.025   .     S
C1247  C1257   1.421   .     A
C1247  C1249   1.407   .     A
C1247  C1275   1.526   .     S
C1248  C1279   1.525   .     S
C1248  C1258   1.419   .     A
C1248  C1250   1.407   .     A
C1249  C1251   1.403   .     A
C1250  C1252   1.413   .     A
C1251  C1253   1.412   .     A
C1251  C1283   1.523   .     S
C1252  C1287   1.529   .     S
C1252  C1254   1.427   .     A
C1253  C1259   1.410   .     A
C1253  C1255   1.415   .     A
C1254  C1260   1.429   .     A
C1254  C1256   1.431   .     A
C1255  C1257   1.421   .     A
C1255  C248    1.422   1_556 S
C1256  C1258   1.428   .     A
C1257  C1262   1.408   .     A
C1258  C1261   1.426   .     A
C1259  C1291   1.518   .     S
C1259  C253    1.405   1_556 S
C1260  C1295   1.513   .     S
C1261  O1299   1.392   .     S
C1262  O1304   1.384   .     S
C1262  C252    1.397   1_556 S
C1263  C1309   1.512   .     S
C1263  C1268   1.404   .     A
C1264  C1313   1.521   .     S
C1264  C1267   1.430   .     A
C1264  C1042   1.412   1_655 S
C1265  C1317   1.518   .     S
C1265  C1267   1.416   .     A
C1265  C1039   1.393   1_655 S
C1266  C1321   1.520   .     S
C1266  C1268   1.412   .     A
C1269  N1274   1.371   .     A
C1269  O1325   1.394   .     S
C1269  C1944   1.438   1_545 S
C1270  O1330   1.379   .     S
C1270  N1273   1.379   .     A
C1270  C1607   1.434   .     S
C1271  N1274   1.364   .     A
C1271  O1335   1.388   .     S
C1271  C1942   1.434   1_545 S
C1272  O1340   1.379   .     S
C1272  N1273   1.376   .     A
C1272  C1605   1.438   .     S
C1275  H1276   1.110   .     S
C1275  H1277   1.107   .     S
C1275  H1278   1.109   .     S
C1279  H1281   1.104   .     S
C1279  H1282   1.106   .     S
C1279  H1280   1.106   .     S
C1283  H1284   1.109   .     S
C1283  H1285   1.106   .     S
C1283  H1286   1.111   .     S
C1287  H1288   1.101   .     S
C1287  H1289   1.105   .     S
C1287  H1290   1.108   .     S
C1291  H1292   1.109   .     S
C1291  H1293   1.109   .     S
C1291  H1294   1.108   .     S
C1295  H1297   1.109   .     S
C1295  H1298   1.107   .     S
C1295  H1296   1.107   .     S
O1299  C1300   1.412   .     S
C1300  H1301   1.108   .     S
C1300  H1303   1.110   .     S
C1300  H1302   1.111   .     S
O1304  C1305   1.410   .     S
C1305  H1306   1.113   .     S
C1305  H1307   1.113   .     S
C1305  H1308   1.109   .     S
C1309  H1310   1.110   .     S
C1309  H1311   1.110   .     S
C1309  H1312   1.095   .     S
C1313  H1314   1.110   .     S
C1313  H1315   1.108   .     S
C1313  H1316   1.106   .     S
C1317  H1319   1.111   .     S
C1317  H1318   1.111   .     S
C1317  H1320   1.106   .     S
C1321  H1323   1.111   .     S
C1321  H1324   1.111   .     S
C1321  H1322   1.110   .     S
O1325  C1326   1.418   .     S
C1326  H1329   1.108   .     S
C1326  H1328   1.109   .     S
C1326  H1327   1.115   .     S
O1330  C1331   1.416   .     S
C1331  H1332   1.114   .     S
C1331  H1669   1.110   .     S
C1331  H1334   1.106   .     S
H1333  C2003   1.110   1_545 S
O1335  C1336   1.415   .     S
C1336  H1338   1.110   .     S
C1336  H1337   1.114   .     S
C1336  H1339   1.110   .     S
O1340  C1341   1.416   .     S
C1341  H1343   1.111   .     S
C1341  H1344   1.109   .     S
C1341  H1342   1.113   .     S
O1345  C1349   1.302   .     A
O1345  Cu1357  1.964   .     S
O1346  C1350   1.305   .     A
O1346  Cu1358  1.964   .     S
O1347  C1350   1.298   .     A
O1347  Cu1357  1.979   .     S
O1348  C1349   1.302   .     A
O1348  Cu1358  1.979   .     S
C1349  C1380   1.474   .     S
C1350  C1379   1.478   .     S
O1351  C1355   1.293   .     A
O1351  Cu1357  1.970   .     S
O1352  C1356   1.292   .     A
O1352  Cu1358  1.970   .     S
O1353  Cu1357  1.967   .     S
O1353  C1356   1.298   .     A
O1354  Cu1358  1.967   .     S
O1354  C1355   1.297   .     A
C1355  C1362   1.456   .     S
C1356  C1361   1.456   .     S
Cu1357 Cu1358  2.694   .     S
Cu1357 N1385   2.025   .     S
Cu1358 N1386   2.025   .     S
C1359  C1369   1.421   .     A
C1359  C1361   1.407   .     A
C1359  C1387   1.526   .     S
C1360  C1391   1.525   .     S
C1360  C1370   1.419   .     A
C1360  C1362   1.407   .     A
C1361  C1363   1.403   .     A
C1362  C1364   1.413   .     A
C1363  C1365   1.412   .     A
C1363  C1395   1.523   .     S
C1364  C1399   1.529   .     S
C1364  C1366   1.427   .     A
C1365  C1371   1.410   .     A
C1365  C1367   1.415   .     A
C1366  C1372   1.429   .     A
C1366  C1368   1.431   .     A
C1367  C1369   1.421   .     A
C1367  C360    1.422   1_556 S
C1368  C1370   1.428   .     A
C1369  C1374   1.408   .     A
C1370  C1373   1.426   .     A
C1371  C1403   1.518   .     S
C1371  C365    1.405   1_556 S
C1372  C1407   1.513   .     S
C1373  O1411   1.392   .     S
C1374  O1416   1.384   .     S
C1374  C364    1.397   1_556 S
C1375  C1421   1.512   .     S
C1375  C1380   1.404   .     A
C1375  C1601   1.393   1_455 S
C1376  C1425   1.521   .     S
C1376  C1379   1.430   .     A
C1376  C1490   1.412   .     S
C1377  C1429   1.518   .     S
C1377  C1379   1.416   .     A
C1377  C1487   1.393   .     S
C1378  C1433   1.520   .     S
C1378  C1380   1.412   .     A
C1378  C1600   1.412   1_455 S
C1381  N1386   1.371   .     A
C1381  O1437   1.394   .     S
C1382  O1442   1.379   .     S
C1382  N1385   1.379   .     A
C1382  C1719   1.434   .     S
C1383  N1386   1.364   .     A
C1383  O1447   1.388   .     S
C1384  O1452   1.379   .     S
C1384  N1385   1.376   .     A
C1384  C1717   1.438   .     S
C1387  H1388   1.110   .     S
C1387  H1389   1.107   .     S
C1387  H1390   1.109   .     S
C1391  H1393   1.104   .     S
C1391  H1394   1.106   .     S
C1391  H1392   1.106   .     S
C1395  H1396   1.109   .     S
C1395  H1397   1.106   .     S
C1395  H1398   1.111   .     S
C1399  H1400   1.101   .     S
C1399  H1401   1.105   .     S
C1399  H1402   1.108   .     S
C1403  H1404   1.109   .     S
C1403  H1405   1.109   .     S
C1403  H1406   1.108   .     S
C1407  H1409   1.109   .     S
C1407  H1410   1.107   .     S
C1407  H1408   1.107   .     S
O1411  C1412   1.412   .     S
C1412  H1413   1.108   .     S
C1412  H1415   1.110   .     S
C1412  H1414   1.111   .     S
O1416  C1417   1.410   .     S
C1417  H1418   1.113   .     S
C1417  H1419   1.113   .     S
C1417  H1420   1.109   .     S
C1421  H1422   1.110   .     S
C1421  H1423   1.110   .     S
C1421  H1424   1.095   .     S
C1425  H1426   1.110   .     S
C1425  H1427   1.108   .     S
C1425  H1428   1.106   .     S
C1429  H1431   1.111   .     S
C1429  H1430   1.111   .     S
C1429  H1432   1.106   .     S
C1433  H1435   1.111   .     S
C1433  H1436   1.111   .     S
C1433  H1434   1.110   .     S
O1437  C1438   1.418   .     S
C1438  H1441   1.108   .     S
C1438  H1440   1.109   .     S
C1438  H1439   1.115   .     S
O1442  C1443   1.416   .     S
C1443  H1444   1.114   .     S
C1443  H1781   1.110   .     S
C1443  H1446   1.106   .     S
O1447  C1448   1.415   .     S
C1448  H1450   1.110   .     S
C1448  H1449   1.114   .     S
C1448  H1451   1.110   .     S
O1452  C1453   1.416   .     S
C1453  H1455   1.111   .     S
C1453  H1456   1.109   .     S
C1453  H1454   1.113   .     S
O1457  C1461   1.302   .     A
O1457  Cu1469  1.964   .     S
O1458  C1462   1.305   .     A
O1458  Cu1470  1.964   .     S
O1459  C1462   1.298   .     A
O1459  Cu1469  1.979   .     S
O1460  C1461   1.302   .     A
O1460  Cu1470  1.979   .     S
C1461  C1492   1.474   .     S
C1462  C1491   1.478   .     S
O1463  C1467   1.293   .     A
O1463  Cu1469  1.970   .     S
O1464  C1468   1.292   .     A
O1464  Cu1470  1.970   .     S
O1465  Cu1469  1.967   .     S
O1465  C1468   1.298   .     A
O1466  Cu1470  1.967   .     S
O1466  C1467   1.297   .     A
C1467  C1474   1.456   .     S
C1468  C1473   1.456   .     S
Cu1469 Cu1470  2.694   .     S
Cu1469 N1497   2.025   .     S
Cu1470 N1498   2.025   .     S
C1471  C1481   1.421   .     A
C1471  C1473   1.407   .     A
C1471  C1499   1.526   .     S
C1472  C1503   1.525   .     S
C1472  C1482   1.419   .     A
C1472  C1474   1.407   .     A
C1473  C1475   1.403   .     A
C1474  C1476   1.413   .     A
C1475  C1477   1.412   .     A
C1475  C1507   1.523   .     S
C1476  C1511   1.529   .     S
C1476  C1478   1.427   .     A
C1477  C1483   1.410   .     A
C1477  C1479   1.415   .     A
C1478  C1484   1.429   .     A
C1478  C1480   1.431   .     A
C1479  C1481   1.421   .     A
C1479  C472    1.422   1_556 S
C1480  C1482   1.428   .     A
C1481  C1486   1.408   .     A
C1482  C1485   1.426   .     A
C1483  C1515   1.518   .     S
C1483  C477    1.405   1_556 S
C1484  C1519   1.513   .     S
C1485  O1523   1.392   .     S
C1486  O1528   1.384   .     S
C1486  C476    1.397   1_556 S
C1487  C1533   1.512   .     S
C1487  C1492   1.404   .     A
C1488  C1537   1.521   .     S
C1488  C1491   1.430   .     A
C1488  C1602   1.412   .     S
C1489  C1541   1.518   .     S
C1489  C1491   1.416   .     A
C1489  C1599   1.393   .     S
C1490  C1545   1.520   .     S
C1490  C1492   1.412   .     A
C1493  N1498   1.371   .     A
C1493  O1549   1.394   .     S
C1494  O1554   1.379   .     S
C1494  N1497   1.379   .     A
C1494  C1831   1.434   .     S
C1495  N1498   1.364   .     A
C1495  O1559   1.388   .     S
C1496  O1564   1.379   .     S
C1496  N1497   1.376   .     A
C1496  C1829   1.438   .     S
C1499  H1500   1.110   .     S
C1499  H1501   1.107   .     S
C1499  H1502   1.109   .     S
C1503  H1505   1.104   .     S
C1503  H1506   1.106   .     S
C1503  H1504   1.106   .     S
C1507  H1508   1.109   .     S
C1507  H1509   1.106   .     S
C1507  H1510   1.111   .     S
C1511  H1512   1.101   .     S
C1511  H1513   1.105   .     S
C1511  H1514   1.108   .     S
C1515  H1516   1.109   .     S
C1515  H1517   1.109   .     S
C1515  H1518   1.108   .     S
C1519  H1521   1.109   .     S
C1519  H1522   1.107   .     S
C1519  H1520   1.107   .     S
O1523  C1524   1.412   .     S
C1524  H1525   1.108   .     S
C1524  H1527   1.110   .     S
C1524  H1526   1.111   .     S
O1528  C1529   1.410   .     S
C1529  H1530   1.113   .     S
C1529  H1531   1.113   .     S
C1529  H1532   1.109   .     S
C1533  H1534   1.110   .     S
C1533  H1535   1.110   .     S
C1533  H1536   1.095   .     S
C1537  H1538   1.110   .     S
C1537  H1539   1.108   .     S
C1537  H1540   1.106   .     S
C1541  H1543   1.111   .     S
C1541  H1542   1.111   .     S
C1541  H1544   1.106   .     S
C1545  H1547   1.111   .     S
C1545  H1548   1.111   .     S
C1545  H1546   1.110   .     S
O1549  C1550   1.418   .     S
C1550  H1553   1.108   .     S
C1550  H1552   1.109   .     S
C1550  H1551   1.115   .     S
O1554  C1555   1.416   .     S
C1555  H1556   1.114   .     S
C1555  H1893   1.110   .     S
C1555  H1558   1.106   .     S
O1559  C1560   1.415   .     S
C1560  H1562   1.110   .     S
C1560  H1561   1.114   .     S
C1560  H1563   1.110   .     S
O1564  C1565   1.416   .     S
C1565  H1567   1.111   .     S
C1565  H1568   1.109   .     S
C1565  H1566   1.113   .     S
O1569  C1573   1.302   .     A
O1569  Cu1581  1.964   .     S
O1570  C1574   1.305   .     A
O1570  Cu1582  1.964   .     S
O1571  C1574   1.298   .     A
O1571  Cu1581  1.979   .     S
O1572  C1573   1.302   .     A
O1572  Cu1582  1.979   .     S
C1573  C1604   1.474   .     S
C1574  C1603   1.478   .     S
O1575  C1579   1.293   .     A
O1575  Cu1581  1.970   .     S
O1576  C1580   1.292   .     A
O1576  Cu1582  1.970   .     S
O1577  Cu1581  1.967   .     S
O1577  C1580   1.298   .     A
O1578  Cu1582  1.967   .     S
O1578  C1579   1.297   .     A
C1579  C1586   1.456   .     S
C1580  C1585   1.456   .     S
Cu1581 Cu1582  2.694   .     S
Cu1581 N1609   2.025   .     S
Cu1582 N1610   2.025   .     S
C1583  C1593   1.421   .     A
C1583  C1585   1.407   .     A
C1583  C1611   1.526   .     S
C1584  C1615   1.525   .     S
C1584  C1594   1.419   .     A
C1584  C1586   1.407   .     A
C1585  C1587   1.403   .     A
C1586  C1588   1.413   .     A
C1587  C1589   1.412   .     A
C1587  C1619   1.523   .     S
C1588  C1623   1.529   .     S
C1588  C1590   1.427   .     A
C1589  C1595   1.410   .     A
C1589  C1591   1.415   .     A
C1590  C1596   1.429   .     A
C1590  C1592   1.431   .     A
C1591  C1593   1.421   .     A
C1591  C584    1.422   1_556 S
C1592  C1594   1.428   .     A
C1593  C1598   1.408   .     A
C1594  C1597   1.426   .     A
C1595  C1627   1.518   .     S
C1595  C589    1.405   1_556 S
C1596  C1631   1.513   .     S
C1597  O1635   1.392   .     S
C1598  O1640   1.384   .     S
C1598  C588    1.397   1_556 S
C1599  C1645   1.512   .     S
C1599  C1604   1.404   .     A
C1600  C1649   1.521   .     S
C1600  C1603   1.430   .     A
C1600  C1378   1.412   1_655 S
C1601  C1653   1.518   .     S
C1601  C1603   1.416   .     A
C1601  C1375   1.393   1_655 S
C1602  C1657   1.520   .     S
C1602  C1604   1.412   .     A
C1605  N1610   1.371   .     A
C1605  O1661   1.394   .     S
C1606  O1666   1.379   .     S
C1606  N1609   1.379   .     A
C1606  C1943   1.434   .     S
C1607  N1610   1.364   .     A
C1607  O1671   1.388   .     S
C1608  O1676   1.379   .     S
C1608  N1609   1.376   .     A
C1608  C1941   1.438   .     S
C1611  H1612   1.110   .     S
C1611  H1613   1.107   .     S
C1611  H1614   1.109   .     S
C1615  H1617   1.104   .     S
C1615  H1618   1.106   .     S
C1615  H1616   1.106   .     S
C1619  H1620   1.109   .     S
C1619  H1621   1.106   .     S
C1619  H1622   1.111   .     S
C1623  H1624   1.101   .     S
C1623  H1625   1.105   .     S
C1623  H1626   1.108   .     S
C1627  H1628   1.109   .     S
C1627  H1629   1.109   .     S
C1627  H1630   1.108   .     S
C1631  H1633   1.109   .     S
C1631  H1634   1.107   .     S
C1631  H1632   1.107   .     S
O1635  C1636   1.412   .     S
C1636  H1637   1.108   .     S
C1636  H1639   1.110   .     S
C1636  H1638   1.111   .     S
O1640  C1641   1.410   .     S
C1641  H1642   1.113   .     S
C1641  H1643   1.113   .     S
C1641  H1644   1.109   .     S
C1645  H1646   1.110   .     S
C1645  H1647   1.110   .     S
C1645  H1648   1.095   .     S
C1649  H1650   1.110   .     S
C1649  H1651   1.108   .     S
C1649  H1652   1.106   .     S
C1653  H1655   1.111   .     S
C1653  H1654   1.111   .     S
C1653  H1656   1.106   .     S
C1657  H1659   1.111   .     S
C1657  H1660   1.111   .     S
C1657  H1658   1.110   .     S
O1661  C1662   1.418   .     S
C1662  H1665   1.108   .     S
C1662  H1664   1.109   .     S
C1662  H1663   1.115   .     S
O1666  C1667   1.416   .     S
C1667  H1668   1.114   .     S
C1667  H2005   1.110   .     S
C1667  H1670   1.106   .     S
O1671  C1672   1.415   .     S
C1672  H1674   1.110   .     S
C1672  H1673   1.114   .     S
C1672  H1675   1.110   .     S
O1676  C1677   1.416   .     S
C1677  H1679   1.111   .     S
C1677  H1680   1.109   .     S
C1677  H1678   1.113   .     S
O1681  C1685   1.302   .     A
O1681  Cu1693  1.964   .     S
O1682  C1686   1.305   .     A
O1682  Cu1694  1.964   .     S
O1683  C1686   1.298   .     A
O1683  Cu1693  1.979   .     S
O1684  C1685   1.302   .     A
O1684  Cu1694  1.979   .     S
C1685  C1716   1.474   .     S
C1686  C1715   1.478   .     S
O1687  C1691   1.293   .     A
O1687  Cu1693  1.970   .     S
O1688  C1692   1.292   .     A
O1688  Cu1694  1.970   .     S
O1689  Cu1693  1.967   .     S
O1689  C1692   1.298   .     A
O1690  Cu1694  1.967   .     S
O1690  C1691   1.297   .     A
C1691  C1698   1.456   .     S
C1692  C1697   1.456   .     S
Cu1693 Cu1694  2.694   .     S
Cu1693 N1721   2.025   .     S
Cu1694 N1722   2.025   .     S
C1695  C1705   1.421   .     A
C1695  C1697   1.407   .     A
C1695  C1723   1.526   .     S
C1696  C1727   1.525   .     S
C1696  C1706   1.419   .     A
C1696  C1698   1.407   .     A
C1697  C1699   1.403   .     A
C1698  C1700   1.413   .     A
C1699  C1701   1.412   .     A
C1699  C1731   1.523   .     S
C1700  C1735   1.529   .     S
C1700  C1702   1.427   .     A
C1701  C1707   1.410   .     A
C1701  C1703   1.415   .     A
C1702  C1708   1.429   .     A
C1702  C1704   1.431   .     A
C1703  C1705   1.421   .     A
C1703  C696    1.422   1_556 S
C1704  C1706   1.428   .     A
C1705  C1710   1.408   .     A
C1706  C1709   1.426   .     A
C1707  C1739   1.518   .     S
C1707  C701    1.405   1_556 S
C1708  C1743   1.513   .     S
C1709  O1747   1.392   .     S
C1710  O1752   1.384   .     S
C1710  C700    1.397   1_556 S
C1711  C1757   1.512   .     S
C1711  C1716   1.404   .     A
C1711  C1937   1.393   1_455 S
C1712  C1761   1.521   .     S
C1712  C1715   1.430   .     A
C1712  C1826   1.412   .     S
C1713  C1765   1.518   .     S
C1713  C1715   1.416   .     A
C1713  C1823   1.393   .     S
C1714  C1769   1.520   .     S
C1714  C1716   1.412   .     A
C1714  C1936   1.412   1_455 S
C1717  N1722   1.371   .     A
C1717  O1773   1.394   .     S
C1718  O1778   1.379   .     S
C1718  N1721   1.379   .     A
C1718  C1047   1.434   1_565 S
C1719  N1722   1.364   .     A
C1719  O1783   1.388   .     S
C1720  O1788   1.379   .     S
C1720  N1721   1.376   .     A
C1720  C1045   1.438   1_565 S
C1723  H1724   1.110   .     S
C1723  H1725   1.107   .     S
C1723  H1726   1.109   .     S
C1727  H1729   1.104   .     S
C1727  H1730   1.106   .     S
C1727  H1728   1.106   .     S
C1731  H1732   1.109   .     S
C1731  H1733   1.106   .     S
C1731  H1734   1.111   .     S
C1735  H1736   1.101   .     S
C1735  H1737   1.105   .     S
C1735  H1738   1.108   .     S
C1739  H1740   1.109   .     S
C1739  H1741   1.109   .     S
C1739  H1742   1.108   .     S
C1743  H1745   1.109   .     S
C1743  H1746   1.107   .     S
C1743  H1744   1.107   .     S
O1747  C1748   1.412   .     S
C1748  H1749   1.108   .     S
C1748  H1751   1.110   .     S
C1748  H1750   1.111   .     S
O1752  C1753   1.410   .     S
C1753  H1754   1.113   .     S
C1753  H1755   1.113   .     S
C1753  H1756   1.109   .     S
C1757  H1758   1.110   .     S
C1757  H1759   1.110   .     S
C1757  H1760   1.095   .     S
C1761  H1762   1.110   .     S
C1761  H1763   1.108   .     S
C1761  H1764   1.106   .     S
C1765  H1767   1.111   .     S
C1765  H1766   1.111   .     S
C1765  H1768   1.106   .     S
C1769  H1771   1.111   .     S
C1769  H1772   1.111   .     S
C1769  H1770   1.110   .     S
O1773  C1774   1.418   .     S
C1774  H1777   1.108   .     S
C1774  H1776   1.109   .     S
C1774  H1775   1.115   .     S
O1778  C1779   1.416   .     S
C1779  H1780   1.114   .     S
C1779  H1109   1.110   1_565 S
C1779  H1782   1.106   .     S
O1783  C1784   1.415   .     S
C1784  H1786   1.110   .     S
C1784  H1785   1.114   .     S
C1784  H1787   1.110   .     S
O1788  C1789   1.416   .     S
C1789  H1791   1.111   .     S
C1789  H1792   1.109   .     S
C1789  H1790   1.113   .     S
O1793  C1797   1.302   .     A
O1793  Cu1805  1.964   .     S
O1794  C1798   1.305   .     A
O1794  Cu1806  1.964   .     S
O1795  C1798   1.298   .     A
O1795  Cu1805  1.979   .     S
O1796  C1797   1.302   .     A
O1796  Cu1806  1.979   .     S
C1797  C1828   1.474   .     S
C1798  C1827   1.478   .     S
O1799  C1803   1.293   .     A
O1799  Cu1805  1.970   .     S
O1800  C1804   1.292   .     A
O1800  Cu1806  1.970   .     S
O1801  Cu1805  1.967   .     S
O1801  C1804   1.298   .     A
O1802  Cu1806  1.967   .     S
O1802  C1803   1.297   .     A
C1803  C1810   1.456   .     S
C1804  C1809   1.456   .     S
Cu1805 Cu1806  2.694   .     S
Cu1805 N1833   2.025   .     S
Cu1806 N1834   2.025   .     S
C1807  C1817   1.421   .     A
C1807  C1809   1.407   .     A
C1807  C1835   1.526   .     S
C1808  C1839   1.525   .     S
C1808  C1818   1.419   .     A
C1808  C1810   1.407   .     A
C1809  C1811   1.403   .     A
C1810  C1812   1.413   .     A
C1811  C1813   1.412   .     A
C1811  C1843   1.523   .     S
C1812  C1847   1.529   .     S
C1812  C1814   1.427   .     A
C1813  C1819   1.410   .     A
C1813  C1815   1.415   .     A
C1814  C1820   1.429   .     A
C1814  C1816   1.431   .     A
C1815  C1817   1.421   .     A
C1815  C808    1.422   1_556 S
C1816  C1818   1.428   .     A
C1817  C1822   1.408   .     A
C1818  C1821   1.426   .     A
C1819  C1851   1.518   .     S
C1819  C813    1.405   1_556 S
C1820  C1855   1.513   .     S
C1821  O1859   1.392   .     S
C1822  O1864   1.384   .     S
C1822  C812    1.397   1_556 S
C1823  C1869   1.512   .     S
C1823  C1828   1.404   .     A
C1824  C1873   1.521   .     S
C1824  C1827   1.430   .     A
C1824  C1938   1.412   .     S
C1825  C1877   1.518   .     S
C1825  C1827   1.416   .     A
C1825  C1935   1.393   .     S
C1826  C1881   1.520   .     S
C1826  C1828   1.412   .     A
C1829  N1834   1.371   .     A
C1829  O1885   1.394   .     S
C1830  O1890   1.379   .     S
C1830  N1833   1.379   .     A
C1830  C1159   1.434   1_565 S
C1831  N1834   1.364   .     A
C1831  O1895   1.388   .     S
C1832  O1900   1.379   .     S
C1832  N1833   1.376   .     A
C1832  C1157   1.438   1_565 S
C1835  H1836   1.110   .     S
C1835  H1837   1.107   .     S
C1835  H1838   1.109   .     S
C1839  H1841   1.104   .     S
C1839  H1842   1.106   .     S
C1839  H1840   1.106   .     S
C1843  H1844   1.109   .     S
C1843  H1845   1.106   .     S
C1843  H1846   1.111   .     S
C1847  H1848   1.101   .     S
C1847  H1849   1.105   .     S
C1847  H1850   1.108   .     S
C1851  H1852   1.109   .     S
C1851  H1853   1.109   .     S
C1851  H1854   1.108   .     S
C1855  H1857   1.109   .     S
C1855  H1858   1.107   .     S
C1855  H1856   1.107   .     S
O1859  C1860   1.412   .     S
C1860  H1861   1.108   .     S
C1860  H1863   1.110   .     S
C1860  H1862   1.111   .     S
O1864  C1865   1.410   .     S
C1865  H1866   1.113   .     S
C1865  H1867   1.113   .     S
C1865  H1868   1.109   .     S
C1869  H1870   1.110   .     S
C1869  H1871   1.110   .     S
C1869  H1872   1.095   .     S
C1873  H1874   1.110   .     S
C1873  H1875   1.108   .     S
C1873  H1876   1.106   .     S
C1877  H1879   1.111   .     S
C1877  H1878   1.111   .     S
C1877  H1880   1.106   .     S
C1881  H1883   1.111   .     S
C1881  H1884   1.111   .     S
C1881  H1882   1.110   .     S
O1885  C1886   1.418   .     S
C1886  H1889   1.108   .     S
C1886  H1888   1.109   .     S
C1886  H1887   1.115   .     S
O1890  C1891   1.416   .     S
C1891  H1892   1.114   .     S
C1891  H1221   1.110   1_565 S
C1891  H1894   1.106   .     S
O1895  C1896   1.415   .     S
C1896  H1898   1.110   .     S
C1896  H1897   1.114   .     S
C1896  H1899   1.110   .     S
O1900  C1901   1.416   .     S
C1901  H1903   1.111   .     S
C1901  H1904   1.109   .     S
C1901  H1902   1.113   .     S
O1905  C1909   1.302   .     A
O1905  Cu1917  1.964   .     S
O1906  C1910   1.305   .     A
O1906  Cu1918  1.964   .     S
O1907  C1910   1.298   .     A
O1907  Cu1917  1.979   .     S
O1908  C1909   1.302   .     A
O1908  Cu1918  1.979   .     S
C1909  C1940   1.474   .     S
C1910  C1939   1.478   .     S
O1911  C1915   1.293   .     A
O1911  Cu1917  1.970   .     S
O1912  C1916   1.292   .     A
O1912  Cu1918  1.970   .     S
O1913  Cu1917  1.967   .     S
O1913  C1916   1.298   .     A
O1914  Cu1918  1.967   .     S
O1914  C1915   1.297   .     A
C1915  C1922   1.456   .     S
C1916  C1921   1.456   .     S
Cu1917 Cu1918  2.694   .     S
Cu1917 N1945   2.025   .     S
Cu1918 N1946   2.025   .     S
C1919  C1929   1.421   .     A
C1919  C1921   1.407   .     A
C1919  C1947   1.526   .     S
C1920  C1951   1.525   .     S
C1920  C1930   1.419   .     A
C1920  C1922   1.407   .     A
C1921  C1923   1.403   .     A
C1922  C1924   1.413   .     A
C1923  C1925   1.412   .     A
C1923  C1955   1.523   .     S
C1924  C1959   1.529   .     S
C1924  C1926   1.427   .     A
C1925  C1931   1.410   .     A
C1925  C1927   1.415   .     A
C1926  C1932   1.429   .     A
C1926  C1928   1.431   .     A
C1927  C1929   1.421   .     A
C1927  C920    1.422   1_556 S
C1928  C1930   1.428   .     A
C1929  C1934   1.408   .     A
C1930  C1933   1.426   .     A
C1931  C1963   1.518   .     S
C1931  C925    1.405   1_556 S
C1932  C1967   1.513   .     S
C1933  O1971   1.392   .     S
C1934  O1976   1.384   .     S
C1934  C924    1.397   1_556 S
C1935  C1981   1.512   .     S
C1935  C1940   1.404   .     A
C1936  C1985   1.521   .     S
C1936  C1939   1.430   .     A
C1936  C1714   1.412   1_655 S
C1937  C1989   1.518   .     S
C1937  C1939   1.416   .     A
C1937  C1711   1.393   1_655 S
C1938  C1993   1.520   .     S
C1938  C1940   1.412   .     A
C1941  N1946   1.371   .     A
C1941  O1997   1.394   .     S
C1942  O2002   1.379   .     S
C1942  N1945   1.379   .     A
C1942  C1271   1.434   1_565 S
C1943  N1946   1.364   .     A
C1943  O2007   1.388   .     S
C1944  O2012   1.379   .     S
C1944  N1945   1.376   .     A
C1944  C1269   1.438   1_565 S
C1947  H1948   1.110   .     S
C1947  H1949   1.107   .     S
C1947  H1950   1.109   .     S
C1951  H1953   1.104   .     S
C1951  H1954   1.106   .     S
C1951  H1952   1.106   .     S
C1955  H1956   1.109   .     S
C1955  H1957   1.106   .     S
C1955  H1958   1.111   .     S
C1959  H1960   1.101   .     S
C1959  H1961   1.105   .     S
C1959  H1962   1.108   .     S
C1963  H1964   1.109   .     S
C1963  H1965   1.109   .     S
C1963  H1966   1.108   .     S
C1967  H1969   1.109   .     S
C1967  H1970   1.107   .     S
C1967  H1968   1.107   .     S
O1971  C1972   1.412   .     S
C1972  H1973   1.108   .     S
C1972  H1975   1.110   .     S
C1972  H1974   1.111   .     S
O1976  C1977   1.410   .     S
C1977  H1978   1.113   .     S
C1977  H1979   1.113   .     S
C1977  H1980   1.109   .     S
C1981  H1982   1.110   .     S
C1981  H1983   1.110   .     S
C1981  H1984   1.095   .     S
C1985  H1986   1.110   .     S
C1985  H1987   1.108   .     S
C1985  H1988   1.106   .     S
C1989  H1991   1.111   .     S
C1989  H1990   1.111   .     S
C1989  H1992   1.106   .     S
C1993  H1995   1.111   .     S
C1993  H1996   1.111   .     S
C1993  H1994   1.110   .     S
O1997  C1998   1.418   .     S
C1998  H2001   1.108   .     S
C1998  H2000   1.109   .     S
C1998  H1999   1.115   .     S
O2002  C2003   1.416   .     S
C2003  H2004   1.114   .     S
C2003  H1333   1.110   1_565 S
C2003  H2006   1.106   .     S
O2007  C2008   1.415   .     S
C2008  H2010   1.110   .     S
C2008  H2009   1.114   .     S
C2008  H2011   1.110   .     S
O2012  C2013   1.416   .     S
C2013  H2015   1.111   .     S
C2013  H2016   1.109   .     S
C2013  H2014   1.113   .     S
