data_str_m2_o1_o2_pcu_sym.55
_audit_creation_date              2020-01-03
_audit_creation_method            'Materials Studio'
_symmetry_space_group_name_H-M    'P1'
_symmetry_Int_Tables_number       1
_symmetry_cell_setting            triclinic
loop_
_symmetry_equiv_pos_as_xyz
  x,y,z
_cell_length_a                    32.7131
_cell_length_b                    28.5521
_cell_length_c                    30.6076
_cell_angle_alpha                 90.0017
_cell_angle_beta                  90.2633
_cell_angle_gamma                 89.9986
loop_
_atom_site_label
_atom_site_type_symbol
_atom_site_fract_x
_atom_site_fract_y
_atom_site_fract_z
_atom_site_U_iso_or_equiv
_atom_site_adp_type
_atom_site_occupancy
C1     C     0.08737   0.16653   0.25076   0.00000  Uiso   1.00
C2     C     0.31282   0.20783   0.24423   0.00000  Uiso   1.00
C3     C     0.31239   0.12329   0.25376   0.00000  Uiso   1.00
C4     C     0.02051   0.20784   0.25576   0.00000  Uiso   1.00
C5     C     0.18079   0.20674   0.04803   0.00000  Uiso   1.00
C6     C     0.17999   0.12774   0.45237   0.00000  Uiso   1.00
C7     C     0.15257   0.20674   0.45198   0.00000  Uiso   1.00
C8     C     0.15341   0.12773   0.04762   0.00000  Uiso   1.00
C9     C     0.17400   0.20876   0.09304   0.00000  Uiso   1.00
C10    C     0.17337   0.12501   0.40731   0.00000  Uiso   1.00
C11    C     0.15935   0.20876   0.40696   0.00000  Uiso   1.00
C12    C     0.24596   0.16653   0.24925   0.00000  Uiso   1.00
C13    C     0.16001   0.12500   0.09268   0.00000  Uiso   1.00
C14    C     0.16718   0.16669   0.11653   0.00000  Uiso   1.00
C15    C     0.16618   0.16669   0.38347   0.00000  Uiso   1.00
C16    C     0.16714   0.16724   0.02427   0.00000  Uiso   1.00
C17    C     0.16625   0.16724   0.47573   0.00000  Uiso   1.00
C18    C     0.29062   0.16582   0.24867   0.00000  Uiso   1.00
C19    C     0.04272   0.16583   0.25134   0.00000  Uiso   1.00
C20    C     0.23856   0.23377   0.01575   0.00000  Uiso   1.00
C21    C     0.24091   0.10119   0.47723   0.00000  Uiso   1.00
C22    C     0.09481   0.23373   0.48429   0.00000  Uiso   1.00
C23    C     0.16673   0.16666   0.16489   0.00000  Uiso   1.00
C24    C     0.09249   0.10113   0.02281   0.00000  Uiso   1.00
C25    C     0.13407   0.26738   0.12062   0.00000  Uiso   1.00
C26    C     0.11903   0.29911   0.08342   0.00000  Uiso   1.00
C27    C     0.07254   0.30027   0.08097   0.00000  Uiso   1.00
C28    C     0.14121   0.06003   0.37926   0.00000  Uiso   1.00
C29    C     0.12007   0.04330   0.42117   0.00000  Uiso   1.00
C30    C     0.08542   0.00927   0.41073   0.00000  Uiso   1.00
C31    C     0.19927   0.26739   0.37936   0.00000  Uiso   1.00
C32    C     0.21434   0.29910   0.41656   0.00000  Uiso   1.00
C33    C     0.26083   0.30016   0.41904   0.00000  Uiso   1.00
C34    C     0.16661   0.16666   0.33510   0.00000  Uiso   1.00
C35    C     0.19216   0.06002   0.12074   0.00000  Uiso   1.00
C36    C     0.21332   0.04331   0.07884   0.00000  Uiso   1.00
C37    C     0.24795   0.00924   0.08929   0.00000  Uiso   1.00
C38    C     0.05000   0.07980   0.19197   0.00000  Uiso   1.00
C39    C     0.01419   0.06194   0.16399   0.00000  Uiso   1.00
C40    C     0.02181   0.07208   0.11575   0.00000  Uiso   1.00
C41    C     0.28865   0.24337   0.18207   0.00000  Uiso   1.00
C42    C     0.32724   0.23216   0.15514   0.00000  Uiso   1.00
C43    C     0.31633   0.22499   0.10717   0.00000  Uiso   1.00
C44    C     0.28331   0.07983   0.30807   0.00000  Uiso   1.00
C45    C     0.13575   0.02479   0.26925   0.00000  Uiso   1.00
C46    C     0.31909   0.06191   0.33605   0.00000  Uiso   1.00
C47    C     0.31145   0.07200   0.38430   0.00000  Uiso   1.00
C48    C     0.04469   0.24343   0.31790   0.00000  Uiso   1.00
C49    C     0.00613   0.23213   0.34484   0.00000  Uiso   1.00
C50    C     0.01706   0.22505   0.39282   0.00000  Uiso   1.00
C51    C     0.19728   0.30858   0.23032   0.00000  Uiso   1.00
C52    C     0.19758   0.02478   0.23075   0.00000  Uiso   1.00
C53    C     0.13606   0.30859   0.26968   0.00000  Uiso   1.00
C54    C     0.02094   0.12328   0.24628   0.00000  Uiso   1.00
Cu55   Cu    0.16667   0.21355   0.25000   0.00000  Uiso   1.00
Cu56   Cu    0.16667   0.11978   0.25000   0.00000  Uiso   1.00
H57    H     0.11095   0.04332   0.28481   0.00000  Uiso   1.00
H58    H     0.25754   0.06883   0.48657   0.00000  Uiso   1.00
H59    H     0.09461   0.21430   0.01569   0.00000  Uiso   1.00
H60    H     0.07836   0.21313   0.45891   0.00000  Uiso   1.00
H61    H     0.07749   0.26667   0.48906   0.00000  Uiso   1.00
H62    H     0.08731   0.12755   0.49671   0.00000  Uiso   1.00
H63    H     0.07912   0.11390   0.05399   0.00000  Uiso   1.00
H64    H     0.07590   0.06877   0.01341   0.00000  Uiso   1.00
H65    H     0.13364   0.28809   0.15136   0.00000  Uiso   1.00
H66    H     0.11214   0.23791   0.12600   0.00000  Uiso   1.00
H67    H     0.13008   0.00183   0.08890   0.00000  Uiso   1.00
H68    H     0.22144   0.29002   0.21418   0.00000  Uiso   1.00
H69    H     0.13105   0.28709   0.05162   0.00000  Uiso   1.00
H70    H     0.06080   0.26525   0.07182   0.00000  Uiso   1.00
H71    H     0.06256   0.32575   0.05569   0.00000  Uiso   1.00
H72    H     0.05961   0.31056   0.11301   0.00000  Uiso   1.00
H73    H     0.14739   0.02896   0.35855   0.00000  Uiso   1.00
H74    H     0.11975   0.08290   0.36066   0.00000  Uiso   1.00
H75    H     0.14221   0.02601   0.44353   0.00000  Uiso   1.00
H76    H     0.10691   0.07413   0.43795   0.00000  Uiso   1.00
H77    H     0.06510   0.02396   0.38504   0.00000  Uiso   1.00
H78    H     0.06717   0.00273   0.44060   0.00000  Uiso   1.00
H79    H     0.22238   0.04331   0.21519   0.00000  Uiso   1.00
H80    H     0.09792   0.30880   0.39898   0.00000  Uiso   1.00
H81    H     0.19966   0.28812   0.34864   0.00000  Uiso   1.00
H82    H     0.22119   0.23792   0.37394   0.00000  Uiso   1.00
H83    H     0.20335   0.00185   0.41107   0.00000  Uiso   1.00
H84    H     0.20229   0.28712   0.44836   0.00000  Uiso   1.00
H85    H     0.27250   0.26511   0.42818   0.00000  Uiso   1.00
H86    H     0.27083   0.32561   0.44433   0.00000  Uiso   1.00
H87    H     0.27378   0.31044   0.38701   0.00000  Uiso   1.00
H88    H     0.18597   0.02894   0.14144   0.00000  Uiso   1.00
H89    H     0.21360   0.08288   0.13937   0.00000  Uiso   1.00
H90    H     0.11189   0.29003   0.28582   0.00000  Uiso   1.00
H91    H     0.19120   0.02605   0.05645   0.00000  Uiso   1.00
H92    H     0.22652   0.07415   0.06211   0.00000  Uiso   1.00
H93    H     0.26820   0.02386   0.11507   0.00000  Uiso   1.00
H94    H     0.26628   0.00277   0.05946   0.00000  Uiso   1.00
H95    H     0.23542   0.30876   0.10093   0.00000  Uiso   1.00
H96    H     0.07610   0.05528   0.18789   0.00000  Uiso   1.00
H97    H     0.06089   0.11431   0.17936   0.00000  Uiso   1.00
H98    H     0.01057   0.02360   0.16899   0.00000  Uiso   1.00
H99    H     0.31855   0.07933   0.17351   0.00000  Uiso   1.00
H100   H     0.01903   0.11028   0.10943   0.00000  Uiso   1.00
H101   H     0.23878   0.21428   0.48437   0.00000  Uiso   1.00
H102   H     0.33255   0.05333   0.09508   0.00000  Uiso   1.00
H103   H     0.05294   0.06050   0.10648   0.00000  Uiso   1.00
H104   H     0.27625   0.27704   0.16962   0.00000  Uiso   1.00
H105   H     0.26468   0.21651   0.17591   0.00000  Uiso   1.00
H106   H     0.01634   0.26112   0.15854   0.00000  Uiso   1.00
H107   H     0.00849   0.19925   0.16660   0.00000  Uiso   1.00
H108   H     0.29249   0.19748   0.10411   0.00000  Uiso   1.00
H109   H     0.01026   0.21284   0.08902   0.00000  Uiso   1.00
H110   H     0.30514   0.25822   0.09256   0.00000  Uiso   1.00
H111   H     0.25719   0.05535   0.31214   0.00000  Uiso   1.00
H112   H     0.25502   0.21322   0.04116   0.00000  Uiso   1.00
H113   H     0.27247   0.11434   0.32068   0.00000  Uiso   1.00
H114   H     0.32270   0.02357   0.33102   0.00000  Uiso   1.00
H115   H     0.01474   0.07929   0.32657   0.00000  Uiso   1.00
H116   H     0.31424   0.11019   0.39067   0.00000  Uiso   1.00
H117   H     0.00068   0.05322   0.40496   0.00000  Uiso   1.00
H118   H     0.28032   0.06044   0.39355   0.00000  Uiso   1.00
H119   H     0.05702   0.27714   0.33033   0.00000  Uiso   1.00
H120   H     0.06872   0.21663   0.32406   0.00000  Uiso   1.00
H121   H     0.31695   0.26101   0.34141   0.00000  Uiso   1.00
H122   H     0.32497   0.19915   0.33341   0.00000  Uiso   1.00
H123   H     0.25585   0.26672   0.01095   0.00000  Uiso   1.00
H124   H     0.04097   0.19763   0.39590   0.00000  Uiso   1.00
H125   H     0.32316   0.21283   0.41098   0.00000  Uiso   1.00
H126   H     0.02816   0.25833   0.40740   0.00000  Uiso   1.00
H127   H     0.24605   0.12755   0.00339   0.00000  Uiso   1.00
H128   H     0.25430   0.11405   0.44609   0.00000  Uiso   1.00
N129   N     0.16667   0.28402   0.25000   0.00000  Uiso   1.00
N130   N     0.16667   0.04931   0.25000   0.00000  Uiso   1.00
O131   O     0.10655   0.20625   0.24999   0.00000  Uiso   1.00
O132   O     0.19894   0.09061   0.47318   0.00000  Uiso   1.00
O133   O     0.13518   0.24514   0.47219   0.00000  Uiso   1.00
O134   O     0.13448   0.09059   0.02680   0.00000  Uiso   1.00
O135   O     0.17487   0.25209   0.11343   0.00000  Uiso   1.00
O136   O     0.17941   0.08226   0.38708   0.00000  Uiso   1.00
O137   O     0.15847   0.25209   0.38658   0.00000  Uiso   1.00
O138   O     0.15396   0.08225   0.11291   0.00000  Uiso   1.00
O139   O     0.03991   0.08105   0.23702   0.00000  Uiso   1.00
O140   O     0.29618   0.24876   0.22767   0.00000  Uiso   1.00
O141   O     0.29343   0.08106   0.26303   0.00000  Uiso   1.00
O142   O     0.22679   0.12709   0.25000   0.00000  Uiso   1.00
O143   O     0.03715   0.24878   0.27229   0.00000  Uiso   1.00
O144   O     0.22679   0.20625   0.25000   0.00000  Uiso   1.00
O145   O     0.10655   0.12709   0.24999   0.00000  Uiso   1.00
O146   O     0.16666   0.20626   0.18573   0.00000  Uiso   1.00
O147   O     0.16667   0.12707   0.31427   0.00000  Uiso   1.00
O148   O     0.16667   0.20626   0.31427   0.00000  Uiso   1.00
O149   O     0.16666   0.12707   0.18573   0.00000  Uiso   1.00
O150   O     0.19818   0.24515   0.02783   0.00000  Uiso   1.00
C151   C     0.42071   0.16653   0.25076   0.00000  Uiso   1.00
C152   C     0.64615   0.20783   0.24423   0.00000  Uiso   1.00
C153   C     0.64572   0.12329   0.25376   0.00000  Uiso   1.00
C154   C     0.35384   0.20784   0.25576   0.00000  Uiso   1.00
C155   C     0.51413   0.20674   0.04803   0.00000  Uiso   1.00
C156   C     0.51332   0.12774   0.45237   0.00000  Uiso   1.00
C157   C     0.48591   0.20674   0.45198   0.00000  Uiso   1.00
C158   C     0.48674   0.12773   0.04762   0.00000  Uiso   1.00
C159   C     0.50734   0.20876   0.09304   0.00000  Uiso   1.00
C160   C     0.50670   0.12501   0.40731   0.00000  Uiso   1.00
C161   C     0.49269   0.20876   0.40696   0.00000  Uiso   1.00
C162   C     0.57929   0.16653   0.24925   0.00000  Uiso   1.00
C163   C     0.49334   0.12500   0.09268   0.00000  Uiso   1.00
C164   C     0.50051   0.16669   0.11653   0.00000  Uiso   1.00
C165   C     0.49952   0.16669   0.38347   0.00000  Uiso   1.00
C166   C     0.50047   0.16724   0.02427   0.00000  Uiso   1.00
C167   C     0.49958   0.16724   0.47573   0.00000  Uiso   1.00
C168   C     0.62395   0.16582   0.24867   0.00000  Uiso   1.00
C169   C     0.37605   0.16583   0.25134   0.00000  Uiso   1.00
C170   C     0.57189   0.23377   0.01575   0.00000  Uiso   1.00
C171   C     0.57425   0.10119   0.47723   0.00000  Uiso   1.00
C172   C     0.42814   0.23373   0.48429   0.00000  Uiso   1.00
C173   C     0.50006   0.16666   0.16489   0.00000  Uiso   1.00
C174   C     0.42583   0.10113   0.02281   0.00000  Uiso   1.00
C175   C     0.46740   0.26738   0.12062   0.00000  Uiso   1.00
C176   C     0.45236   0.29911   0.08342   0.00000  Uiso   1.00
C177   C     0.40587   0.30027   0.08097   0.00000  Uiso   1.00
C178   C     0.47454   0.06003   0.37926   0.00000  Uiso   1.00
C179   C     0.45341   0.04330   0.42117   0.00000  Uiso   1.00
C180   C     0.41875   0.00927   0.41073   0.00000  Uiso   1.00
C181   C     0.53260   0.26739   0.37936   0.00000  Uiso   1.00
C182   C     0.54767   0.29910   0.41656   0.00000  Uiso   1.00
C183   C     0.59416   0.30016   0.41904   0.00000  Uiso   1.00
C184   C     0.49994   0.16666   0.33510   0.00000  Uiso   1.00
C185   C     0.52549   0.06002   0.12074   0.00000  Uiso   1.00
C186   C     0.54666   0.04331   0.07884   0.00000  Uiso   1.00
C187   C     0.58128   0.00924   0.08929   0.00000  Uiso   1.00
C188   C     0.38334   0.07980   0.19197   0.00000  Uiso   1.00
C189   C     0.34752   0.06194   0.16399   0.00000  Uiso   1.00
C190   C     0.35514   0.07208   0.11575   0.00000  Uiso   1.00
C191   C     0.62198   0.24337   0.18207   0.00000  Uiso   1.00
C192   C     0.66057   0.23216   0.15514   0.00000  Uiso   1.00
C193   C     0.64967   0.22499   0.10717   0.00000  Uiso   1.00
C194   C     0.61665   0.07983   0.30807   0.00000  Uiso   1.00
C195   C     0.46908   0.02479   0.26925   0.00000  Uiso   1.00
C196   C     0.65243   0.06191   0.33605   0.00000  Uiso   1.00
C197   C     0.64478   0.07200   0.38430   0.00000  Uiso   1.00
C198   C     0.37803   0.24343   0.31790   0.00000  Uiso   1.00
C199   C     0.33946   0.23213   0.34484   0.00000  Uiso   1.00
C200   C     0.35039   0.22505   0.39282   0.00000  Uiso   1.00
C201   C     0.53061   0.30858   0.23032   0.00000  Uiso   1.00
C202   C     0.53092   0.02478   0.23075   0.00000  Uiso   1.00
C203   C     0.46939   0.30859   0.26968   0.00000  Uiso   1.00
C204   C     0.35428   0.12328   0.24628   0.00000  Uiso   1.00
Cu205  Cu    0.50000   0.21355   0.25000   0.00000  Uiso   1.00
Cu206  Cu    0.50000   0.11978   0.25000   0.00000  Uiso   1.00
H207   H     0.44428   0.04332   0.28481   0.00000  Uiso   1.00
H208   H     0.59087   0.06883   0.48657   0.00000  Uiso   1.00
H209   H     0.42794   0.21430   0.01569   0.00000  Uiso   1.00
H210   H     0.41169   0.21313   0.45891   0.00000  Uiso   1.00
H211   H     0.41082   0.26667   0.48906   0.00000  Uiso   1.00
H212   H     0.42064   0.12755   0.49671   0.00000  Uiso   1.00
H213   H     0.41245   0.11390   0.05399   0.00000  Uiso   1.00
H214   H     0.40923   0.06877   0.01341   0.00000  Uiso   1.00
H215   H     0.46698   0.28809   0.15136   0.00000  Uiso   1.00
H216   H     0.44547   0.23791   0.12600   0.00000  Uiso   1.00
H217   H     0.46342   0.00183   0.08890   0.00000  Uiso   1.00
H218   H     0.55478   0.29002   0.21418   0.00000  Uiso   1.00
H219   H     0.46438   0.28709   0.05162   0.00000  Uiso   1.00
H220   H     0.39413   0.26525   0.07182   0.00000  Uiso   1.00
H221   H     0.39590   0.32575   0.05569   0.00000  Uiso   1.00
H222   H     0.39294   0.31056   0.11301   0.00000  Uiso   1.00
H223   H     0.48072   0.02896   0.35855   0.00000  Uiso   1.00
H224   H     0.45308   0.08290   0.36066   0.00000  Uiso   1.00
H225   H     0.47554   0.02601   0.44353   0.00000  Uiso   1.00
H226   H     0.44024   0.07413   0.43795   0.00000  Uiso   1.00
H227   H     0.39844   0.02396   0.38504   0.00000  Uiso   1.00
H228   H     0.40050   0.00273   0.44060   0.00000  Uiso   1.00
H229   H     0.55572   0.04331   0.21519   0.00000  Uiso   1.00
H230   H     0.43125   0.30880   0.39898   0.00000  Uiso   1.00
H231   H     0.53300   0.28812   0.34864   0.00000  Uiso   1.00
H232   H     0.55452   0.23792   0.37394   0.00000  Uiso   1.00
H233   H     0.53668   0.00185   0.41107   0.00000  Uiso   1.00
H234   H     0.53562   0.28712   0.44836   0.00000  Uiso   1.00
H235   H     0.60584   0.26511   0.42818   0.00000  Uiso   1.00
H236   H     0.60416   0.32561   0.44433   0.00000  Uiso   1.00
H237   H     0.60711   0.31044   0.38701   0.00000  Uiso   1.00
H238   H     0.51930   0.02894   0.14144   0.00000  Uiso   1.00
H239   H     0.54694   0.08288   0.13937   0.00000  Uiso   1.00
H240   H     0.44522   0.29003   0.28582   0.00000  Uiso   1.00
H241   H     0.52453   0.02605   0.05645   0.00000  Uiso   1.00
H242   H     0.55985   0.07415   0.06211   0.00000  Uiso   1.00
H243   H     0.60154   0.02386   0.11507   0.00000  Uiso   1.00
H244   H     0.59961   0.00277   0.05946   0.00000  Uiso   1.00
H245   H     0.56875   0.30876   0.10093   0.00000  Uiso   1.00
H246   H     0.40943   0.05528   0.18789   0.00000  Uiso   1.00
H247   H     0.39422   0.11431   0.17936   0.00000  Uiso   1.00
H248   H     0.34390   0.02360   0.16899   0.00000  Uiso   1.00
H249   H     0.65188   0.07933   0.17351   0.00000  Uiso   1.00
H250   H     0.35237   0.11028   0.10943   0.00000  Uiso   1.00
H251   H     0.57212   0.21428   0.48437   0.00000  Uiso   1.00
H252   H     0.66588   0.05333   0.09508   0.00000  Uiso   1.00
H253   H     0.38627   0.06050   0.10648   0.00000  Uiso   1.00
H254   H     0.60958   0.27704   0.16962   0.00000  Uiso   1.00
H255   H     0.59801   0.21651   0.17591   0.00000  Uiso   1.00
H256   H     0.34968   0.26112   0.15854   0.00000  Uiso   1.00
H257   H     0.34182   0.19925   0.16660   0.00000  Uiso   1.00
H258   H     0.62583   0.19748   0.10411   0.00000  Uiso   1.00
H259   H     0.34360   0.21284   0.08902   0.00000  Uiso   1.00
H260   H     0.63848   0.25822   0.09256   0.00000  Uiso   1.00
H261   H     0.59052   0.05535   0.31214   0.00000  Uiso   1.00
H262   H     0.58835   0.21322   0.04116   0.00000  Uiso   1.00
H263   H     0.60580   0.11434   0.32068   0.00000  Uiso   1.00
H264   H     0.65603   0.02357   0.33102   0.00000  Uiso   1.00
H265   H     0.34808   0.07929   0.32657   0.00000  Uiso   1.00
H266   H     0.64758   0.11019   0.39067   0.00000  Uiso   1.00
H267   H     0.33402   0.05322   0.40496   0.00000  Uiso   1.00
H268   H     0.61365   0.06044   0.39355   0.00000  Uiso   1.00
H269   H     0.39036   0.27714   0.33033   0.00000  Uiso   1.00
H270   H     0.40205   0.21663   0.32406   0.00000  Uiso   1.00
H271   H     0.65028   0.26101   0.34141   0.00000  Uiso   1.00
H272   H     0.65830   0.19915   0.33341   0.00000  Uiso   1.00
H273   H     0.58919   0.26672   0.01095   0.00000  Uiso   1.00
H274   H     0.37430   0.19763   0.39590   0.00000  Uiso   1.00
H275   H     0.65649   0.21283   0.41098   0.00000  Uiso   1.00
H276   H     0.36149   0.25833   0.40740   0.00000  Uiso   1.00
H277   H     0.57938   0.12755   0.00339   0.00000  Uiso   1.00
H278   H     0.58763   0.11405   0.44609   0.00000  Uiso   1.00
N279   N     0.50000   0.28402   0.25000   0.00000  Uiso   1.00
N280   N     0.50000   0.04931   0.25000   0.00000  Uiso   1.00
O281   O     0.43988   0.20625   0.24999   0.00000  Uiso   1.00
O282   O     0.53227   0.09061   0.47318   0.00000  Uiso   1.00
O283   O     0.46851   0.24514   0.47219   0.00000  Uiso   1.00
O284   O     0.46782   0.09059   0.02680   0.00000  Uiso   1.00
O285   O     0.50820   0.25209   0.11343   0.00000  Uiso   1.00
O286   O     0.51275   0.08226   0.38708   0.00000  Uiso   1.00
O287   O     0.49181   0.25209   0.38658   0.00000  Uiso   1.00
O288   O     0.48729   0.08225   0.11291   0.00000  Uiso   1.00
O289   O     0.37324   0.08105   0.23702   0.00000  Uiso   1.00
O290   O     0.62951   0.24876   0.22767   0.00000  Uiso   1.00
O291   O     0.62676   0.08106   0.26303   0.00000  Uiso   1.00
O292   O     0.56012   0.12709   0.25000   0.00000  Uiso   1.00
O293   O     0.37048   0.24878   0.27229   0.00000  Uiso   1.00
O294   O     0.56012   0.20625   0.25000   0.00000  Uiso   1.00
O295   O     0.43988   0.12709   0.24999   0.00000  Uiso   1.00
O296   O     0.50000   0.20626   0.18573   0.00000  Uiso   1.00
O297   O     0.50000   0.12707   0.31427   0.00000  Uiso   1.00
O298   O     0.50000   0.20626   0.31427   0.00000  Uiso   1.00
O299   O     0.50000   0.12707   0.18573   0.00000  Uiso   1.00
O300   O     0.53151   0.24515   0.02783   0.00000  Uiso   1.00
C301   C     0.75404   0.16653   0.25076   0.00000  Uiso   1.00
C302   C     0.97949   0.20783   0.24423   0.00000  Uiso   1.00
C303   C     0.97906   0.12329   0.25376   0.00000  Uiso   1.00
C304   C     0.68718   0.20784   0.25576   0.00000  Uiso   1.00
C305   C     0.84746   0.20674   0.04803   0.00000  Uiso   1.00
C306   C     0.84666   0.12774   0.45237   0.00000  Uiso   1.00
C307   C     0.81924   0.20674   0.45198   0.00000  Uiso   1.00
C308   C     0.82008   0.12773   0.04762   0.00000  Uiso   1.00
C309   C     0.84067   0.20876   0.09304   0.00000  Uiso   1.00
C310   C     0.84003   0.12501   0.40731   0.00000  Uiso   1.00
C311   C     0.82602   0.20876   0.40696   0.00000  Uiso   1.00
C312   C     0.91263   0.16653   0.24925   0.00000  Uiso   1.00
C313   C     0.82668   0.12500   0.09268   0.00000  Uiso   1.00
C314   C     0.83384   0.16669   0.11653   0.00000  Uiso   1.00
C315   C     0.83285   0.16669   0.38347   0.00000  Uiso   1.00
C316   C     0.83381   0.16724   0.02427   0.00000  Uiso   1.00
C317   C     0.83291   0.16724   0.47573   0.00000  Uiso   1.00
C318   C     0.95728   0.16582   0.24867   0.00000  Uiso   1.00
C319   C     0.70938   0.16583   0.25134   0.00000  Uiso   1.00
C320   C     0.90523   0.23377   0.01575   0.00000  Uiso   1.00
C321   C     0.90758   0.10119   0.47723   0.00000  Uiso   1.00
C322   C     0.76147   0.23373   0.48429   0.00000  Uiso   1.00
C323   C     0.83339   0.16666   0.16489   0.00000  Uiso   1.00
C324   C     0.75916   0.10113   0.02281   0.00000  Uiso   1.00
C325   C     0.80073   0.26738   0.12062   0.00000  Uiso   1.00
C326   C     0.78570   0.29911   0.08342   0.00000  Uiso   1.00
C327   C     0.73920   0.30027   0.08097   0.00000  Uiso   1.00
C328   C     0.80788   0.06003   0.37926   0.00000  Uiso   1.00
C329   C     0.78674   0.04330   0.42117   0.00000  Uiso   1.00
C330   C     0.75209   0.00927   0.41073   0.00000  Uiso   1.00
C331   C     0.86593   0.26739   0.37936   0.00000  Uiso   1.00
C332   C     0.88100   0.29910   0.41656   0.00000  Uiso   1.00
C333   C     0.92749   0.30016   0.41904   0.00000  Uiso   1.00
C334   C     0.83328   0.16666   0.33510   0.00000  Uiso   1.00
C335   C     0.85882   0.06002   0.12074   0.00000  Uiso   1.00
C336   C     0.87999   0.04331   0.07884   0.00000  Uiso   1.00
C337   C     0.91462   0.00924   0.08929   0.00000  Uiso   1.00
C338   C     0.71667   0.07980   0.19197   0.00000  Uiso   1.00
C339   C     0.68086   0.06194   0.16399   0.00000  Uiso   1.00
C340   C     0.68847   0.07208   0.11575   0.00000  Uiso   1.00
C341   C     0.95531   0.24337   0.18207   0.00000  Uiso   1.00
C342   C     0.99390   0.23216   0.15514   0.00000  Uiso   1.00
C343   C     0.98300   0.22499   0.10717   0.00000  Uiso   1.00
C344   C     0.94998   0.07983   0.30807   0.00000  Uiso   1.00
C345   C     0.80242   0.02479   0.26925   0.00000  Uiso   1.00
C346   C     0.98576   0.06191   0.33605   0.00000  Uiso   1.00
C347   C     0.97812   0.07200   0.38430   0.00000  Uiso   1.00
C348   C     0.71136   0.24343   0.31790   0.00000  Uiso   1.00
C349   C     0.67280   0.23213   0.34484   0.00000  Uiso   1.00
C350   C     0.68372   0.22505   0.39282   0.00000  Uiso   1.00
C351   C     0.86394   0.30858   0.23032   0.00000  Uiso   1.00
C352   C     0.86425   0.02478   0.23075   0.00000  Uiso   1.00
C353   C     0.80272   0.30859   0.26968   0.00000  Uiso   1.00
C354   C     0.68761   0.12328   0.24628   0.00000  Uiso   1.00
Cu355  Cu    0.83333   0.21355   0.25000   0.00000  Uiso   1.00
Cu356  Cu    0.83333   0.11978   0.25000   0.00000  Uiso   1.00
H357   H     0.77762   0.04332   0.28481   0.00000  Uiso   1.00
H358   H     0.92420   0.06883   0.48657   0.00000  Uiso   1.00
H359   H     0.76127   0.21430   0.01569   0.00000  Uiso   1.00
H360   H     0.74502   0.21313   0.45891   0.00000  Uiso   1.00
H361   H     0.74416   0.26667   0.48906   0.00000  Uiso   1.00
H362   H     0.75397   0.12755   0.49671   0.00000  Uiso   1.00
H363   H     0.74578   0.11390   0.05399   0.00000  Uiso   1.00
H364   H     0.74256   0.06877   0.01341   0.00000  Uiso   1.00
H365   H     0.80031   0.28809   0.15136   0.00000  Uiso   1.00
H366   H     0.77881   0.23791   0.12600   0.00000  Uiso   1.00
H367   H     0.79675   0.00183   0.08890   0.00000  Uiso   1.00
H368   H     0.88811   0.29002   0.21418   0.00000  Uiso   1.00
H369   H     0.79771   0.28709   0.05162   0.00000  Uiso   1.00
H370   H     0.72747   0.26525   0.07182   0.00000  Uiso   1.00
H371   H     0.72923   0.32575   0.05569   0.00000  Uiso   1.00
H372   H     0.72628   0.31056   0.11301   0.00000  Uiso   1.00
H373   H     0.81405   0.02896   0.35855   0.00000  Uiso   1.00
H374   H     0.78642   0.08290   0.36066   0.00000  Uiso   1.00
H375   H     0.80888   0.02601   0.44353   0.00000  Uiso   1.00
H376   H     0.77358   0.07413   0.43795   0.00000  Uiso   1.00
H377   H     0.73177   0.02396   0.38504   0.00000  Uiso   1.00
H378   H     0.73383   0.00273   0.44060   0.00000  Uiso   1.00
H379   H     0.88905   0.04331   0.21519   0.00000  Uiso   1.00
H380   H     0.76459   0.30880   0.39898   0.00000  Uiso   1.00
H381   H     0.86633   0.28812   0.34864   0.00000  Uiso   1.00
H382   H     0.88785   0.23792   0.37394   0.00000  Uiso   1.00
H383   H     0.87001   0.00185   0.41107   0.00000  Uiso   1.00
H384   H     0.86895   0.28712   0.44836   0.00000  Uiso   1.00
H385   H     0.93917   0.26511   0.42818   0.00000  Uiso   1.00
H386   H     0.93750   0.32561   0.44433   0.00000  Uiso   1.00
H387   H     0.94045   0.31044   0.38701   0.00000  Uiso   1.00
H388   H     0.85264   0.02894   0.14144   0.00000  Uiso   1.00
H389   H     0.88027   0.08288   0.13937   0.00000  Uiso   1.00
H390   H     0.77856   0.29003   0.28582   0.00000  Uiso   1.00
H391   H     0.85787   0.02605   0.05645   0.00000  Uiso   1.00
H392   H     0.89318   0.07415   0.06211   0.00000  Uiso   1.00
H393   H     0.93487   0.02386   0.11507   0.00000  Uiso   1.00
H394   H     0.93294   0.00277   0.05946   0.00000  Uiso   1.00
H395   H     0.90208   0.30876   0.10093   0.00000  Uiso   1.00
H396   H     0.74277   0.05528   0.18789   0.00000  Uiso   1.00
H397   H     0.72755   0.11431   0.17936   0.00000  Uiso   1.00
H398   H     0.67723   0.02360   0.16899   0.00000  Uiso   1.00
H399   H     0.98522   0.07933   0.17351   0.00000  Uiso   1.00
H400   H     0.68570   0.11028   0.10943   0.00000  Uiso   1.00
H401   H     0.90545   0.21428   0.48437   0.00000  Uiso   1.00
H402   H     0.99921   0.05333   0.09508   0.00000  Uiso   1.00
H403   H     0.71960   0.06050   0.10648   0.00000  Uiso   1.00
H404   H     0.94291   0.27704   0.16962   0.00000  Uiso   1.00
H405   H     0.93134   0.21651   0.17591   0.00000  Uiso   1.00
H406   H     0.68301   0.26112   0.15854   0.00000  Uiso   1.00
H407   H     0.67515   0.19925   0.16660   0.00000  Uiso   1.00
H408   H     0.95916   0.19748   0.10411   0.00000  Uiso   1.00
H409   H     0.67693   0.21284   0.08902   0.00000  Uiso   1.00
H410   H     0.97181   0.25822   0.09256   0.00000  Uiso   1.00
H411   H     0.92385   0.05535   0.31214   0.00000  Uiso   1.00
H412   H     0.92168   0.21322   0.04116   0.00000  Uiso   1.00
H413   H     0.93913   0.11434   0.32068   0.00000  Uiso   1.00
H414   H     0.98936   0.02357   0.33102   0.00000  Uiso   1.00
H415   H     0.68141   0.07929   0.32657   0.00000  Uiso   1.00
H416   H     0.98091   0.11019   0.39067   0.00000  Uiso   1.00
H417   H     0.66735   0.05322   0.40496   0.00000  Uiso   1.00
H418   H     0.94698   0.06044   0.39355   0.00000  Uiso   1.00
H419   H     0.72369   0.27714   0.33033   0.00000  Uiso   1.00
H420   H     0.73538   0.21663   0.32406   0.00000  Uiso   1.00
H421   H     0.98361   0.26101   0.34141   0.00000  Uiso   1.00
H422   H     0.99163   0.19915   0.33341   0.00000  Uiso   1.00
H423   H     0.92252   0.26672   0.01095   0.00000  Uiso   1.00
H424   H     0.70764   0.19763   0.39590   0.00000  Uiso   1.00
H425   H     0.98982   0.21283   0.41098   0.00000  Uiso   1.00
H426   H     0.69483   0.25833   0.40740   0.00000  Uiso   1.00
H427   H     0.91271   0.12755   0.00339   0.00000  Uiso   1.00
H428   H     0.92097   0.11405   0.44609   0.00000  Uiso   1.00
N429   N     0.83333   0.28402   0.25000   0.00000  Uiso   1.00
N430   N     0.83333   0.04931   0.25000   0.00000  Uiso   1.00
O431   O     0.77321   0.20625   0.24999   0.00000  Uiso   1.00
O432   O     0.86560   0.09061   0.47318   0.00000  Uiso   1.00
O433   O     0.80184   0.24514   0.47219   0.00000  Uiso   1.00
O434   O     0.80115   0.09059   0.02680   0.00000  Uiso   1.00
O435   O     0.84153   0.25209   0.11343   0.00000  Uiso   1.00
O436   O     0.84608   0.08226   0.38708   0.00000  Uiso   1.00
O437   O     0.82514   0.25209   0.38658   0.00000  Uiso   1.00
O438   O     0.82062   0.08225   0.11291   0.00000  Uiso   1.00
O439   O     0.70657   0.08105   0.23702   0.00000  Uiso   1.00
O440   O     0.96284   0.24876   0.22767   0.00000  Uiso   1.00
O441   O     0.96009   0.08106   0.26303   0.00000  Uiso   1.00
O442   O     0.89345   0.12709   0.25000   0.00000  Uiso   1.00
O443   O     0.70381   0.24878   0.27229   0.00000  Uiso   1.00
O444   O     0.89345   0.20625   0.25000   0.00000  Uiso   1.00
O445   O     0.77321   0.12709   0.24999   0.00000  Uiso   1.00
O446   O     0.83333   0.20626   0.18573   0.00000  Uiso   1.00
O447   O     0.83334   0.12707   0.31427   0.00000  Uiso   1.00
O448   O     0.83334   0.20626   0.31427   0.00000  Uiso   1.00
O449   O     0.83333   0.12707   0.18573   0.00000  Uiso   1.00
O450   O     0.86484   0.24515   0.02783   0.00000  Uiso   1.00
C451   C     0.08737   0.49986   0.25076   0.00000  Uiso   1.00
C452   C     0.31282   0.54117   0.24423   0.00000  Uiso   1.00
C453   C     0.31239   0.45662   0.25376   0.00000  Uiso   1.00
C454   C     0.02051   0.54117   0.25576   0.00000  Uiso   1.00
C455   C     0.18079   0.54007   0.04803   0.00000  Uiso   1.00
C456   C     0.17999   0.46107   0.45237   0.00000  Uiso   1.00
C457   C     0.15257   0.54007   0.45198   0.00000  Uiso   1.00
C458   C     0.15341   0.46106   0.04762   0.00000  Uiso   1.00
C459   C     0.17400   0.54209   0.09304   0.00000  Uiso   1.00
C460   C     0.17337   0.45834   0.40731   0.00000  Uiso   1.00
C461   C     0.15935   0.54209   0.40696   0.00000  Uiso   1.00
C462   C     0.24596   0.49986   0.24925   0.00000  Uiso   1.00
C463   C     0.16001   0.45833   0.09268   0.00000  Uiso   1.00
C464   C     0.16718   0.50002   0.11653   0.00000  Uiso   1.00
C465   C     0.16618   0.50003   0.38347   0.00000  Uiso   1.00
C466   C     0.16714   0.50057   0.02427   0.00000  Uiso   1.00
C467   C     0.16625   0.50057   0.47573   0.00000  Uiso   1.00
C468   C     0.29062   0.49916   0.24867   0.00000  Uiso   1.00
C469   C     0.04272   0.49916   0.25134   0.00000  Uiso   1.00
C470   C     0.23856   0.56710   0.01575   0.00000  Uiso   1.00
C471   C     0.24091   0.43453   0.47723   0.00000  Uiso   1.00
C472   C     0.09481   0.56707   0.48429   0.00000  Uiso   1.00
C473   C     0.16673   0.49999   0.16489   0.00000  Uiso   1.00
C474   C     0.09249   0.43447   0.02281   0.00000  Uiso   1.00
C475   C     0.13407   0.60072   0.12062   0.00000  Uiso   1.00
C476   C     0.11903   0.63244   0.08342   0.00000  Uiso   1.00
C477   C     0.07254   0.63361   0.08097   0.00000  Uiso   1.00
C478   C     0.14121   0.39336   0.37926   0.00000  Uiso   1.00
C479   C     0.12007   0.37663   0.42117   0.00000  Uiso   1.00
C480   C     0.08542   0.34260   0.41073   0.00000  Uiso   1.00
C481   C     0.19927   0.60072   0.37936   0.00000  Uiso   1.00
C482   C     0.21434   0.63243   0.41656   0.00000  Uiso   1.00
C483   C     0.26083   0.63350   0.41904   0.00000  Uiso   1.00
C484   C     0.16661   0.50000   0.33510   0.00000  Uiso   1.00
C485   C     0.19216   0.39335   0.12074   0.00000  Uiso   1.00
C486   C     0.21332   0.37664   0.07884   0.00000  Uiso   1.00
C487   C     0.24795   0.34257   0.08929   0.00000  Uiso   1.00
C488   C     0.05000   0.41314   0.19197   0.00000  Uiso   1.00
C489   C     0.01419   0.39527   0.16399   0.00000  Uiso   1.00
C490   C     0.02181   0.40541   0.11575   0.00000  Uiso   1.00
C491   C     0.28865   0.57671   0.18207   0.00000  Uiso   1.00
C492   C     0.32724   0.56550   0.15514   0.00000  Uiso   1.00
C493   C     0.31633   0.55832   0.10717   0.00000  Uiso   1.00
C494   C     0.28331   0.41316   0.30807   0.00000  Uiso   1.00
C495   C     0.13575   0.35812   0.26925   0.00000  Uiso   1.00
C496   C     0.31909   0.39524   0.33605   0.00000  Uiso   1.00
C497   C     0.31145   0.40534   0.38430   0.00000  Uiso   1.00
C498   C     0.04469   0.57677   0.31790   0.00000  Uiso   1.00
C499   C     0.00613   0.56546   0.34484   0.00000  Uiso   1.00
C500   C     0.01706   0.55838   0.39282   0.00000  Uiso   1.00
C501   C     0.19728   0.64192   0.23032   0.00000  Uiso   1.00
C502   C     0.19758   0.35812   0.23075   0.00000  Uiso   1.00
C503   C     0.13606   0.64192   0.26968   0.00000  Uiso   1.00
C504   C     0.02094   0.45662   0.24628   0.00000  Uiso   1.00
Cu505  Cu    0.16667   0.54689   0.25000   0.00000  Uiso   1.00
Cu506  Cu    0.16667   0.45311   0.25000   0.00000  Uiso   1.00
H507   H     0.11095   0.37665   0.28481   0.00000  Uiso   1.00
H508   H     0.25754   0.40216   0.48657   0.00000  Uiso   1.00
H509   H     0.09461   0.54763   0.01569   0.00000  Uiso   1.00
H510   H     0.07836   0.54646   0.45891   0.00000  Uiso   1.00
H511   H     0.07749   0.60000   0.48906   0.00000  Uiso   1.00
H512   H     0.08731   0.46088   0.49671   0.00000  Uiso   1.00
H513   H     0.07912   0.44723   0.05399   0.00000  Uiso   1.00
H514   H     0.07590   0.40210   0.01341   0.00000  Uiso   1.00
H515   H     0.13364   0.62143   0.15136   0.00000  Uiso   1.00
H516   H     0.11214   0.57124   0.12600   0.00000  Uiso   1.00
H517   H     0.13008   0.33517   0.08890   0.00000  Uiso   1.00
H518   H     0.22144   0.62335   0.21418   0.00000  Uiso   1.00
H519   H     0.13105   0.62043   0.05162   0.00000  Uiso   1.00
H520   H     0.06080   0.59858   0.07182   0.00000  Uiso   1.00
H521   H     0.06256   0.65909   0.05569   0.00000  Uiso   1.00
H522   H     0.05961   0.64390   0.11301   0.00000  Uiso   1.00
H523   H     0.14739   0.36230   0.35855   0.00000  Uiso   1.00
H524   H     0.11975   0.41623   0.36066   0.00000  Uiso   1.00
H525   H     0.14221   0.35934   0.44353   0.00000  Uiso   1.00
H526   H     0.10691   0.40747   0.43795   0.00000  Uiso   1.00
H527   H     0.06510   0.35729   0.38504   0.00000  Uiso   1.00
H528   H     0.06717   0.33607   0.44060   0.00000  Uiso   1.00
H529   H     0.22238   0.37665   0.21519   0.00000  Uiso   1.00
H530   H     0.09792   0.64214   0.39898   0.00000  Uiso   1.00
H531   H     0.19966   0.62145   0.34864   0.00000  Uiso   1.00
H532   H     0.22119   0.57126   0.37394   0.00000  Uiso   1.00
H533   H     0.20335   0.33518   0.41107   0.00000  Uiso   1.00
H534   H     0.20229   0.62045   0.44836   0.00000  Uiso   1.00
H535   H     0.27250   0.59845   0.42818   0.00000  Uiso   1.00
H536   H     0.27083   0.65895   0.44433   0.00000  Uiso   1.00
H537   H     0.27378   0.64377   0.38701   0.00000  Uiso   1.00
H538   H     0.18597   0.36228   0.14144   0.00000  Uiso   1.00
H539   H     0.21360   0.41621   0.13937   0.00000  Uiso   1.00
H540   H     0.11189   0.62336   0.28582   0.00000  Uiso   1.00
H541   H     0.19120   0.35938   0.05645   0.00000  Uiso   1.00
H542   H     0.22652   0.40748   0.06211   0.00000  Uiso   1.00
H543   H     0.26820   0.35719   0.11507   0.00000  Uiso   1.00
H544   H     0.26628   0.33611   0.05946   0.00000  Uiso   1.00
H545   H     0.23542   0.64209   0.10093   0.00000  Uiso   1.00
H546   H     0.07610   0.38862   0.18789   0.00000  Uiso   1.00
H547   H     0.06089   0.44764   0.17936   0.00000  Uiso   1.00
H548   H     0.01057   0.35693   0.16899   0.00000  Uiso   1.00
H549   H     0.31855   0.41267   0.17351   0.00000  Uiso   1.00
H550   H     0.01903   0.44362   0.10943   0.00000  Uiso   1.00
H551   H     0.23878   0.54762   0.48437   0.00000  Uiso   1.00
H552   H     0.33255   0.38667   0.09508   0.00000  Uiso   1.00
H553   H     0.05294   0.39383   0.10648   0.00000  Uiso   1.00
H554   H     0.27625   0.61037   0.16962   0.00000  Uiso   1.00
H555   H     0.26468   0.54984   0.17591   0.00000  Uiso   1.00
H556   H     0.01634   0.59446   0.15854   0.00000  Uiso   1.00
H557   H     0.00849   0.53259   0.16660   0.00000  Uiso   1.00
H558   H     0.29249   0.53082   0.10411   0.00000  Uiso   1.00
H559   H     0.01026   0.54617   0.08902   0.00000  Uiso   1.00
H560   H     0.30514   0.59155   0.09256   0.00000  Uiso   1.00
H561   H     0.25719   0.38868   0.31214   0.00000  Uiso   1.00
H562   H     0.25502   0.54655   0.04116   0.00000  Uiso   1.00
H563   H     0.27247   0.44768   0.32068   0.00000  Uiso   1.00
H564   H     0.32270   0.35691   0.33102   0.00000  Uiso   1.00
H565   H     0.01474   0.41262   0.32657   0.00000  Uiso   1.00
H566   H     0.31424   0.44352   0.39067   0.00000  Uiso   1.00
H567   H     0.00068   0.38655   0.40496   0.00000  Uiso   1.00
H568   H     0.28032   0.39377   0.39355   0.00000  Uiso   1.00
H569   H     0.05702   0.61047   0.33033   0.00000  Uiso   1.00
H570   H     0.06872   0.54997   0.32406   0.00000  Uiso   1.00
H571   H     0.31695   0.59434   0.34141   0.00000  Uiso   1.00
H572   H     0.32497   0.53249   0.33341   0.00000  Uiso   1.00
H573   H     0.25585   0.60005   0.01095   0.00000  Uiso   1.00
H574   H     0.04097   0.53097   0.39590   0.00000  Uiso   1.00
H575   H     0.32316   0.54616   0.41098   0.00000  Uiso   1.00
H576   H     0.02816   0.59167   0.40740   0.00000  Uiso   1.00
H577   H     0.24605   0.46088   0.00339   0.00000  Uiso   1.00
H578   H     0.25430   0.44739   0.44609   0.00000  Uiso   1.00
N579   N     0.16667   0.61736   0.25000   0.00000  Uiso   1.00
N580   N     0.16667   0.38264   0.25000   0.00000  Uiso   1.00
O581   O     0.10655   0.53958   0.24999   0.00000  Uiso   1.00
O582   O     0.19894   0.42394   0.47318   0.00000  Uiso   1.00
O583   O     0.13518   0.57847   0.47219   0.00000  Uiso   1.00
O584   O     0.13448   0.42393   0.02680   0.00000  Uiso   1.00
O585   O     0.17487   0.58542   0.11343   0.00000  Uiso   1.00
O586   O     0.17941   0.41559   0.38708   0.00000  Uiso   1.00
O587   O     0.15847   0.58543   0.38658   0.00000  Uiso   1.00
O588   O     0.15396   0.41558   0.11291   0.00000  Uiso   1.00
O589   O     0.03991   0.41438   0.23702   0.00000  Uiso   1.00
O590   O     0.29618   0.58209   0.22767   0.00000  Uiso   1.00
O591   O     0.29343   0.41439   0.26303   0.00000  Uiso   1.00
O592   O     0.22679   0.46042   0.25000   0.00000  Uiso   1.00
O593   O     0.03715   0.58211   0.27229   0.00000  Uiso   1.00
O594   O     0.22679   0.53958   0.25000   0.00000  Uiso   1.00
O595   O     0.10655   0.46042   0.24999   0.00000  Uiso   1.00
O596   O     0.16666   0.53959   0.18573   0.00000  Uiso   1.00
O597   O     0.16667   0.46041   0.31427   0.00000  Uiso   1.00
O598   O     0.16667   0.53959   0.31427   0.00000  Uiso   1.00
O599   O     0.16666   0.46041   0.18573   0.00000  Uiso   1.00
O600   O     0.19818   0.57848   0.02783   0.00000  Uiso   1.00
C601   C     0.42071   0.49986   0.25076   0.00000  Uiso   1.00
C602   C     0.64615   0.54117   0.24423   0.00000  Uiso   1.00
C603   C     0.64572   0.45662   0.25376   0.00000  Uiso   1.00
C604   C     0.35384   0.54117   0.25576   0.00000  Uiso   1.00
C605   C     0.51413   0.54007   0.04803   0.00000  Uiso   1.00
C606   C     0.51332   0.46107   0.45237   0.00000  Uiso   1.00
C607   C     0.48591   0.54007   0.45198   0.00000  Uiso   1.00
C608   C     0.48674   0.46106   0.04762   0.00000  Uiso   1.00
C609   C     0.50734   0.54209   0.09304   0.00000  Uiso   1.00
C610   C     0.50670   0.45834   0.40731   0.00000  Uiso   1.00
C611   C     0.49269   0.54209   0.40696   0.00000  Uiso   1.00
C612   C     0.57929   0.49986   0.24925   0.00000  Uiso   1.00
C613   C     0.49334   0.45833   0.09268   0.00000  Uiso   1.00
C614   C     0.50051   0.50002   0.11653   0.00000  Uiso   1.00
C615   C     0.49952   0.50003   0.38347   0.00000  Uiso   1.00
C616   C     0.50047   0.50057   0.02427   0.00000  Uiso   1.00
C617   C     0.49958   0.50057   0.47573   0.00000  Uiso   1.00
C618   C     0.62395   0.49916   0.24867   0.00000  Uiso   1.00
C619   C     0.37605   0.49916   0.25134   0.00000  Uiso   1.00
C620   C     0.57189   0.56710   0.01575   0.00000  Uiso   1.00
C621   C     0.57425   0.43453   0.47723   0.00000  Uiso   1.00
C622   C     0.42814   0.56707   0.48429   0.00000  Uiso   1.00
C623   C     0.50006   0.49999   0.16489   0.00000  Uiso   1.00
C624   C     0.42583   0.43447   0.02281   0.00000  Uiso   1.00
C625   C     0.46740   0.60072   0.12062   0.00000  Uiso   1.00
C626   C     0.45236   0.63244   0.08342   0.00000  Uiso   1.00
C627   C     0.40587   0.63361   0.08097   0.00000  Uiso   1.00
C628   C     0.47454   0.39336   0.37926   0.00000  Uiso   1.00
C629   C     0.45341   0.37663   0.42117   0.00000  Uiso   1.00
C630   C     0.41875   0.34260   0.41073   0.00000  Uiso   1.00
C631   C     0.53260   0.60072   0.37936   0.00000  Uiso   1.00
C632   C     0.54767   0.63243   0.41656   0.00000  Uiso   1.00
C633   C     0.59416   0.63350   0.41904   0.00000  Uiso   1.00
C634   C     0.49994   0.50000   0.33510   0.00000  Uiso   1.00
C635   C     0.52549   0.39335   0.12074   0.00000  Uiso   1.00
C636   C     0.54666   0.37664   0.07884   0.00000  Uiso   1.00
C637   C     0.58128   0.34257   0.08929   0.00000  Uiso   1.00
C638   C     0.38334   0.41314   0.19197   0.00000  Uiso   1.00
C639   C     0.34752   0.39527   0.16399   0.00000  Uiso   1.00
C640   C     0.35514   0.40541   0.11575   0.00000  Uiso   1.00
C641   C     0.62198   0.57671   0.18207   0.00000  Uiso   1.00
C642   C     0.66057   0.56550   0.15514   0.00000  Uiso   1.00
C643   C     0.64967   0.55832   0.10717   0.00000  Uiso   1.00
C644   C     0.61665   0.41316   0.30807   0.00000  Uiso   1.00
C645   C     0.46908   0.35812   0.26925   0.00000  Uiso   1.00
C646   C     0.65243   0.39524   0.33605   0.00000  Uiso   1.00
C647   C     0.64478   0.40534   0.38430   0.00000  Uiso   1.00
C648   C     0.37803   0.57677   0.31790   0.00000  Uiso   1.00
C649   C     0.33946   0.56546   0.34484   0.00000  Uiso   1.00
C650   C     0.35039   0.55838   0.39282   0.00000  Uiso   1.00
C651   C     0.53061   0.64192   0.23032   0.00000  Uiso   1.00
C652   C     0.53092   0.35812   0.23075   0.00000  Uiso   1.00
C653   C     0.46939   0.64192   0.26968   0.00000  Uiso   1.00
C654   C     0.35428   0.45662   0.24628   0.00000  Uiso   1.00
Cu655  Cu    0.50000   0.54689   0.25000   0.00000  Uiso   1.00
Cu656  Cu    0.50000   0.45311   0.25000   0.00000  Uiso   1.00
H657   H     0.44428   0.37665   0.28481   0.00000  Uiso   1.00
H658   H     0.59087   0.40216   0.48657   0.00000  Uiso   1.00
H659   H     0.42794   0.54763   0.01569   0.00000  Uiso   1.00
H660   H     0.41169   0.54646   0.45891   0.00000  Uiso   1.00
H661   H     0.41082   0.60000   0.48906   0.00000  Uiso   1.00
H662   H     0.42064   0.46088   0.49671   0.00000  Uiso   1.00
H663   H     0.41245   0.44723   0.05399   0.00000  Uiso   1.00
H664   H     0.40923   0.40210   0.01341   0.00000  Uiso   1.00
H665   H     0.46698   0.62143   0.15136   0.00000  Uiso   1.00
H666   H     0.44547   0.57124   0.12600   0.00000  Uiso   1.00
H667   H     0.46342   0.33517   0.08890   0.00000  Uiso   1.00
H668   H     0.55478   0.62335   0.21418   0.00000  Uiso   1.00
H669   H     0.46438   0.62043   0.05162   0.00000  Uiso   1.00
H670   H     0.39413   0.59858   0.07182   0.00000  Uiso   1.00
H671   H     0.39590   0.65909   0.05569   0.00000  Uiso   1.00
H672   H     0.39294   0.64390   0.11301   0.00000  Uiso   1.00
H673   H     0.48072   0.36230   0.35855   0.00000  Uiso   1.00
H674   H     0.45308   0.41623   0.36066   0.00000  Uiso   1.00
H675   H     0.47554   0.35934   0.44353   0.00000  Uiso   1.00
H676   H     0.44024   0.40747   0.43795   0.00000  Uiso   1.00
H677   H     0.39844   0.35729   0.38504   0.00000  Uiso   1.00
H678   H     0.40050   0.33607   0.44060   0.00000  Uiso   1.00
H679   H     0.55572   0.37665   0.21519   0.00000  Uiso   1.00
H680   H     0.43125   0.64214   0.39898   0.00000  Uiso   1.00
H681   H     0.53300   0.62145   0.34864   0.00000  Uiso   1.00
H682   H     0.55452   0.57126   0.37394   0.00000  Uiso   1.00
H683   H     0.53668   0.33518   0.41107   0.00000  Uiso   1.00
H684   H     0.53562   0.62045   0.44836   0.00000  Uiso   1.00
H685   H     0.60584   0.59845   0.42818   0.00000  Uiso   1.00
H686   H     0.60416   0.65895   0.44433   0.00000  Uiso   1.00
H687   H     0.60711   0.64377   0.38701   0.00000  Uiso   1.00
H688   H     0.51930   0.36228   0.14144   0.00000  Uiso   1.00
H689   H     0.54694   0.41621   0.13937   0.00000  Uiso   1.00
H690   H     0.44522   0.62336   0.28582   0.00000  Uiso   1.00
H691   H     0.52453   0.35938   0.05645   0.00000  Uiso   1.00
H692   H     0.55985   0.40748   0.06211   0.00000  Uiso   1.00
H693   H     0.60154   0.35719   0.11507   0.00000  Uiso   1.00
H694   H     0.59961   0.33611   0.05946   0.00000  Uiso   1.00
H695   H     0.56875   0.64209   0.10093   0.00000  Uiso   1.00
H696   H     0.40943   0.38862   0.18789   0.00000  Uiso   1.00
H697   H     0.39422   0.44764   0.17936   0.00000  Uiso   1.00
H698   H     0.34390   0.35693   0.16899   0.00000  Uiso   1.00
H699   H     0.65188   0.41267   0.17351   0.00000  Uiso   1.00
H700   H     0.35237   0.44362   0.10943   0.00000  Uiso   1.00
H701   H     0.57212   0.54762   0.48437   0.00000  Uiso   1.00
H702   H     0.66588   0.38667   0.09508   0.00000  Uiso   1.00
H703   H     0.38627   0.39383   0.10648   0.00000  Uiso   1.00
H704   H     0.60958   0.61037   0.16962   0.00000  Uiso   1.00
H705   H     0.59801   0.54984   0.17591   0.00000  Uiso   1.00
H706   H     0.34968   0.59446   0.15854   0.00000  Uiso   1.00
H707   H     0.34182   0.53259   0.16660   0.00000  Uiso   1.00
H708   H     0.62583   0.53082   0.10411   0.00000  Uiso   1.00
H709   H     0.34360   0.54617   0.08902   0.00000  Uiso   1.00
H710   H     0.63848   0.59155   0.09256   0.00000  Uiso   1.00
H711   H     0.59052   0.38868   0.31214   0.00000  Uiso   1.00
H712   H     0.58835   0.54655   0.04116   0.00000  Uiso   1.00
H713   H     0.60580   0.44768   0.32068   0.00000  Uiso   1.00
H714   H     0.65603   0.35691   0.33102   0.00000  Uiso   1.00
H715   H     0.34808   0.41262   0.32657   0.00000  Uiso   1.00
H716   H     0.64758   0.44352   0.39067   0.00000  Uiso   1.00
H717   H     0.33402   0.38655   0.40496   0.00000  Uiso   1.00
H718   H     0.61365   0.39377   0.39355   0.00000  Uiso   1.00
H719   H     0.39036   0.61047   0.33033   0.00000  Uiso   1.00
H720   H     0.40205   0.54997   0.32406   0.00000  Uiso   1.00
H721   H     0.65028   0.59434   0.34141   0.00000  Uiso   1.00
H722   H     0.65830   0.53249   0.33341   0.00000  Uiso   1.00
H723   H     0.58919   0.60005   0.01095   0.00000  Uiso   1.00
H724   H     0.37430   0.53097   0.39590   0.00000  Uiso   1.00
H725   H     0.65649   0.54616   0.41098   0.00000  Uiso   1.00
H726   H     0.36149   0.59167   0.40740   0.00000  Uiso   1.00
H727   H     0.57938   0.46088   0.00339   0.00000  Uiso   1.00
H728   H     0.58763   0.44739   0.44609   0.00000  Uiso   1.00
N729   N     0.50000   0.61736   0.25000   0.00000  Uiso   1.00
N730   N     0.50000   0.38264   0.25000   0.00000  Uiso   1.00
O731   O     0.43988   0.53958   0.24999   0.00000  Uiso   1.00
O732   O     0.53227   0.42394   0.47318   0.00000  Uiso   1.00
O733   O     0.46851   0.57847   0.47219   0.00000  Uiso   1.00
O734   O     0.46782   0.42393   0.02680   0.00000  Uiso   1.00
O735   O     0.50820   0.58542   0.11343   0.00000  Uiso   1.00
O736   O     0.51275   0.41559   0.38708   0.00000  Uiso   1.00
O737   O     0.49181   0.58543   0.38658   0.00000  Uiso   1.00
O738   O     0.48729   0.41558   0.11291   0.00000  Uiso   1.00
O739   O     0.37324   0.41438   0.23702   0.00000  Uiso   1.00
O740   O     0.62951   0.58209   0.22767   0.00000  Uiso   1.00
O741   O     0.62676   0.41439   0.26303   0.00000  Uiso   1.00
O742   O     0.56012   0.46042   0.25000   0.00000  Uiso   1.00
O743   O     0.37048   0.58211   0.27229   0.00000  Uiso   1.00
O744   O     0.56012   0.53958   0.25000   0.00000  Uiso   1.00
O745   O     0.43988   0.46042   0.24999   0.00000  Uiso   1.00
O746   O     0.50000   0.53959   0.18573   0.00000  Uiso   1.00
O747   O     0.50000   0.46041   0.31427   0.00000  Uiso   1.00
O748   O     0.50000   0.53959   0.31427   0.00000  Uiso   1.00
O749   O     0.50000   0.46041   0.18573   0.00000  Uiso   1.00
O750   O     0.53151   0.57848   0.02783   0.00000  Uiso   1.00
C751   C     0.75404   0.49986   0.25076   0.00000  Uiso   1.00
C752   C     0.97949   0.54117   0.24423   0.00000  Uiso   1.00
C753   C     0.97906   0.45662   0.25376   0.00000  Uiso   1.00
C754   C     0.68718   0.54117   0.25576   0.00000  Uiso   1.00
C755   C     0.84746   0.54007   0.04803   0.00000  Uiso   1.00
C756   C     0.84666   0.46107   0.45237   0.00000  Uiso   1.00
C757   C     0.81924   0.54007   0.45198   0.00000  Uiso   1.00
C758   C     0.82008   0.46106   0.04762   0.00000  Uiso   1.00
C759   C     0.84067   0.54209   0.09304   0.00000  Uiso   1.00
C760   C     0.84003   0.45834   0.40731   0.00000  Uiso   1.00
C761   C     0.82602   0.54209   0.40696   0.00000  Uiso   1.00
C762   C     0.91263   0.49986   0.24925   0.00000  Uiso   1.00
C763   C     0.82668   0.45833   0.09268   0.00000  Uiso   1.00
C764   C     0.83384   0.50002   0.11653   0.00000  Uiso   1.00
C765   C     0.83285   0.50003   0.38347   0.00000  Uiso   1.00
C766   C     0.83381   0.50057   0.02427   0.00000  Uiso   1.00
C767   C     0.83291   0.50057   0.47573   0.00000  Uiso   1.00
C768   C     0.95728   0.49916   0.24867   0.00000  Uiso   1.00
C769   C     0.70938   0.49916   0.25134   0.00000  Uiso   1.00
C770   C     0.90523   0.56710   0.01575   0.00000  Uiso   1.00
C771   C     0.90758   0.43453   0.47723   0.00000  Uiso   1.00
C772   C     0.76147   0.56707   0.48429   0.00000  Uiso   1.00
C773   C     0.83339   0.49999   0.16489   0.00000  Uiso   1.00
C774   C     0.75916   0.43447   0.02281   0.00000  Uiso   1.00
C775   C     0.80073   0.60072   0.12062   0.00000  Uiso   1.00
C776   C     0.78570   0.63244   0.08342   0.00000  Uiso   1.00
C777   C     0.73920   0.63361   0.08097   0.00000  Uiso   1.00
C778   C     0.80788   0.39336   0.37926   0.00000  Uiso   1.00
C779   C     0.78674   0.37663   0.42117   0.00000  Uiso   1.00
C780   C     0.75209   0.34260   0.41073   0.00000  Uiso   1.00
C781   C     0.86593   0.60072   0.37936   0.00000  Uiso   1.00
C782   C     0.88100   0.63243   0.41656   0.00000  Uiso   1.00
C783   C     0.92749   0.63350   0.41904   0.00000  Uiso   1.00
C784   C     0.83328   0.50000   0.33510   0.00000  Uiso   1.00
C785   C     0.85882   0.39335   0.12074   0.00000  Uiso   1.00
C786   C     0.87999   0.37664   0.07884   0.00000  Uiso   1.00
C787   C     0.91462   0.34257   0.08929   0.00000  Uiso   1.00
C788   C     0.71667   0.41314   0.19197   0.00000  Uiso   1.00
C789   C     0.68086   0.39527   0.16399   0.00000  Uiso   1.00
C790   C     0.68847   0.40541   0.11575   0.00000  Uiso   1.00
C791   C     0.95531   0.57671   0.18207   0.00000  Uiso   1.00
C792   C     0.99390   0.56550   0.15514   0.00000  Uiso   1.00
C793   C     0.98300   0.55832   0.10717   0.00000  Uiso   1.00
C794   C     0.94998   0.41316   0.30807   0.00000  Uiso   1.00
C795   C     0.80242   0.35812   0.26925   0.00000  Uiso   1.00
C796   C     0.98576   0.39524   0.33605   0.00000  Uiso   1.00
C797   C     0.97812   0.40534   0.38430   0.00000  Uiso   1.00
C798   C     0.71136   0.57677   0.31790   0.00000  Uiso   1.00
C799   C     0.67280   0.56546   0.34484   0.00000  Uiso   1.00
C800   C     0.68372   0.55838   0.39282   0.00000  Uiso   1.00
C801   C     0.86394   0.64192   0.23032   0.00000  Uiso   1.00
C802   C     0.86425   0.35812   0.23075   0.00000  Uiso   1.00
C803   C     0.80272   0.64192   0.26968   0.00000  Uiso   1.00
C804   C     0.68761   0.45662   0.24628   0.00000  Uiso   1.00
Cu805  Cu    0.83333   0.54689   0.25000   0.00000  Uiso   1.00
Cu806  Cu    0.83333   0.45311   0.25000   0.00000  Uiso   1.00
H807   H     0.77762   0.37665   0.28481   0.00000  Uiso   1.00
H808   H     0.92420   0.40216   0.48657   0.00000  Uiso   1.00
H809   H     0.76127   0.54763   0.01569   0.00000  Uiso   1.00
H810   H     0.74502   0.54646   0.45891   0.00000  Uiso   1.00
H811   H     0.74416   0.60000   0.48906   0.00000  Uiso   1.00
H812   H     0.75397   0.46088   0.49671   0.00000  Uiso   1.00
H813   H     0.74578   0.44723   0.05399   0.00000  Uiso   1.00
H814   H     0.74256   0.40210   0.01341   0.00000  Uiso   1.00
H815   H     0.80031   0.62143   0.15136   0.00000  Uiso   1.00
H816   H     0.77881   0.57124   0.12600   0.00000  Uiso   1.00
H817   H     0.79675   0.33517   0.08890   0.00000  Uiso   1.00
H818   H     0.88811   0.62335   0.21418   0.00000  Uiso   1.00
H819   H     0.79771   0.62043   0.05162   0.00000  Uiso   1.00
H820   H     0.72747   0.59858   0.07182   0.00000  Uiso   1.00
H821   H     0.72923   0.65909   0.05569   0.00000  Uiso   1.00
H822   H     0.72628   0.64390   0.11301   0.00000  Uiso   1.00
H823   H     0.81405   0.36230   0.35855   0.00000  Uiso   1.00
H824   H     0.78642   0.41623   0.36066   0.00000  Uiso   1.00
H825   H     0.80888   0.35934   0.44353   0.00000  Uiso   1.00
H826   H     0.77358   0.40747   0.43795   0.00000  Uiso   1.00
H827   H     0.73177   0.35729   0.38504   0.00000  Uiso   1.00
H828   H     0.73383   0.33607   0.44060   0.00000  Uiso   1.00
H829   H     0.88905   0.37665   0.21519   0.00000  Uiso   1.00
H830   H     0.76459   0.64214   0.39898   0.00000  Uiso   1.00
H831   H     0.86633   0.62145   0.34864   0.00000  Uiso   1.00
H832   H     0.88785   0.57126   0.37394   0.00000  Uiso   1.00
H833   H     0.87001   0.33518   0.41107   0.00000  Uiso   1.00
H834   H     0.86895   0.62045   0.44836   0.00000  Uiso   1.00
H835   H     0.93917   0.59845   0.42818   0.00000  Uiso   1.00
H836   H     0.93750   0.65895   0.44433   0.00000  Uiso   1.00
H837   H     0.94045   0.64377   0.38701   0.00000  Uiso   1.00
H838   H     0.85264   0.36228   0.14144   0.00000  Uiso   1.00
H839   H     0.88027   0.41621   0.13937   0.00000  Uiso   1.00
H840   H     0.77856   0.62336   0.28582   0.00000  Uiso   1.00
H841   H     0.85787   0.35938   0.05645   0.00000  Uiso   1.00
H842   H     0.89318   0.40748   0.06211   0.00000  Uiso   1.00
H843   H     0.93487   0.35719   0.11507   0.00000  Uiso   1.00
H844   H     0.93294   0.33611   0.05946   0.00000  Uiso   1.00
H845   H     0.90208   0.64209   0.10093   0.00000  Uiso   1.00
H846   H     0.74277   0.38862   0.18789   0.00000  Uiso   1.00
H847   H     0.72755   0.44764   0.17936   0.00000  Uiso   1.00
H848   H     0.67723   0.35693   0.16899   0.00000  Uiso   1.00
H849   H     0.98522   0.41267   0.17351   0.00000  Uiso   1.00
H850   H     0.68570   0.44362   0.10943   0.00000  Uiso   1.00
H851   H     0.90545   0.54762   0.48437   0.00000  Uiso   1.00
H852   H     0.99921   0.38667   0.09508   0.00000  Uiso   1.00
H853   H     0.71960   0.39383   0.10648   0.00000  Uiso   1.00
H854   H     0.94291   0.61037   0.16962   0.00000  Uiso   1.00
H855   H     0.93134   0.54984   0.17591   0.00000  Uiso   1.00
H856   H     0.68301   0.59446   0.15854   0.00000  Uiso   1.00
H857   H     0.67515   0.53259   0.16660   0.00000  Uiso   1.00
H858   H     0.95916   0.53082   0.10411   0.00000  Uiso   1.00
H859   H     0.67693   0.54617   0.08902   0.00000  Uiso   1.00
H860   H     0.97181   0.59155   0.09256   0.00000  Uiso   1.00
H861   H     0.92385   0.38868   0.31214   0.00000  Uiso   1.00
H862   H     0.92168   0.54655   0.04116   0.00000  Uiso   1.00
H863   H     0.93913   0.44768   0.32068   0.00000  Uiso   1.00
H864   H     0.98936   0.35691   0.33102   0.00000  Uiso   1.00
H865   H     0.68141   0.41262   0.32657   0.00000  Uiso   1.00
H866   H     0.98091   0.44352   0.39067   0.00000  Uiso   1.00
H867   H     0.66735   0.38655   0.40496   0.00000  Uiso   1.00
H868   H     0.94698   0.39377   0.39355   0.00000  Uiso   1.00
H869   H     0.72369   0.61047   0.33033   0.00000  Uiso   1.00
H870   H     0.73538   0.54997   0.32406   0.00000  Uiso   1.00
H871   H     0.98361   0.59434   0.34141   0.00000  Uiso   1.00
H872   H     0.99163   0.53249   0.33341   0.00000  Uiso   1.00
H873   H     0.92252   0.60005   0.01095   0.00000  Uiso   1.00
H874   H     0.70764   0.53097   0.39590   0.00000  Uiso   1.00
H875   H     0.98982   0.54616   0.41098   0.00000  Uiso   1.00
H876   H     0.69483   0.59167   0.40740   0.00000  Uiso   1.00
H877   H     0.91271   0.46088   0.00339   0.00000  Uiso   1.00
H878   H     0.92097   0.44739   0.44609   0.00000  Uiso   1.00
N879   N     0.83333   0.61736   0.25000   0.00000  Uiso   1.00
N880   N     0.83333   0.38264   0.25000   0.00000  Uiso   1.00
O881   O     0.77321   0.53958   0.24999   0.00000  Uiso   1.00
O882   O     0.86560   0.42394   0.47318   0.00000  Uiso   1.00
O883   O     0.80184   0.57847   0.47219   0.00000  Uiso   1.00
O884   O     0.80115   0.42393   0.02680   0.00000  Uiso   1.00
O885   O     0.84153   0.58542   0.11343   0.00000  Uiso   1.00
O886   O     0.84608   0.41559   0.38708   0.00000  Uiso   1.00
O887   O     0.82514   0.58543   0.38658   0.00000  Uiso   1.00
O888   O     0.82062   0.41558   0.11291   0.00000  Uiso   1.00
O889   O     0.70657   0.41438   0.23702   0.00000  Uiso   1.00
O890   O     0.96284   0.58209   0.22767   0.00000  Uiso   1.00
O891   O     0.96009   0.41439   0.26303   0.00000  Uiso   1.00
O892   O     0.89345   0.46042   0.25000   0.00000  Uiso   1.00
O893   O     0.70381   0.58211   0.27229   0.00000  Uiso   1.00
O894   O     0.89345   0.53958   0.25000   0.00000  Uiso   1.00
O895   O     0.77321   0.46042   0.24999   0.00000  Uiso   1.00
O896   O     0.83333   0.53959   0.18573   0.00000  Uiso   1.00
O897   O     0.83334   0.46041   0.31427   0.00000  Uiso   1.00
O898   O     0.83334   0.53959   0.31427   0.00000  Uiso   1.00
O899   O     0.83333   0.46041   0.18573   0.00000  Uiso   1.00
O900   O     0.86484   0.57848   0.02783   0.00000  Uiso   1.00
C901   C     0.08737   0.83319   0.25076   0.00000  Uiso   1.00
C902   C     0.31282   0.87450   0.24423   0.00000  Uiso   1.00
C903   C     0.31239   0.78995   0.25376   0.00000  Uiso   1.00
C904   C     0.02051   0.87451   0.25576   0.00000  Uiso   1.00
C905   C     0.18079   0.87340   0.04803   0.00000  Uiso   1.00
C906   C     0.17999   0.79440   0.45237   0.00000  Uiso   1.00
C907   C     0.15257   0.87340   0.45198   0.00000  Uiso   1.00
C908   C     0.15341   0.79439   0.04762   0.00000  Uiso   1.00
C909   C     0.17400   0.87542   0.09304   0.00000  Uiso   1.00
C910   C     0.17337   0.79168   0.40731   0.00000  Uiso   1.00
C911   C     0.15935   0.87542   0.40696   0.00000  Uiso   1.00
C912   C     0.24596   0.83319   0.24925   0.00000  Uiso   1.00
C913   C     0.16001   0.79167   0.09268   0.00000  Uiso   1.00
C914   C     0.16718   0.83336   0.11653   0.00000  Uiso   1.00
C915   C     0.16618   0.83336   0.38347   0.00000  Uiso   1.00
C916   C     0.16714   0.83390   0.02427   0.00000  Uiso   1.00
C917   C     0.16625   0.83391   0.47573   0.00000  Uiso   1.00
C918   C     0.29062   0.83249   0.24867   0.00000  Uiso   1.00
C919   C     0.04272   0.83249   0.25134   0.00000  Uiso   1.00
C920   C     0.23856   0.90043   0.01575   0.00000  Uiso   1.00
C921   C     0.24091   0.76786   0.47723   0.00000  Uiso   1.00
C922   C     0.09481   0.90040   0.48429   0.00000  Uiso   1.00
C923   C     0.16673   0.83333   0.16489   0.00000  Uiso   1.00
C924   C     0.09249   0.76780   0.02281   0.00000  Uiso   1.00
C925   C     0.13407   0.93405   0.12062   0.00000  Uiso   1.00
C926   C     0.11903   0.96578   0.08342   0.00000  Uiso   1.00
C927   C     0.07254   0.96694   0.08097   0.00000  Uiso   1.00
C928   C     0.14121   0.72669   0.37926   0.00000  Uiso   1.00
C929   C     0.12007   0.70996   0.42117   0.00000  Uiso   1.00
C930   C     0.08542   0.67593   0.41073   0.00000  Uiso   1.00
C931   C     0.19927   0.93406   0.37936   0.00000  Uiso   1.00
C932   C     0.21434   0.96577   0.41656   0.00000  Uiso   1.00
C933   C     0.26083   0.96683   0.41904   0.00000  Uiso   1.00
C934   C     0.16661   0.83333   0.33510   0.00000  Uiso   1.00
C935   C     0.19216   0.72668   0.12074   0.00000  Uiso   1.00
C936   C     0.21332   0.70997   0.07884   0.00000  Uiso   1.00
C937   C     0.24795   0.67591   0.08929   0.00000  Uiso   1.00
C938   C     0.05000   0.74647   0.19197   0.00000  Uiso   1.00
C939   C     0.01419   0.72861   0.16399   0.00000  Uiso   1.00
C940   C     0.02181   0.73875   0.11575   0.00000  Uiso   1.00
C941   C     0.28865   0.91004   0.18207   0.00000  Uiso   1.00
C942   C     0.32724   0.89883   0.15514   0.00000  Uiso   1.00
C943   C     0.31633   0.89166   0.10717   0.00000  Uiso   1.00
C944   C     0.28331   0.74650   0.30807   0.00000  Uiso   1.00
C945   C     0.13575   0.69145   0.26925   0.00000  Uiso   1.00
C946   C     0.31909   0.72857   0.33605   0.00000  Uiso   1.00
C947   C     0.31145   0.73867   0.38430   0.00000  Uiso   1.00
C948   C     0.04469   0.91010   0.31790   0.00000  Uiso   1.00
C949   C     0.00613   0.89879   0.34484   0.00000  Uiso   1.00
C950   C     0.01706   0.89172   0.39282   0.00000  Uiso   1.00
C951   C     0.19728   0.97525   0.23032   0.00000  Uiso   1.00
C952   C     0.19758   0.69145   0.23075   0.00000  Uiso   1.00
C953   C     0.13606   0.97525   0.26968   0.00000  Uiso   1.00
C954   C     0.02094   0.78995   0.24628   0.00000  Uiso   1.00
Cu955  Cu    0.16667   0.88022   0.25000   0.00000  Uiso   1.00
Cu956  Cu    0.16667   0.78645   0.25000   0.00000  Uiso   1.00
H957   H     0.11095   0.70999   0.28481   0.00000  Uiso   1.00
H958   H     0.25754   0.73549   0.48657   0.00000  Uiso   1.00
H959   H     0.09461   0.88097   0.01569   0.00000  Uiso   1.00
H960   H     0.07836   0.87980   0.45891   0.00000  Uiso   1.00
H961   H     0.07749   0.93334   0.48906   0.00000  Uiso   1.00
H962   H     0.08731   0.79421   0.49671   0.00000  Uiso   1.00
H963   H     0.07912   0.78056   0.05399   0.00000  Uiso   1.00
H964   H     0.07590   0.73543   0.01341   0.00000  Uiso   1.00
H965   H     0.13364   0.95476   0.15136   0.00000  Uiso   1.00
H966   H     0.11214   0.90458   0.12600   0.00000  Uiso   1.00
H967   H     0.13008   0.66850   0.08890   0.00000  Uiso   1.00
H968   H     0.22144   0.95669   0.21418   0.00000  Uiso   1.00
H969   H     0.13105   0.95376   0.05162   0.00000  Uiso   1.00
H970   H     0.06080   0.93192   0.07182   0.00000  Uiso   1.00
H971   H     0.06256   0.99242   0.05569   0.00000  Uiso   1.00
H972   H     0.05961   0.97723   0.11301   0.00000  Uiso   1.00
H973   H     0.14739   0.69563   0.35855   0.00000  Uiso   1.00
H974   H     0.11975   0.74956   0.36066   0.00000  Uiso   1.00
H975   H     0.14221   0.69268   0.44353   0.00000  Uiso   1.00
H976   H     0.10691   0.74080   0.43795   0.00000  Uiso   1.00
H977   H     0.06510   0.69062   0.38504   0.00000  Uiso   1.00
H978   H     0.06717   0.66940   0.44060   0.00000  Uiso   1.00
H979   H     0.22238   0.70998   0.21519   0.00000  Uiso   1.00
H980   H     0.09792   0.97547   0.39898   0.00000  Uiso   1.00
H981   H     0.19966   0.95478   0.34864   0.00000  Uiso   1.00
H982   H     0.22119   0.90459   0.37394   0.00000  Uiso   1.00
H983   H     0.20335   0.66851   0.41107   0.00000  Uiso   1.00
H984   H     0.20229   0.95379   0.44836   0.00000  Uiso   1.00
H985   H     0.27250   0.93178   0.42818   0.00000  Uiso   1.00
H986   H     0.27083   0.99228   0.44433   0.00000  Uiso   1.00
H987   H     0.27378   0.97710   0.38701   0.00000  Uiso   1.00
H988   H     0.18597   0.69561   0.14144   0.00000  Uiso   1.00
H989   H     0.21360   0.74954   0.13937   0.00000  Uiso   1.00
H990   H     0.11189   0.95669   0.28582   0.00000  Uiso   1.00
H991   H     0.19120   0.69272   0.05645   0.00000  Uiso   1.00
H992   H     0.22652   0.74081   0.06211   0.00000  Uiso   1.00
H993   H     0.26820   0.69052   0.11507   0.00000  Uiso   1.00
H994   H     0.26628   0.66944   0.05946   0.00000  Uiso   1.00
H995   H     0.23542   0.97543   0.10093   0.00000  Uiso   1.00
H996   H     0.07610   0.72195   0.18789   0.00000  Uiso   1.00
H997   H     0.06089   0.78097   0.17936   0.00000  Uiso   1.00
H998   H     0.01057   0.69026   0.16899   0.00000  Uiso   1.00
H999   H     0.31855   0.74600   0.17351   0.00000  Uiso   1.00
H1000  H     0.01903   0.77695   0.10943   0.00000  Uiso   1.00
H1001  H     0.23878   0.88095   0.48437   0.00000  Uiso   1.00
H1002  H     0.33255   0.72000   0.09508   0.00000  Uiso   1.00
H1003  H     0.05294   0.72716   0.10648   0.00000  Uiso   1.00
H1004  H     0.27625   0.94370   0.16962   0.00000  Uiso   1.00
H1005  H     0.26468   0.88318   0.17591   0.00000  Uiso   1.00
H1006  H     0.01634   0.92779   0.15854   0.00000  Uiso   1.00
H1007  H     0.00849   0.86592   0.16660   0.00000  Uiso   1.00
H1008  H     0.29249   0.86415   0.10411   0.00000  Uiso   1.00
H1009  H     0.01026   0.87950   0.08902   0.00000  Uiso   1.00
H1010  H     0.30514   0.92489   0.09256   0.00000  Uiso   1.00
H1011  H     0.25719   0.72202   0.31214   0.00000  Uiso   1.00
H1012  H     0.25502   0.87988   0.04116   0.00000  Uiso   1.00
H1013  H     0.27247   0.78101   0.32068   0.00000  Uiso   1.00
H1014  H     0.32270   0.69024   0.33102   0.00000  Uiso   1.00
H1015  H     0.01474   0.74596   0.32657   0.00000  Uiso   1.00
H1016  H     0.31424   0.77686   0.39067   0.00000  Uiso   1.00
H1017  H     0.00068   0.71989   0.40496   0.00000  Uiso   1.00
H1018  H     0.28032   0.72711   0.39355   0.00000  Uiso   1.00
H1019  H     0.05702   0.94380   0.33033   0.00000  Uiso   1.00
H1020  H     0.06872   0.88330   0.32406   0.00000  Uiso   1.00
H1021  H     0.31695   0.92767   0.34141   0.00000  Uiso   1.00
H1022  H     0.32497   0.86582   0.33341   0.00000  Uiso   1.00
H1023  H     0.25585   0.93338   0.01095   0.00000  Uiso   1.00
H1024  H     0.04097   0.86430   0.39590   0.00000  Uiso   1.00
H1025  H     0.32316   0.87949   0.41098   0.00000  Uiso   1.00
H1026  H     0.02816   0.92500   0.40740   0.00000  Uiso   1.00
H1027  H     0.24605   0.79422   0.00339   0.00000  Uiso   1.00
H1028  H     0.25430   0.78072   0.44609   0.00000  Uiso   1.00
N1029  N     0.16667   0.95069   0.25000   0.00000  Uiso   1.00
N1030  N     0.16667   0.71598   0.25000   0.00000  Uiso   1.00
O1031  O     0.10655   0.87291   0.24999   0.00000  Uiso   1.00
O1032  O     0.19894   0.75727   0.47318   0.00000  Uiso   1.00
O1033  O     0.13518   0.91180   0.47219   0.00000  Uiso   1.00
O1034  O     0.13448   0.75726   0.02680   0.00000  Uiso   1.00
O1035  O     0.17487   0.91876   0.11343   0.00000  Uiso   1.00
O1036  O     0.17941   0.74892   0.38708   0.00000  Uiso   1.00
O1037  O     0.15847   0.91876   0.38658   0.00000  Uiso   1.00
O1038  O     0.15396   0.74892   0.11291   0.00000  Uiso   1.00
O1039  O     0.03991   0.74772   0.23702   0.00000  Uiso   1.00
O1040  O     0.29618   0.91543   0.22767   0.00000  Uiso   1.00
O1041  O     0.29343   0.74772   0.26303   0.00000  Uiso   1.00
O1042  O     0.22679   0.79375   0.25000   0.00000  Uiso   1.00
O1043  O     0.03715   0.91545   0.27229   0.00000  Uiso   1.00
O1044  O     0.22679   0.87291   0.25000   0.00000  Uiso   1.00
O1045  O     0.10655   0.79375   0.24999   0.00000  Uiso   1.00
O1046  O     0.16666   0.87293   0.18573   0.00000  Uiso   1.00
O1047  O     0.16667   0.79374   0.31427   0.00000  Uiso   1.00
O1048  O     0.16667   0.87293   0.31427   0.00000  Uiso   1.00
O1049  O     0.16666   0.79374   0.18573   0.00000  Uiso   1.00
O1050  O     0.19818   0.91181   0.02783   0.00000  Uiso   1.00
C1051  C     0.42071   0.83319   0.25076   0.00000  Uiso   1.00
C1052  C     0.64615   0.87450   0.24423   0.00000  Uiso   1.00
C1053  C     0.64572   0.78995   0.25376   0.00000  Uiso   1.00
C1054  C     0.35384   0.87451   0.25576   0.00000  Uiso   1.00
C1055  C     0.51413   0.87340   0.04803   0.00000  Uiso   1.00
C1056  C     0.51332   0.79440   0.45237   0.00000  Uiso   1.00
C1057  C     0.48591   0.87340   0.45198   0.00000  Uiso   1.00
C1058  C     0.48674   0.79439   0.04762   0.00000  Uiso   1.00
C1059  C     0.50734   0.87542   0.09304   0.00000  Uiso   1.00
C1060  C     0.50670   0.79168   0.40731   0.00000  Uiso   1.00
C1061  C     0.49269   0.87542   0.40696   0.00000  Uiso   1.00
C1062  C     0.57929   0.83319   0.24925   0.00000  Uiso   1.00
C1063  C     0.49334   0.79167   0.09268   0.00000  Uiso   1.00
C1064  C     0.50051   0.83336   0.11653   0.00000  Uiso   1.00
C1065  C     0.49952   0.83336   0.38347   0.00000  Uiso   1.00
C1066  C     0.50047   0.83390   0.02427   0.00000  Uiso   1.00
C1067  C     0.49958   0.83391   0.47573   0.00000  Uiso   1.00
C1068  C     0.62395   0.83249   0.24867   0.00000  Uiso   1.00
C1069  C     0.37605   0.83249   0.25134   0.00000  Uiso   1.00
C1070  C     0.57189   0.90043   0.01575   0.00000  Uiso   1.00
C1071  C     0.57425   0.76786   0.47723   0.00000  Uiso   1.00
C1072  C     0.42814   0.90040   0.48429   0.00000  Uiso   1.00
C1073  C     0.50006   0.83333   0.16489   0.00000  Uiso   1.00
C1074  C     0.42583   0.76780   0.02281   0.00000  Uiso   1.00
C1075  C     0.46740   0.93405   0.12062   0.00000  Uiso   1.00
C1076  C     0.45236   0.96578   0.08342   0.00000  Uiso   1.00
C1077  C     0.40587   0.96694   0.08097   0.00000  Uiso   1.00
C1078  C     0.47454   0.72669   0.37926   0.00000  Uiso   1.00
C1079  C     0.45341   0.70996   0.42117   0.00000  Uiso   1.00
C1080  C     0.41875   0.67593   0.41073   0.00000  Uiso   1.00
C1081  C     0.53260   0.93406   0.37936   0.00000  Uiso   1.00
C1082  C     0.54767   0.96577   0.41656   0.00000  Uiso   1.00
C1083  C     0.59416   0.96683   0.41904   0.00000  Uiso   1.00
C1084  C     0.49994   0.83333   0.33510   0.00000  Uiso   1.00
C1085  C     0.52549   0.72668   0.12074   0.00000  Uiso   1.00
C1086  C     0.54666   0.70997   0.07884   0.00000  Uiso   1.00
C1087  C     0.58128   0.67591   0.08929   0.00000  Uiso   1.00
C1088  C     0.38334   0.74647   0.19197   0.00000  Uiso   1.00
C1089  C     0.34752   0.72861   0.16399   0.00000  Uiso   1.00
C1090  C     0.35514   0.73875   0.11575   0.00000  Uiso   1.00
C1091  C     0.62198   0.91004   0.18207   0.00000  Uiso   1.00
C1092  C     0.66057   0.89883   0.15514   0.00000  Uiso   1.00
C1093  C     0.64967   0.89166   0.10717   0.00000  Uiso   1.00
C1094  C     0.61665   0.74650   0.30807   0.00000  Uiso   1.00
C1095  C     0.46908   0.69145   0.26925   0.00000  Uiso   1.00
C1096  C     0.65243   0.72857   0.33605   0.00000  Uiso   1.00
C1097  C     0.64478   0.73867   0.38430   0.00000  Uiso   1.00
C1098  C     0.37803   0.91010   0.31790   0.00000  Uiso   1.00
C1099  C     0.33946   0.89879   0.34484   0.00000  Uiso   1.00
C1100  C     0.35039   0.89172   0.39282   0.00000  Uiso   1.00
C1101  C     0.53061   0.97525   0.23032   0.00000  Uiso   1.00
C1102  C     0.53092   0.69145   0.23075   0.00000  Uiso   1.00
C1103  C     0.46939   0.97525   0.26968   0.00000  Uiso   1.00
C1104  C     0.35428   0.78995   0.24628   0.00000  Uiso   1.00
Cu1105 Cu    0.50000   0.88022   0.25000   0.00000  Uiso   1.00
Cu1106 Cu    0.50000   0.78645   0.25000   0.00000  Uiso   1.00
H1107  H     0.44428   0.70999   0.28481   0.00000  Uiso   1.00
H1108  H     0.59087   0.73549   0.48657   0.00000  Uiso   1.00
H1109  H     0.42794   0.88097   0.01569   0.00000  Uiso   1.00
H1110  H     0.41169   0.87980   0.45891   0.00000  Uiso   1.00
H1111  H     0.41082   0.93334   0.48906   0.00000  Uiso   1.00
H1112  H     0.42064   0.79421   0.49671   0.00000  Uiso   1.00
H1113  H     0.41245   0.78056   0.05399   0.00000  Uiso   1.00
H1114  H     0.40923   0.73543   0.01341   0.00000  Uiso   1.00
H1115  H     0.46698   0.95476   0.15136   0.00000  Uiso   1.00
H1116  H     0.44547   0.90458   0.12600   0.00000  Uiso   1.00
H1117  H     0.46342   0.66850   0.08890   0.00000  Uiso   1.00
H1118  H     0.55478   0.95669   0.21418   0.00000  Uiso   1.00
H1119  H     0.46438   0.95376   0.05162   0.00000  Uiso   1.00
H1120  H     0.39413   0.93192   0.07182   0.00000  Uiso   1.00
H1121  H     0.39590   0.99242   0.05569   0.00000  Uiso   1.00
H1122  H     0.39294   0.97723   0.11301   0.00000  Uiso   1.00
H1123  H     0.48072   0.69563   0.35855   0.00000  Uiso   1.00
H1124  H     0.45308   0.74956   0.36066   0.00000  Uiso   1.00
H1125  H     0.47554   0.69268   0.44353   0.00000  Uiso   1.00
H1126  H     0.44024   0.74080   0.43795   0.00000  Uiso   1.00
H1127  H     0.39844   0.69062   0.38504   0.00000  Uiso   1.00
H1128  H     0.40050   0.66940   0.44060   0.00000  Uiso   1.00
H1129  H     0.55572   0.70998   0.21519   0.00000  Uiso   1.00
H1130  H     0.43125   0.97547   0.39898   0.00000  Uiso   1.00
H1131  H     0.53300   0.95478   0.34864   0.00000  Uiso   1.00
H1132  H     0.55452   0.90459   0.37394   0.00000  Uiso   1.00
H1133  H     0.53668   0.66851   0.41107   0.00000  Uiso   1.00
H1134  H     0.53562   0.95379   0.44836   0.00000  Uiso   1.00
H1135  H     0.60584   0.93178   0.42818   0.00000  Uiso   1.00
H1136  H     0.60416   0.99228   0.44433   0.00000  Uiso   1.00
H1137  H     0.60711   0.97710   0.38701   0.00000  Uiso   1.00
H1138  H     0.51930   0.69561   0.14144   0.00000  Uiso   1.00
H1139  H     0.54694   0.74954   0.13937   0.00000  Uiso   1.00
H1140  H     0.44522   0.95669   0.28582   0.00000  Uiso   1.00
H1141  H     0.52453   0.69272   0.05645   0.00000  Uiso   1.00
H1142  H     0.55985   0.74081   0.06211   0.00000  Uiso   1.00
H1143  H     0.60154   0.69052   0.11507   0.00000  Uiso   1.00
H1144  H     0.59961   0.66944   0.05946   0.00000  Uiso   1.00
H1145  H     0.56875   0.97543   0.10093   0.00000  Uiso   1.00
H1146  H     0.40943   0.72195   0.18789   0.00000  Uiso   1.00
H1147  H     0.39422   0.78097   0.17936   0.00000  Uiso   1.00
H1148  H     0.34390   0.69026   0.16899   0.00000  Uiso   1.00
H1149  H     0.65188   0.74600   0.17351   0.00000  Uiso   1.00
H1150  H     0.35237   0.77695   0.10943   0.00000  Uiso   1.00
H1151  H     0.57212   0.88095   0.48437   0.00000  Uiso   1.00
H1152  H     0.66588   0.72000   0.09508   0.00000  Uiso   1.00
H1153  H     0.38627   0.72716   0.10648   0.00000  Uiso   1.00
H1154  H     0.60958   0.94370   0.16962   0.00000  Uiso   1.00
H1155  H     0.59801   0.88318   0.17591   0.00000  Uiso   1.00
H1156  H     0.34968   0.92779   0.15854   0.00000  Uiso   1.00
H1157  H     0.34182   0.86592   0.16660   0.00000  Uiso   1.00
H1158  H     0.62583   0.86415   0.10411   0.00000  Uiso   1.00
H1159  H     0.34360   0.87950   0.08902   0.00000  Uiso   1.00
H1160  H     0.63848   0.92489   0.09256   0.00000  Uiso   1.00
H1161  H     0.59052   0.72202   0.31214   0.00000  Uiso   1.00
H1162  H     0.58835   0.87988   0.04116   0.00000  Uiso   1.00
H1163  H     0.60580   0.78101   0.32068   0.00000  Uiso   1.00
H1164  H     0.65603   0.69024   0.33102   0.00000  Uiso   1.00
H1165  H     0.34808   0.74596   0.32657   0.00000  Uiso   1.00
H1166  H     0.64758   0.77686   0.39067   0.00000  Uiso   1.00
H1167  H     0.33402   0.71989   0.40496   0.00000  Uiso   1.00
H1168  H     0.61365   0.72711   0.39355   0.00000  Uiso   1.00
H1169  H     0.39036   0.94380   0.33033   0.00000  Uiso   1.00
H1170  H     0.40205   0.88330   0.32406   0.00000  Uiso   1.00
H1171  H     0.65028   0.92767   0.34141   0.00000  Uiso   1.00
H1172  H     0.65830   0.86582   0.33341   0.00000  Uiso   1.00
H1173  H     0.58919   0.93338   0.01095   0.00000  Uiso   1.00
H1174  H     0.37430   0.86430   0.39590   0.00000  Uiso   1.00
H1175  H     0.65649   0.87949   0.41098   0.00000  Uiso   1.00
H1176  H     0.36149   0.92500   0.40740   0.00000  Uiso   1.00
H1177  H     0.57938   0.79422   0.00339   0.00000  Uiso   1.00
H1178  H     0.58763   0.78072   0.44609   0.00000  Uiso   1.00
N1179  N     0.50000   0.95069   0.25000   0.00000  Uiso   1.00
N1180  N     0.50000   0.71598   0.25000   0.00000  Uiso   1.00
O1181  O     0.43988   0.87291   0.24999   0.00000  Uiso   1.00
O1182  O     0.53227   0.75727   0.47318   0.00000  Uiso   1.00
O1183  O     0.46851   0.91180   0.47219   0.00000  Uiso   1.00
O1184  O     0.46782   0.75726   0.02680   0.00000  Uiso   1.00
O1185  O     0.50820   0.91876   0.11343   0.00000  Uiso   1.00
O1186  O     0.51275   0.74892   0.38708   0.00000  Uiso   1.00
O1187  O     0.49181   0.91876   0.38658   0.00000  Uiso   1.00
O1188  O     0.48729   0.74892   0.11291   0.00000  Uiso   1.00
O1189  O     0.37324   0.74772   0.23702   0.00000  Uiso   1.00
O1190  O     0.62951   0.91543   0.22767   0.00000  Uiso   1.00
O1191  O     0.62676   0.74772   0.26303   0.00000  Uiso   1.00
O1192  O     0.56012   0.79375   0.25000   0.00000  Uiso   1.00
O1193  O     0.37048   0.91545   0.27229   0.00000  Uiso   1.00
O1194  O     0.56012   0.87291   0.25000   0.00000  Uiso   1.00
O1195  O     0.43988   0.79375   0.24999   0.00000  Uiso   1.00
O1196  O     0.50000   0.87293   0.18573   0.00000  Uiso   1.00
O1197  O     0.50000   0.79374   0.31427   0.00000  Uiso   1.00
O1198  O     0.50000   0.87293   0.31427   0.00000  Uiso   1.00
O1199  O     0.50000   0.79374   0.18573   0.00000  Uiso   1.00
O1200  O     0.53151   0.91181   0.02783   0.00000  Uiso   1.00
C1201  C     0.75404   0.83319   0.25076   0.00000  Uiso   1.00
C1202  C     0.97949   0.87450   0.24423   0.00000  Uiso   1.00
C1203  C     0.97906   0.78995   0.25376   0.00000  Uiso   1.00
C1204  C     0.68718   0.87451   0.25576   0.00000  Uiso   1.00
C1205  C     0.84746   0.87340   0.04803   0.00000  Uiso   1.00
C1206  C     0.84666   0.79440   0.45237   0.00000  Uiso   1.00
C1207  C     0.81924   0.87340   0.45198   0.00000  Uiso   1.00
C1208  C     0.82008   0.79439   0.04762   0.00000  Uiso   1.00
C1209  C     0.84067   0.87542   0.09304   0.00000  Uiso   1.00
C1210  C     0.84003   0.79168   0.40731   0.00000  Uiso   1.00
C1211  C     0.82602   0.87542   0.40696   0.00000  Uiso   1.00
C1212  C     0.91263   0.83319   0.24925   0.00000  Uiso   1.00
C1213  C     0.82668   0.79167   0.09268   0.00000  Uiso   1.00
C1214  C     0.83384   0.83336   0.11653   0.00000  Uiso   1.00
C1215  C     0.83285   0.83336   0.38347   0.00000  Uiso   1.00
C1216  C     0.83381   0.83390   0.02427   0.00000  Uiso   1.00
C1217  C     0.83291   0.83391   0.47573   0.00000  Uiso   1.00
C1218  C     0.95728   0.83249   0.24867   0.00000  Uiso   1.00
C1219  C     0.70938   0.83249   0.25134   0.00000  Uiso   1.00
C1220  C     0.90523   0.90043   0.01575   0.00000  Uiso   1.00
C1221  C     0.90758   0.76786   0.47723   0.00000  Uiso   1.00
C1222  C     0.76147   0.90040   0.48429   0.00000  Uiso   1.00
C1223  C     0.83339   0.83333   0.16489   0.00000  Uiso   1.00
C1224  C     0.75916   0.76780   0.02281   0.00000  Uiso   1.00
C1225  C     0.80073   0.93405   0.12062   0.00000  Uiso   1.00
C1226  C     0.78570   0.96578   0.08342   0.00000  Uiso   1.00
C1227  C     0.73920   0.96694   0.08097   0.00000  Uiso   1.00
C1228  C     0.80788   0.72669   0.37926   0.00000  Uiso   1.00
C1229  C     0.78674   0.70996   0.42117   0.00000  Uiso   1.00
C1230  C     0.75209   0.67593   0.41073   0.00000  Uiso   1.00
C1231  C     0.86593   0.93406   0.37936   0.00000  Uiso   1.00
C1232  C     0.88100   0.96577   0.41656   0.00000  Uiso   1.00
C1233  C     0.92749   0.96683   0.41904   0.00000  Uiso   1.00
C1234  C     0.83328   0.83333   0.33510   0.00000  Uiso   1.00
C1235  C     0.85882   0.72668   0.12074   0.00000  Uiso   1.00
C1236  C     0.87999   0.70997   0.07884   0.00000  Uiso   1.00
C1237  C     0.91462   0.67591   0.08929   0.00000  Uiso   1.00
C1238  C     0.71667   0.74647   0.19197   0.00000  Uiso   1.00
C1239  C     0.68086   0.72861   0.16399   0.00000  Uiso   1.00
C1240  C     0.68847   0.73875   0.11575   0.00000  Uiso   1.00
C1241  C     0.95531   0.91004   0.18207   0.00000  Uiso   1.00
C1242  C     0.99390   0.89883   0.15514   0.00000  Uiso   1.00
C1243  C     0.98300   0.89166   0.10717   0.00000  Uiso   1.00
C1244  C     0.94998   0.74650   0.30807   0.00000  Uiso   1.00
C1245  C     0.80242   0.69145   0.26925   0.00000  Uiso   1.00
C1246  C     0.98576   0.72857   0.33605   0.00000  Uiso   1.00
C1247  C     0.97812   0.73867   0.38430   0.00000  Uiso   1.00
C1248  C     0.71136   0.91010   0.31790   0.00000  Uiso   1.00
C1249  C     0.67280   0.89879   0.34484   0.00000  Uiso   1.00
C1250  C     0.68372   0.89172   0.39282   0.00000  Uiso   1.00
C1251  C     0.86394   0.97525   0.23032   0.00000  Uiso   1.00
C1252  C     0.86425   0.69145   0.23075   0.00000  Uiso   1.00
C1253  C     0.80272   0.97525   0.26968   0.00000  Uiso   1.00
C1254  C     0.68761   0.78995   0.24628   0.00000  Uiso   1.00
Cu1255 Cu    0.83333   0.88022   0.25000   0.00000  Uiso   1.00
Cu1256 Cu    0.83333   0.78645   0.25000   0.00000  Uiso   1.00
H1257  H     0.77762   0.70999   0.28481   0.00000  Uiso   1.00
H1258  H     0.92420   0.73549   0.48657   0.00000  Uiso   1.00
H1259  H     0.76127   0.88097   0.01569   0.00000  Uiso   1.00
H1260  H     0.74502   0.87980   0.45891   0.00000  Uiso   1.00
H1261  H     0.74416   0.93334   0.48906   0.00000  Uiso   1.00
H1262  H     0.75397   0.79421   0.49671   0.00000  Uiso   1.00
H1263  H     0.74578   0.78056   0.05399   0.00000  Uiso   1.00
H1264  H     0.74256   0.73543   0.01341   0.00000  Uiso   1.00
H1265  H     0.80031   0.95476   0.15136   0.00000  Uiso   1.00
H1266  H     0.77881   0.90458   0.12600   0.00000  Uiso   1.00
H1267  H     0.79675   0.66850   0.08890   0.00000  Uiso   1.00
H1268  H     0.88811   0.95669   0.21418   0.00000  Uiso   1.00
H1269  H     0.79771   0.95376   0.05162   0.00000  Uiso   1.00
H1270  H     0.72747   0.93192   0.07182   0.00000  Uiso   1.00
H1271  H     0.72923   0.99242   0.05569   0.00000  Uiso   1.00
H1272  H     0.72628   0.97723   0.11301   0.00000  Uiso   1.00
H1273  H     0.81405   0.69563   0.35855   0.00000  Uiso   1.00
H1274  H     0.78642   0.74956   0.36066   0.00000  Uiso   1.00
H1275  H     0.80888   0.69268   0.44353   0.00000  Uiso   1.00
H1276  H     0.77358   0.74080   0.43795   0.00000  Uiso   1.00
H1277  H     0.73177   0.69062   0.38504   0.00000  Uiso   1.00
H1278  H     0.73383   0.66940   0.44060   0.00000  Uiso   1.00
H1279  H     0.88905   0.70998   0.21519   0.00000  Uiso   1.00
H1280  H     0.76459   0.97547   0.39898   0.00000  Uiso   1.00
H1281  H     0.86633   0.95478   0.34864   0.00000  Uiso   1.00
H1282  H     0.88785   0.90459   0.37394   0.00000  Uiso   1.00
H1283  H     0.87001   0.66851   0.41107   0.00000  Uiso   1.00
H1284  H     0.86895   0.95379   0.44836   0.00000  Uiso   1.00
H1285  H     0.93917   0.93178   0.42818   0.00000  Uiso   1.00
H1286  H     0.93750   0.99228   0.44433   0.00000  Uiso   1.00
H1287  H     0.94045   0.97710   0.38701   0.00000  Uiso   1.00
H1288  H     0.85264   0.69561   0.14144   0.00000  Uiso   1.00
H1289  H     0.88027   0.74954   0.13937   0.00000  Uiso   1.00
H1290  H     0.77856   0.95669   0.28582   0.00000  Uiso   1.00
H1291  H     0.85787   0.69272   0.05645   0.00000  Uiso   1.00
H1292  H     0.89318   0.74081   0.06211   0.00000  Uiso   1.00
H1293  H     0.93487   0.69052   0.11507   0.00000  Uiso   1.00
H1294  H     0.93294   0.66944   0.05946   0.00000  Uiso   1.00
H1295  H     0.90208   0.97543   0.10093   0.00000  Uiso   1.00
H1296  H     0.74277   0.72195   0.18789   0.00000  Uiso   1.00
H1297  H     0.72755   0.78097   0.17936   0.00000  Uiso   1.00
H1298  H     0.67723   0.69026   0.16899   0.00000  Uiso   1.00
H1299  H     0.98522   0.74600   0.17351   0.00000  Uiso   1.00
H1300  H     0.68570   0.77695   0.10943   0.00000  Uiso   1.00
H1301  H     0.90545   0.88095   0.48437   0.00000  Uiso   1.00
H1302  H     0.99921   0.72000   0.09508   0.00000  Uiso   1.00
H1303  H     0.71960   0.72716   0.10648   0.00000  Uiso   1.00
H1304  H     0.94291   0.94370   0.16962   0.00000  Uiso   1.00
H1305  H     0.93134   0.88318   0.17591   0.00000  Uiso   1.00
H1306  H     0.68301   0.92779   0.15854   0.00000  Uiso   1.00
H1307  H     0.67515   0.86592   0.16660   0.00000  Uiso   1.00
H1308  H     0.95916   0.86415   0.10411   0.00000  Uiso   1.00
H1309  H     0.67693   0.87950   0.08902   0.00000  Uiso   1.00
H1310  H     0.97181   0.92489   0.09256   0.00000  Uiso   1.00
H1311  H     0.92385   0.72202   0.31214   0.00000  Uiso   1.00
H1312  H     0.92168   0.87988   0.04116   0.00000  Uiso   1.00
H1313  H     0.93913   0.78101   0.32068   0.00000  Uiso   1.00
H1314  H     0.98936   0.69024   0.33102   0.00000  Uiso   1.00
H1315  H     0.68141   0.74596   0.32657   0.00000  Uiso   1.00
H1316  H     0.98091   0.77686   0.39067   0.00000  Uiso   1.00
H1317  H     0.66735   0.71989   0.40496   0.00000  Uiso   1.00
H1318  H     0.94698   0.72711   0.39355   0.00000  Uiso   1.00
H1319  H     0.72369   0.94380   0.33033   0.00000  Uiso   1.00
H1320  H     0.73538   0.88330   0.32406   0.00000  Uiso   1.00
H1321  H     0.98361   0.92767   0.34141   0.00000  Uiso   1.00
H1322  H     0.99163   0.86582   0.33341   0.00000  Uiso   1.00
H1323  H     0.92252   0.93338   0.01095   0.00000  Uiso   1.00
H1324  H     0.70764   0.86430   0.39590   0.00000  Uiso   1.00
H1325  H     0.98982   0.87949   0.41098   0.00000  Uiso   1.00
H1326  H     0.69483   0.92500   0.40740   0.00000  Uiso   1.00
H1327  H     0.91271   0.79422   0.00339   0.00000  Uiso   1.00
H1328  H     0.92097   0.78072   0.44609   0.00000  Uiso   1.00
N1329  N     0.83333   0.95069   0.25000   0.00000  Uiso   1.00
N1330  N     0.83333   0.71598   0.25000   0.00000  Uiso   1.00
O1331  O     0.77321   0.87291   0.24999   0.00000  Uiso   1.00
O1332  O     0.86560   0.75727   0.47318   0.00000  Uiso   1.00
O1333  O     0.80184   0.91180   0.47219   0.00000  Uiso   1.00
O1334  O     0.80115   0.75726   0.02680   0.00000  Uiso   1.00
O1335  O     0.84153   0.91876   0.11343   0.00000  Uiso   1.00
O1336  O     0.84608   0.74892   0.38708   0.00000  Uiso   1.00
O1337  O     0.82514   0.91876   0.38658   0.00000  Uiso   1.00
O1338  O     0.82062   0.74892   0.11291   0.00000  Uiso   1.00
O1339  O     0.70657   0.74772   0.23702   0.00000  Uiso   1.00
O1340  O     0.96284   0.91543   0.22767   0.00000  Uiso   1.00
O1341  O     0.96009   0.74772   0.26303   0.00000  Uiso   1.00
O1342  O     0.89345   0.79375   0.25000   0.00000  Uiso   1.00
O1343  O     0.70381   0.91545   0.27229   0.00000  Uiso   1.00
O1344  O     0.89345   0.87291   0.25000   0.00000  Uiso   1.00
O1345  O     0.77321   0.79375   0.24999   0.00000  Uiso   1.00
O1346  O     0.83333   0.87293   0.18573   0.00000  Uiso   1.00
O1347  O     0.83334   0.79374   0.31427   0.00000  Uiso   1.00
O1348  O     0.83334   0.87293   0.31427   0.00000  Uiso   1.00
O1349  O     0.83333   0.79374   0.18573   0.00000  Uiso   1.00
O1350  O     0.86484   0.91181   0.02783   0.00000  Uiso   1.00
C1351  C     0.08737   0.16653   0.75076   0.00000  Uiso   1.00
C1352  C     0.31282   0.20783   0.74423   0.00000  Uiso   1.00
C1353  C     0.31239   0.12329   0.75376   0.00000  Uiso   1.00
C1354  C     0.02051   0.20784   0.75576   0.00000  Uiso   1.00
C1355  C     0.18079   0.20674   0.54803   0.00000  Uiso   1.00
C1356  C     0.17999   0.12774   0.95237   0.00000  Uiso   1.00
C1357  C     0.15257   0.20674   0.95198   0.00000  Uiso   1.00
C1358  C     0.15341   0.12773   0.54762   0.00000  Uiso   1.00
C1359  C     0.17400   0.20876   0.59304   0.00000  Uiso   1.00
C1360  C     0.17337   0.12501   0.90731   0.00000  Uiso   1.00
C1361  C     0.15935   0.20876   0.90696   0.00000  Uiso   1.00
C1362  C     0.24596   0.16653   0.74925   0.00000  Uiso   1.00
C1363  C     0.16001   0.12500   0.59268   0.00000  Uiso   1.00
C1364  C     0.16718   0.16669   0.61653   0.00000  Uiso   1.00
C1365  C     0.16618   0.16669   0.88347   0.00000  Uiso   1.00
C1366  C     0.16714   0.16724   0.52427   0.00000  Uiso   1.00
C1367  C     0.16625   0.16724   0.97573   0.00000  Uiso   1.00
C1368  C     0.29062   0.16582   0.74867   0.00000  Uiso   1.00
C1369  C     0.04272   0.16583   0.75134   0.00000  Uiso   1.00
C1370  C     0.23856   0.23377   0.51575   0.00000  Uiso   1.00
C1371  C     0.24091   0.10119   0.97723   0.00000  Uiso   1.00
C1372  C     0.09481   0.23373   0.98429   0.00000  Uiso   1.00
C1373  C     0.16673   0.16666   0.66489   0.00000  Uiso   1.00
C1374  C     0.09249   0.10113   0.52281   0.00000  Uiso   1.00
C1375  C     0.13407   0.26738   0.62062   0.00000  Uiso   1.00
C1376  C     0.11903   0.29911   0.58342   0.00000  Uiso   1.00
C1377  C     0.07254   0.30027   0.58097   0.00000  Uiso   1.00
C1378  C     0.14121   0.06003   0.87926   0.00000  Uiso   1.00
C1379  C     0.12007   0.04330   0.92117   0.00000  Uiso   1.00
C1380  C     0.08542   0.00927   0.91073   0.00000  Uiso   1.00
C1381  C     0.19927   0.26739   0.87936   0.00000  Uiso   1.00
C1382  C     0.21434   0.29910   0.91656   0.00000  Uiso   1.00
C1383  C     0.26083   0.30016   0.91904   0.00000  Uiso   1.00
C1384  C     0.16661   0.16666   0.83510   0.00000  Uiso   1.00
C1385  C     0.19216   0.06002   0.62074   0.00000  Uiso   1.00
C1386  C     0.21332   0.04331   0.57884   0.00000  Uiso   1.00
C1387  C     0.24795   0.00924   0.58929   0.00000  Uiso   1.00
C1388  C     0.05000   0.07980   0.69197   0.00000  Uiso   1.00
C1389  C     0.01419   0.06194   0.66399   0.00000  Uiso   1.00
C1390  C     0.02181   0.07208   0.61575   0.00000  Uiso   1.00
C1391  C     0.28865   0.24337   0.68207   0.00000  Uiso   1.00
C1392  C     0.32724   0.23216   0.65514   0.00000  Uiso   1.00
C1393  C     0.31633   0.22499   0.60717   0.00000  Uiso   1.00
C1394  C     0.28331   0.07983   0.80807   0.00000  Uiso   1.00
C1395  C     0.13575   0.02479   0.76925   0.00000  Uiso   1.00
C1396  C     0.31909   0.06191   0.83605   0.00000  Uiso   1.00
C1397  C     0.31145   0.07200   0.88430   0.00000  Uiso   1.00
C1398  C     0.04469   0.24343   0.81790   0.00000  Uiso   1.00
C1399  C     0.00613   0.23213   0.84484   0.00000  Uiso   1.00
C1400  C     0.01706   0.22505   0.89282   0.00000  Uiso   1.00
C1401  C     0.19728   0.30858   0.73032   0.00000  Uiso   1.00
C1402  C     0.19758   0.02478   0.73075   0.00000  Uiso   1.00
C1403  C     0.13606   0.30859   0.76968   0.00000  Uiso   1.00
C1404  C     0.02094   0.12328   0.74628   0.00000  Uiso   1.00
Cu1405 Cu    0.16667   0.21355   0.75000   0.00000  Uiso   1.00
Cu1406 Cu    0.16667   0.11978   0.75000   0.00000  Uiso   1.00
H1407  H     0.11095   0.04332   0.78481   0.00000  Uiso   1.00
H1408  H     0.25754   0.06883   0.98657   0.00000  Uiso   1.00
H1409  H     0.09461   0.21430   0.51569   0.00000  Uiso   1.00
H1410  H     0.07836   0.21313   0.95891   0.00000  Uiso   1.00
H1411  H     0.07749   0.26667   0.98906   0.00000  Uiso   1.00
H1412  H     0.08731   0.12755   0.99671   0.00000  Uiso   1.00
H1413  H     0.07912   0.11390   0.55399   0.00000  Uiso   1.00
H1414  H     0.07590   0.06877   0.51341   0.00000  Uiso   1.00
H1415  H     0.13364   0.28809   0.65136   0.00000  Uiso   1.00
H1416  H     0.11214   0.23791   0.62600   0.00000  Uiso   1.00
H1417  H     0.13008   0.00183   0.58890   0.00000  Uiso   1.00
H1418  H     0.22144   0.29002   0.71418   0.00000  Uiso   1.00
H1419  H     0.13105   0.28709   0.55162   0.00000  Uiso   1.00
H1420  H     0.06080   0.26525   0.57182   0.00000  Uiso   1.00
H1421  H     0.06256   0.32575   0.55569   0.00000  Uiso   1.00
H1422  H     0.05961   0.31056   0.61301   0.00000  Uiso   1.00
H1423  H     0.14739   0.02896   0.85855   0.00000  Uiso   1.00
H1424  H     0.11975   0.08290   0.86066   0.00000  Uiso   1.00
H1425  H     0.14221   0.02601   0.94353   0.00000  Uiso   1.00
H1426  H     0.10691   0.07413   0.93795   0.00000  Uiso   1.00
H1427  H     0.06510   0.02396   0.88504   0.00000  Uiso   1.00
H1428  H     0.06717   0.00273   0.94060   0.00000  Uiso   1.00
H1429  H     0.22238   0.04331   0.71519   0.00000  Uiso   1.00
H1430  H     0.09792   0.30880   0.89898   0.00000  Uiso   1.00
H1431  H     0.19966   0.28812   0.84864   0.00000  Uiso   1.00
H1432  H     0.22119   0.23792   0.87394   0.00000  Uiso   1.00
H1433  H     0.20335   0.00185   0.91107   0.00000  Uiso   1.00
H1434  H     0.20229   0.28712   0.94836   0.00000  Uiso   1.00
H1435  H     0.27250   0.26511   0.92818   0.00000  Uiso   1.00
H1436  H     0.27083   0.32561   0.94433   0.00000  Uiso   1.00
H1437  H     0.27378   0.31044   0.88701   0.00000  Uiso   1.00
H1438  H     0.18597   0.02894   0.64144   0.00000  Uiso   1.00
H1439  H     0.21360   0.08288   0.63937   0.00000  Uiso   1.00
H1440  H     0.11189   0.29003   0.78582   0.00000  Uiso   1.00
H1441  H     0.19120   0.02605   0.55645   0.00000  Uiso   1.00
H1442  H     0.22652   0.07415   0.56211   0.00000  Uiso   1.00
H1443  H     0.26820   0.02386   0.61507   0.00000  Uiso   1.00
H1444  H     0.26628   0.00277   0.55946   0.00000  Uiso   1.00
H1445  H     0.23542   0.30876   0.60093   0.00000  Uiso   1.00
H1446  H     0.07610   0.05528   0.68789   0.00000  Uiso   1.00
H1447  H     0.06089   0.11431   0.67936   0.00000  Uiso   1.00
H1448  H     0.01057   0.02360   0.66899   0.00000  Uiso   1.00
H1449  H     0.31855   0.07933   0.67351   0.00000  Uiso   1.00
H1450  H     0.01903   0.11028   0.60943   0.00000  Uiso   1.00
H1451  H     0.23878   0.21428   0.98437   0.00000  Uiso   1.00
H1452  H     0.33255   0.05333   0.59508   0.00000  Uiso   1.00
H1453  H     0.05294   0.06050   0.60648   0.00000  Uiso   1.00
H1454  H     0.27625   0.27704   0.66962   0.00000  Uiso   1.00
H1455  H     0.26468   0.21651   0.67591   0.00000  Uiso   1.00
H1456  H     0.01634   0.26112   0.65854   0.00000  Uiso   1.00
H1457  H     0.00849   0.19925   0.66660   0.00000  Uiso   1.00
H1458  H     0.29249   0.19748   0.60411   0.00000  Uiso   1.00
H1459  H     0.01026   0.21284   0.58902   0.00000  Uiso   1.00
H1460  H     0.30514   0.25822   0.59256   0.00000  Uiso   1.00
H1461  H     0.25719   0.05535   0.81214   0.00000  Uiso   1.00
H1462  H     0.25502   0.21322   0.54116   0.00000  Uiso   1.00
H1463  H     0.27247   0.11434   0.82068   0.00000  Uiso   1.00
H1464  H     0.32270   0.02357   0.83102   0.00000  Uiso   1.00
H1465  H     0.01474   0.07929   0.82657   0.00000  Uiso   1.00
H1466  H     0.31424   0.11019   0.89067   0.00000  Uiso   1.00
H1467  H     0.00068   0.05322   0.90496   0.00000  Uiso   1.00
H1468  H     0.28032   0.06044   0.89355   0.00000  Uiso   1.00
H1469  H     0.05702   0.27714   0.83033   0.00000  Uiso   1.00
H1470  H     0.06872   0.21663   0.82406   0.00000  Uiso   1.00
H1471  H     0.31695   0.26101   0.84141   0.00000  Uiso   1.00
H1472  H     0.32497   0.19915   0.83341   0.00000  Uiso   1.00
H1473  H     0.25585   0.26672   0.51095   0.00000  Uiso   1.00
H1474  H     0.04097   0.19763   0.89590   0.00000  Uiso   1.00
H1475  H     0.32316   0.21283   0.91098   0.00000  Uiso   1.00
H1476  H     0.02816   0.25833   0.90740   0.00000  Uiso   1.00
H1477  H     0.24605   0.12755   0.50339   0.00000  Uiso   1.00
H1478  H     0.25430   0.11405   0.94609   0.00000  Uiso   1.00
N1479  N     0.16667   0.28402   0.75000   0.00000  Uiso   1.00
N1480  N     0.16667   0.04931   0.75000   0.00000  Uiso   1.00
O1481  O     0.10655   0.20625   0.74999   0.00000  Uiso   1.00
O1482  O     0.19894   0.09061   0.97318   0.00000  Uiso   1.00
O1483  O     0.13518   0.24514   0.97219   0.00000  Uiso   1.00
O1484  O     0.13448   0.09059   0.52680   0.00000  Uiso   1.00
O1485  O     0.17487   0.25209   0.61343   0.00000  Uiso   1.00
O1486  O     0.17941   0.08226   0.88708   0.00000  Uiso   1.00
O1487  O     0.15847   0.25209   0.88658   0.00000  Uiso   1.00
O1488  O     0.15396   0.08225   0.61291   0.00000  Uiso   1.00
O1489  O     0.03991   0.08105   0.73702   0.00000  Uiso   1.00
O1490  O     0.29618   0.24876   0.72767   0.00000  Uiso   1.00
O1491  O     0.29343   0.08106   0.76303   0.00000  Uiso   1.00
O1492  O     0.22679   0.12709   0.75000   0.00000  Uiso   1.00
O1493  O     0.03715   0.24878   0.77229   0.00000  Uiso   1.00
O1494  O     0.22679   0.20625   0.75000   0.00000  Uiso   1.00
O1495  O     0.10655   0.12709   0.74999   0.00000  Uiso   1.00
O1496  O     0.16666   0.20626   0.68573   0.00000  Uiso   1.00
O1497  O     0.16667   0.12707   0.81427   0.00000  Uiso   1.00
O1498  O     0.16667   0.20626   0.81427   0.00000  Uiso   1.00
O1499  O     0.16666   0.12707   0.68573   0.00000  Uiso   1.00
O1500  O     0.19818   0.24515   0.52783   0.00000  Uiso   1.00
C1501  C     0.42071   0.16653   0.75076   0.00000  Uiso   1.00
C1502  C     0.64615   0.20783   0.74423   0.00000  Uiso   1.00
C1503  C     0.64572   0.12329   0.75376   0.00000  Uiso   1.00
C1504  C     0.35384   0.20784   0.75576   0.00000  Uiso   1.00
C1505  C     0.51413   0.20674   0.54803   0.00000  Uiso   1.00
C1506  C     0.51332   0.12774   0.95237   0.00000  Uiso   1.00
C1507  C     0.48591   0.20674   0.95198   0.00000  Uiso   1.00
C1508  C     0.48674   0.12773   0.54762   0.00000  Uiso   1.00
C1509  C     0.50734   0.20876   0.59304   0.00000  Uiso   1.00
C1510  C     0.50670   0.12501   0.90731   0.00000  Uiso   1.00
C1511  C     0.49269   0.20876   0.90696   0.00000  Uiso   1.00
C1512  C     0.57929   0.16653   0.74925   0.00000  Uiso   1.00
C1513  C     0.49334   0.12500   0.59268   0.00000  Uiso   1.00
C1514  C     0.50051   0.16669   0.61653   0.00000  Uiso   1.00
C1515  C     0.49952   0.16669   0.88347   0.00000  Uiso   1.00
C1516  C     0.50047   0.16724   0.52427   0.00000  Uiso   1.00
C1517  C     0.49958   0.16724   0.97573   0.00000  Uiso   1.00
C1518  C     0.62395   0.16582   0.74867   0.00000  Uiso   1.00
C1519  C     0.37605   0.16583   0.75134   0.00000  Uiso   1.00
C1520  C     0.57189   0.23377   0.51575   0.00000  Uiso   1.00
C1521  C     0.57425   0.10119   0.97723   0.00000  Uiso   1.00
C1522  C     0.42814   0.23373   0.98429   0.00000  Uiso   1.00
C1523  C     0.50006   0.16666   0.66489   0.00000  Uiso   1.00
C1524  C     0.42583   0.10113   0.52281   0.00000  Uiso   1.00
C1525  C     0.46740   0.26738   0.62062   0.00000  Uiso   1.00
C1526  C     0.45236   0.29911   0.58342   0.00000  Uiso   1.00
C1527  C     0.40587   0.30027   0.58097   0.00000  Uiso   1.00
C1528  C     0.47454   0.06003   0.87926   0.00000  Uiso   1.00
C1529  C     0.45341   0.04330   0.92117   0.00000  Uiso   1.00
C1530  C     0.41875   0.00927   0.91073   0.00000  Uiso   1.00
C1531  C     0.53260   0.26739   0.87936   0.00000  Uiso   1.00
C1532  C     0.54767   0.29910   0.91656   0.00000  Uiso   1.00
C1533  C     0.59416   0.30016   0.91904   0.00000  Uiso   1.00
C1534  C     0.49994   0.16666   0.83510   0.00000  Uiso   1.00
C1535  C     0.52549   0.06002   0.62074   0.00000  Uiso   1.00
C1536  C     0.54666   0.04331   0.57884   0.00000  Uiso   1.00
C1537  C     0.58128   0.00924   0.58929   0.00000  Uiso   1.00
C1538  C     0.38334   0.07980   0.69197   0.00000  Uiso   1.00
C1539  C     0.34752   0.06194   0.66399   0.00000  Uiso   1.00
C1540  C     0.35514   0.07208   0.61575   0.00000  Uiso   1.00
C1541  C     0.62198   0.24337   0.68207   0.00000  Uiso   1.00
C1542  C     0.66057   0.23216   0.65514   0.00000  Uiso   1.00
C1543  C     0.64967   0.22499   0.60717   0.00000  Uiso   1.00
C1544  C     0.61665   0.07983   0.80807   0.00000  Uiso   1.00
C1545  C     0.46908   0.02479   0.76925   0.00000  Uiso   1.00
C1546  C     0.65243   0.06191   0.83605   0.00000  Uiso   1.00
C1547  C     0.64478   0.07200   0.88430   0.00000  Uiso   1.00
C1548  C     0.37803   0.24343   0.81790   0.00000  Uiso   1.00
C1549  C     0.33946   0.23213   0.84484   0.00000  Uiso   1.00
C1550  C     0.35039   0.22505   0.89282   0.00000  Uiso   1.00
C1551  C     0.53061   0.30858   0.73032   0.00000  Uiso   1.00
C1552  C     0.53092   0.02478   0.73075   0.00000  Uiso   1.00
C1553  C     0.46939   0.30859   0.76968   0.00000  Uiso   1.00
C1554  C     0.35428   0.12328   0.74628   0.00000  Uiso   1.00
Cu1555 Cu    0.50000   0.21355   0.75000   0.00000  Uiso   1.00
Cu1556 Cu    0.50000   0.11978   0.75000   0.00000  Uiso   1.00
H1557  H     0.44428   0.04332   0.78481   0.00000  Uiso   1.00
H1558  H     0.59087   0.06883   0.98657   0.00000  Uiso   1.00
H1559  H     0.42794   0.21430   0.51569   0.00000  Uiso   1.00
H1560  H     0.41169   0.21313   0.95891   0.00000  Uiso   1.00
H1561  H     0.41082   0.26667   0.98906   0.00000  Uiso   1.00
H1562  H     0.42064   0.12755   0.99671   0.00000  Uiso   1.00
H1563  H     0.41245   0.11390   0.55399   0.00000  Uiso   1.00
H1564  H     0.40923   0.06877   0.51341   0.00000  Uiso   1.00
H1565  H     0.46698   0.28809   0.65136   0.00000  Uiso   1.00
H1566  H     0.44547   0.23791   0.62600   0.00000  Uiso   1.00
H1567  H     0.46342   0.00183   0.58890   0.00000  Uiso   1.00
H1568  H     0.55478   0.29002   0.71418   0.00000  Uiso   1.00
H1569  H     0.46438   0.28709   0.55162   0.00000  Uiso   1.00
H1570  H     0.39413   0.26525   0.57182   0.00000  Uiso   1.00
H1571  H     0.39590   0.32575   0.55569   0.00000  Uiso   1.00
H1572  H     0.39294   0.31056   0.61301   0.00000  Uiso   1.00
H1573  H     0.48072   0.02896   0.85855   0.00000  Uiso   1.00
H1574  H     0.45308   0.08290   0.86066   0.00000  Uiso   1.00
H1575  H     0.47554   0.02601   0.94353   0.00000  Uiso   1.00
H1576  H     0.44024   0.07413   0.93795   0.00000  Uiso   1.00
H1577  H     0.39844   0.02396   0.88504   0.00000  Uiso   1.00
H1578  H     0.40050   0.00273   0.94060   0.00000  Uiso   1.00
H1579  H     0.55572   0.04331   0.71519   0.00000  Uiso   1.00
H1580  H     0.43125   0.30880   0.89898   0.00000  Uiso   1.00
H1581  H     0.53300   0.28812   0.84864   0.00000  Uiso   1.00
H1582  H     0.55452   0.23792   0.87394   0.00000  Uiso   1.00
H1583  H     0.53668   0.00185   0.91107   0.00000  Uiso   1.00
H1584  H     0.53562   0.28712   0.94836   0.00000  Uiso   1.00
H1585  H     0.60584   0.26511   0.92818   0.00000  Uiso   1.00
H1586  H     0.60416   0.32561   0.94433   0.00000  Uiso   1.00
H1587  H     0.60711   0.31044   0.88701   0.00000  Uiso   1.00
H1588  H     0.51930   0.02894   0.64144   0.00000  Uiso   1.00
H1589  H     0.54694   0.08288   0.63937   0.00000  Uiso   1.00
H1590  H     0.44522   0.29003   0.78582   0.00000  Uiso   1.00
H1591  H     0.52453   0.02605   0.55645   0.00000  Uiso   1.00
H1592  H     0.55985   0.07415   0.56211   0.00000  Uiso   1.00
H1593  H     0.60154   0.02386   0.61507   0.00000  Uiso   1.00
H1594  H     0.59961   0.00277   0.55946   0.00000  Uiso   1.00
H1595  H     0.56875   0.30876   0.60093   0.00000  Uiso   1.00
H1596  H     0.40943   0.05528   0.68789   0.00000  Uiso   1.00
H1597  H     0.39422   0.11431   0.67936   0.00000  Uiso   1.00
H1598  H     0.34390   0.02360   0.66899   0.00000  Uiso   1.00
H1599  H     0.65188   0.07933   0.67351   0.00000  Uiso   1.00
H1600  H     0.35237   0.11028   0.60943   0.00000  Uiso   1.00
H1601  H     0.57212   0.21428   0.98437   0.00000  Uiso   1.00
H1602  H     0.66588   0.05333   0.59508   0.00000  Uiso   1.00
H1603  H     0.38627   0.06050   0.60648   0.00000  Uiso   1.00
H1604  H     0.60958   0.27704   0.66962   0.00000  Uiso   1.00
H1605  H     0.59801   0.21651   0.67591   0.00000  Uiso   1.00
H1606  H     0.34968   0.26112   0.65854   0.00000  Uiso   1.00
H1607  H     0.34182   0.19925   0.66660   0.00000  Uiso   1.00
H1608  H     0.62583   0.19748   0.60411   0.00000  Uiso   1.00
H1609  H     0.34360   0.21284   0.58902   0.00000  Uiso   1.00
H1610  H     0.63848   0.25822   0.59256   0.00000  Uiso   1.00
H1611  H     0.59052   0.05535   0.81214   0.00000  Uiso   1.00
H1612  H     0.58835   0.21322   0.54116   0.00000  Uiso   1.00
H1613  H     0.60580   0.11434   0.82068   0.00000  Uiso   1.00
H1614  H     0.65603   0.02357   0.83102   0.00000  Uiso   1.00
H1615  H     0.34808   0.07929   0.82657   0.00000  Uiso   1.00
H1616  H     0.64758   0.11019   0.89067   0.00000  Uiso   1.00
H1617  H     0.33402   0.05322   0.90496   0.00000  Uiso   1.00
H1618  H     0.61365   0.06044   0.89355   0.00000  Uiso   1.00
H1619  H     0.39036   0.27714   0.83033   0.00000  Uiso   1.00
H1620  H     0.40205   0.21663   0.82406   0.00000  Uiso   1.00
H1621  H     0.65028   0.26101   0.84141   0.00000  Uiso   1.00
H1622  H     0.65830   0.19915   0.83341   0.00000  Uiso   1.00
H1623  H     0.58919   0.26672   0.51095   0.00000  Uiso   1.00
H1624  H     0.37430   0.19763   0.89590   0.00000  Uiso   1.00
H1625  H     0.65649   0.21283   0.91098   0.00000  Uiso   1.00
H1626  H     0.36149   0.25833   0.90740   0.00000  Uiso   1.00
H1627  H     0.57938   0.12755   0.50339   0.00000  Uiso   1.00
H1628  H     0.58763   0.11405   0.94609   0.00000  Uiso   1.00
N1629  N     0.50000   0.28402   0.75000   0.00000  Uiso   1.00
N1630  N     0.50000   0.04931   0.75000   0.00000  Uiso   1.00
O1631  O     0.43988   0.20625   0.74999   0.00000  Uiso   1.00
O1632  O     0.53227   0.09061   0.97318   0.00000  Uiso   1.00
O1633  O     0.46851   0.24514   0.97219   0.00000  Uiso   1.00
O1634  O     0.46782   0.09059   0.52680   0.00000  Uiso   1.00
O1635  O     0.50820   0.25209   0.61343   0.00000  Uiso   1.00
O1636  O     0.51275   0.08226   0.88708   0.00000  Uiso   1.00
O1637  O     0.49181   0.25209   0.88658   0.00000  Uiso   1.00
O1638  O     0.48729   0.08225   0.61291   0.00000  Uiso   1.00
O1639  O     0.37324   0.08105   0.73702   0.00000  Uiso   1.00
O1640  O     0.62951   0.24876   0.72767   0.00000  Uiso   1.00
O1641  O     0.62676   0.08106   0.76303   0.00000  Uiso   1.00
O1642  O     0.56012   0.12709   0.75000   0.00000  Uiso   1.00
O1643  O     0.37048   0.24878   0.77229   0.00000  Uiso   1.00
O1644  O     0.56012   0.20625   0.75000   0.00000  Uiso   1.00
O1645  O     0.43988   0.12709   0.74999   0.00000  Uiso   1.00
O1646  O     0.50000   0.20626   0.68573   0.00000  Uiso   1.00
O1647  O     0.50000   0.12707   0.81427   0.00000  Uiso   1.00
O1648  O     0.50000   0.20626   0.81427   0.00000  Uiso   1.00
O1649  O     0.50000   0.12707   0.68573   0.00000  Uiso   1.00
O1650  O     0.53151   0.24515   0.52783   0.00000  Uiso   1.00
C1651  C     0.75404   0.16653   0.75076   0.00000  Uiso   1.00
C1652  C     0.97949   0.20783   0.74423   0.00000  Uiso   1.00
C1653  C     0.97906   0.12329   0.75376   0.00000  Uiso   1.00
C1654  C     0.68718   0.20784   0.75576   0.00000  Uiso   1.00
C1655  C     0.84746   0.20674   0.54803   0.00000  Uiso   1.00
C1656  C     0.84666   0.12774   0.95237   0.00000  Uiso   1.00
C1657  C     0.81924   0.20674   0.95198   0.00000  Uiso   1.00
C1658  C     0.82008   0.12773   0.54762   0.00000  Uiso   1.00
C1659  C     0.84067   0.20876   0.59304   0.00000  Uiso   1.00
C1660  C     0.84003   0.12501   0.90731   0.00000  Uiso   1.00
C1661  C     0.82602   0.20876   0.90696   0.00000  Uiso   1.00
C1662  C     0.91263   0.16653   0.74925   0.00000  Uiso   1.00
C1663  C     0.82668   0.12500   0.59268   0.00000  Uiso   1.00
C1664  C     0.83384   0.16669   0.61653   0.00000  Uiso   1.00
C1665  C     0.83285   0.16669   0.88347   0.00000  Uiso   1.00
C1666  C     0.83381   0.16724   0.52427   0.00000  Uiso   1.00
C1667  C     0.83291   0.16724   0.97573   0.00000  Uiso   1.00
C1668  C     0.95728   0.16582   0.74867   0.00000  Uiso   1.00
C1669  C     0.70938   0.16583   0.75134   0.00000  Uiso   1.00
C1670  C     0.90523   0.23377   0.51575   0.00000  Uiso   1.00
C1671  C     0.90758   0.10119   0.97723   0.00000  Uiso   1.00
C1672  C     0.76147   0.23373   0.98429   0.00000  Uiso   1.00
C1673  C     0.83339   0.16666   0.66489   0.00000  Uiso   1.00
C1674  C     0.75916   0.10113   0.52281   0.00000  Uiso   1.00
C1675  C     0.80073   0.26738   0.62062   0.00000  Uiso   1.00
C1676  C     0.78570   0.29911   0.58342   0.00000  Uiso   1.00
C1677  C     0.73920   0.30027   0.58097   0.00000  Uiso   1.00
C1678  C     0.80788   0.06003   0.87926   0.00000  Uiso   1.00
C1679  C     0.78674   0.04330   0.92117   0.00000  Uiso   1.00
C1680  C     0.75209   0.00927   0.91073   0.00000  Uiso   1.00
C1681  C     0.86593   0.26739   0.87936   0.00000  Uiso   1.00
C1682  C     0.88100   0.29910   0.91656   0.00000  Uiso   1.00
C1683  C     0.92749   0.30016   0.91904   0.00000  Uiso   1.00
C1684  C     0.83328   0.16666   0.83510   0.00000  Uiso   1.00
C1685  C     0.85882   0.06002   0.62074   0.00000  Uiso   1.00
C1686  C     0.87999   0.04331   0.57884   0.00000  Uiso   1.00
C1687  C     0.91462   0.00924   0.58929   0.00000  Uiso   1.00
C1688  C     0.71667   0.07980   0.69197   0.00000  Uiso   1.00
C1689  C     0.68086   0.06194   0.66399   0.00000  Uiso   1.00
C1690  C     0.68847   0.07208   0.61575   0.00000  Uiso   1.00
C1691  C     0.95531   0.24337   0.68207   0.00000  Uiso   1.00
C1692  C     0.99390   0.23216   0.65514   0.00000  Uiso   1.00
C1693  C     0.98300   0.22499   0.60717   0.00000  Uiso   1.00
C1694  C     0.94998   0.07983   0.80807   0.00000  Uiso   1.00
C1695  C     0.80242   0.02479   0.76925   0.00000  Uiso   1.00
C1696  C     0.98576   0.06191   0.83605   0.00000  Uiso   1.00
C1697  C     0.97812   0.07200   0.88430   0.00000  Uiso   1.00
C1698  C     0.71136   0.24343   0.81790   0.00000  Uiso   1.00
C1699  C     0.67280   0.23213   0.84484   0.00000  Uiso   1.00
C1700  C     0.68372   0.22505   0.89282   0.00000  Uiso   1.00
C1701  C     0.86394   0.30858   0.73032   0.00000  Uiso   1.00
C1702  C     0.86425   0.02478   0.73075   0.00000  Uiso   1.00
C1703  C     0.80272   0.30859   0.76968   0.00000  Uiso   1.00
C1704  C     0.68761   0.12328   0.74628   0.00000  Uiso   1.00
Cu1705 Cu    0.83333   0.21355   0.75000   0.00000  Uiso   1.00
Cu1706 Cu    0.83333   0.11978   0.75000   0.00000  Uiso   1.00
H1707  H     0.77762   0.04332   0.78481   0.00000  Uiso   1.00
H1708  H     0.92420   0.06883   0.98657   0.00000  Uiso   1.00
H1709  H     0.76127   0.21430   0.51569   0.00000  Uiso   1.00
H1710  H     0.74502   0.21313   0.95891   0.00000  Uiso   1.00
H1711  H     0.74416   0.26667   0.98906   0.00000  Uiso   1.00
H1712  H     0.75397   0.12755   0.99671   0.00000  Uiso   1.00
H1713  H     0.74578   0.11390   0.55399   0.00000  Uiso   1.00
H1714  H     0.74256   0.06877   0.51341   0.00000  Uiso   1.00
H1715  H     0.80031   0.28809   0.65136   0.00000  Uiso   1.00
H1716  H     0.77881   0.23791   0.62600   0.00000  Uiso   1.00
H1717  H     0.79675   0.00183   0.58890   0.00000  Uiso   1.00
H1718  H     0.88811   0.29002   0.71418   0.00000  Uiso   1.00
H1719  H     0.79771   0.28709   0.55162   0.00000  Uiso   1.00
H1720  H     0.72747   0.26525   0.57182   0.00000  Uiso   1.00
H1721  H     0.72923   0.32575   0.55569   0.00000  Uiso   1.00
H1722  H     0.72628   0.31056   0.61301   0.00000  Uiso   1.00
H1723  H     0.81405   0.02896   0.85855   0.00000  Uiso   1.00
H1724  H     0.78642   0.08290   0.86066   0.00000  Uiso   1.00
H1725  H     0.80888   0.02601   0.94353   0.00000  Uiso   1.00
H1726  H     0.77358   0.07413   0.93795   0.00000  Uiso   1.00
H1727  H     0.73177   0.02396   0.88504   0.00000  Uiso   1.00
H1728  H     0.73383   0.00273   0.94060   0.00000  Uiso   1.00
H1729  H     0.88905   0.04331   0.71519   0.00000  Uiso   1.00
H1730  H     0.76459   0.30880   0.89898   0.00000  Uiso   1.00
H1731  H     0.86633   0.28812   0.84864   0.00000  Uiso   1.00
H1732  H     0.88785   0.23792   0.87394   0.00000  Uiso   1.00
H1733  H     0.87001   0.00185   0.91107   0.00000  Uiso   1.00
H1734  H     0.86895   0.28712   0.94836   0.00000  Uiso   1.00
H1735  H     0.93917   0.26511   0.92818   0.00000  Uiso   1.00
H1736  H     0.93750   0.32561   0.94433   0.00000  Uiso   1.00
H1737  H     0.94045   0.31044   0.88701   0.00000  Uiso   1.00
H1738  H     0.85264   0.02894   0.64144   0.00000  Uiso   1.00
H1739  H     0.88027   0.08288   0.63937   0.00000  Uiso   1.00
H1740  H     0.77856   0.29003   0.78582   0.00000  Uiso   1.00
H1741  H     0.85787   0.02605   0.55645   0.00000  Uiso   1.00
H1742  H     0.89318   0.07415   0.56211   0.00000  Uiso   1.00
H1743  H     0.93487   0.02386   0.61507   0.00000  Uiso   1.00
H1744  H     0.93294   0.00277   0.55946   0.00000  Uiso   1.00
H1745  H     0.90208   0.30876   0.60093   0.00000  Uiso   1.00
H1746  H     0.74277   0.05528   0.68789   0.00000  Uiso   1.00
H1747  H     0.72755   0.11431   0.67936   0.00000  Uiso   1.00
H1748  H     0.67723   0.02360   0.66899   0.00000  Uiso   1.00
H1749  H     0.98522   0.07933   0.67351   0.00000  Uiso   1.00
H1750  H     0.68570   0.11028   0.60943   0.00000  Uiso   1.00
H1751  H     0.90545   0.21428   0.98437   0.00000  Uiso   1.00
H1752  H     0.99921   0.05333   0.59508   0.00000  Uiso   1.00
H1753  H     0.71960   0.06050   0.60648   0.00000  Uiso   1.00
H1754  H     0.94291   0.27704   0.66962   0.00000  Uiso   1.00
H1755  H     0.93134   0.21651   0.67591   0.00000  Uiso   1.00
H1756  H     0.68301   0.26112   0.65854   0.00000  Uiso   1.00
H1757  H     0.67515   0.19925   0.66660   0.00000  Uiso   1.00
H1758  H     0.95916   0.19748   0.60411   0.00000  Uiso   1.00
H1759  H     0.67693   0.21284   0.58902   0.00000  Uiso   1.00
H1760  H     0.97181   0.25822   0.59256   0.00000  Uiso   1.00
H1761  H     0.92385   0.05535   0.81214   0.00000  Uiso   1.00
H1762  H     0.92168   0.21322   0.54116   0.00000  Uiso   1.00
H1763  H     0.93913   0.11434   0.82068   0.00000  Uiso   1.00
H1764  H     0.98936   0.02357   0.83102   0.00000  Uiso   1.00
H1765  H     0.68141   0.07929   0.82657   0.00000  Uiso   1.00
H1766  H     0.98091   0.11019   0.89067   0.00000  Uiso   1.00
H1767  H     0.66735   0.05322   0.90496   0.00000  Uiso   1.00
H1768  H     0.94698   0.06044   0.89355   0.00000  Uiso   1.00
H1769  H     0.72369   0.27714   0.83033   0.00000  Uiso   1.00
H1770  H     0.73538   0.21663   0.82406   0.00000  Uiso   1.00
H1771  H     0.98361   0.26101   0.84141   0.00000  Uiso   1.00
H1772  H     0.99163   0.19915   0.83341   0.00000  Uiso   1.00
H1773  H     0.92252   0.26672   0.51095   0.00000  Uiso   1.00
H1774  H     0.70764   0.19763   0.89590   0.00000  Uiso   1.00
H1775  H     0.98982   0.21283   0.91098   0.00000  Uiso   1.00
H1776  H     0.69483   0.25833   0.90740   0.00000  Uiso   1.00
H1777  H     0.91271   0.12755   0.50339   0.00000  Uiso   1.00
H1778  H     0.92097   0.11405   0.94609   0.00000  Uiso   1.00
N1779  N     0.83333   0.28402   0.75000   0.00000  Uiso   1.00
N1780  N     0.83333   0.04931   0.75000   0.00000  Uiso   1.00
O1781  O     0.77321   0.20625   0.74999   0.00000  Uiso   1.00
O1782  O     0.86560   0.09061   0.97318   0.00000  Uiso   1.00
O1783  O     0.80184   0.24514   0.97219   0.00000  Uiso   1.00
O1784  O     0.80115   0.09059   0.52680   0.00000  Uiso   1.00
O1785  O     0.84153   0.25209   0.61343   0.00000  Uiso   1.00
O1786  O     0.84608   0.08226   0.88708   0.00000  Uiso   1.00
O1787  O     0.82514   0.25209   0.88658   0.00000  Uiso   1.00
O1788  O     0.82062   0.08225   0.61291   0.00000  Uiso   1.00
O1789  O     0.70657   0.08105   0.73702   0.00000  Uiso   1.00
O1790  O     0.96284   0.24876   0.72767   0.00000  Uiso   1.00
O1791  O     0.96009   0.08106   0.76303   0.00000  Uiso   1.00
O1792  O     0.89345   0.12709   0.75000   0.00000  Uiso   1.00
O1793  O     0.70381   0.24878   0.77229   0.00000  Uiso   1.00
O1794  O     0.89345   0.20625   0.75000   0.00000  Uiso   1.00
O1795  O     0.77321   0.12709   0.74999   0.00000  Uiso   1.00
O1796  O     0.83333   0.20626   0.68573   0.00000  Uiso   1.00
O1797  O     0.83334   0.12707   0.81427   0.00000  Uiso   1.00
O1798  O     0.83334   0.20626   0.81427   0.00000  Uiso   1.00
O1799  O     0.83333   0.12707   0.68573   0.00000  Uiso   1.00
O1800  O     0.86484   0.24515   0.52783   0.00000  Uiso   1.00
C1801  C     0.08737   0.49986   0.75076   0.00000  Uiso   1.00
C1802  C     0.31282   0.54117   0.74423   0.00000  Uiso   1.00
C1803  C     0.31239   0.45662   0.75376   0.00000  Uiso   1.00
C1804  C     0.02051   0.54117   0.75576   0.00000  Uiso   1.00
C1805  C     0.18079   0.54007   0.54803   0.00000  Uiso   1.00
C1806  C     0.17999   0.46107   0.95237   0.00000  Uiso   1.00
C1807  C     0.15257   0.54007   0.95198   0.00000  Uiso   1.00
C1808  C     0.15341   0.46106   0.54762   0.00000  Uiso   1.00
C1809  C     0.17400   0.54209   0.59304   0.00000  Uiso   1.00
C1810  C     0.17337   0.45834   0.90731   0.00000  Uiso   1.00
C1811  C     0.15935   0.54209   0.90696   0.00000  Uiso   1.00
C1812  C     0.24596   0.49986   0.74925   0.00000  Uiso   1.00
C1813  C     0.16001   0.45833   0.59268   0.00000  Uiso   1.00
C1814  C     0.16718   0.50002   0.61653   0.00000  Uiso   1.00
C1815  C     0.16618   0.50003   0.88347   0.00000  Uiso   1.00
C1816  C     0.16714   0.50057   0.52427   0.00000  Uiso   1.00
C1817  C     0.16625   0.50057   0.97573   0.00000  Uiso   1.00
C1818  C     0.29062   0.49916   0.74867   0.00000  Uiso   1.00
C1819  C     0.04272   0.49916   0.75134   0.00000  Uiso   1.00
C1820  C     0.23856   0.56710   0.51575   0.00000  Uiso   1.00
C1821  C     0.24091   0.43453   0.97723   0.00000  Uiso   1.00
C1822  C     0.09481   0.56707   0.98429   0.00000  Uiso   1.00
C1823  C     0.16673   0.49999   0.66489   0.00000  Uiso   1.00
C1824  C     0.09249   0.43447   0.52281   0.00000  Uiso   1.00
C1825  C     0.13407   0.60072   0.62062   0.00000  Uiso   1.00
C1826  C     0.11903   0.63244   0.58342   0.00000  Uiso   1.00
C1827  C     0.07254   0.63361   0.58097   0.00000  Uiso   1.00
C1828  C     0.14121   0.39336   0.87926   0.00000  Uiso   1.00
C1829  C     0.12007   0.37663   0.92117   0.00000  Uiso   1.00
C1830  C     0.08542   0.34260   0.91073   0.00000  Uiso   1.00
C1831  C     0.19927   0.60072   0.87936   0.00000  Uiso   1.00
C1832  C     0.21434   0.63243   0.91656   0.00000  Uiso   1.00
C1833  C     0.26083   0.63350   0.91904   0.00000  Uiso   1.00
C1834  C     0.16661   0.50000   0.83510   0.00000  Uiso   1.00
C1835  C     0.19216   0.39335   0.62074   0.00000  Uiso   1.00
C1836  C     0.21332   0.37664   0.57884   0.00000  Uiso   1.00
C1837  C     0.24795   0.34257   0.58929   0.00000  Uiso   1.00
C1838  C     0.05000   0.41314   0.69197   0.00000  Uiso   1.00
C1839  C     0.01419   0.39527   0.66399   0.00000  Uiso   1.00
C1840  C     0.02181   0.40541   0.61575   0.00000  Uiso   1.00
C1841  C     0.28865   0.57671   0.68207   0.00000  Uiso   1.00
C1842  C     0.32724   0.56550   0.65514   0.00000  Uiso   1.00
C1843  C     0.31633   0.55832   0.60717   0.00000  Uiso   1.00
C1844  C     0.28331   0.41316   0.80807   0.00000  Uiso   1.00
C1845  C     0.13575   0.35812   0.76925   0.00000  Uiso   1.00
C1846  C     0.31909   0.39524   0.83605   0.00000  Uiso   1.00
C1847  C     0.31145   0.40534   0.88430   0.00000  Uiso   1.00
C1848  C     0.04469   0.57677   0.81790   0.00000  Uiso   1.00
C1849  C     0.00613   0.56546   0.84484   0.00000  Uiso   1.00
C1850  C     0.01706   0.55838   0.89282   0.00000  Uiso   1.00
C1851  C     0.19728   0.64192   0.73032   0.00000  Uiso   1.00
C1852  C     0.19758   0.35812   0.73075   0.00000  Uiso   1.00
C1853  C     0.13606   0.64192   0.76968   0.00000  Uiso   1.00
C1854  C     0.02094   0.45662   0.74628   0.00000  Uiso   1.00
Cu1855 Cu    0.16667   0.54689   0.75000   0.00000  Uiso   1.00
Cu1856 Cu    0.16667   0.45311   0.75000   0.00000  Uiso   1.00
H1857  H     0.11095   0.37665   0.78481   0.00000  Uiso   1.00
H1858  H     0.25754   0.40216   0.98657   0.00000  Uiso   1.00
H1859  H     0.09461   0.54763   0.51569   0.00000  Uiso   1.00
H1860  H     0.07836   0.54646   0.95891   0.00000  Uiso   1.00
H1861  H     0.07749   0.60000   0.98906   0.00000  Uiso   1.00
H1862  H     0.08731   0.46088   0.99671   0.00000  Uiso   1.00
H1863  H     0.07912   0.44723   0.55399   0.00000  Uiso   1.00
H1864  H     0.07590   0.40210   0.51341   0.00000  Uiso   1.00
H1865  H     0.13364   0.62143   0.65136   0.00000  Uiso   1.00
H1866  H     0.11214   0.57124   0.62600   0.00000  Uiso   1.00
H1867  H     0.13008   0.33517   0.58890   0.00000  Uiso   1.00
H1868  H     0.22144   0.62335   0.71418   0.00000  Uiso   1.00
H1869  H     0.13105   0.62043   0.55162   0.00000  Uiso   1.00
H1870  H     0.06080   0.59858   0.57182   0.00000  Uiso   1.00
H1871  H     0.06256   0.65909   0.55569   0.00000  Uiso   1.00
H1872  H     0.05961   0.64390   0.61301   0.00000  Uiso   1.00
H1873  H     0.14739   0.36230   0.85855   0.00000  Uiso   1.00
H1874  H     0.11975   0.41623   0.86066   0.00000  Uiso   1.00
H1875  H     0.14221   0.35934   0.94353   0.00000  Uiso   1.00
H1876  H     0.10691   0.40747   0.93795   0.00000  Uiso   1.00
H1877  H     0.06510   0.35729   0.88504   0.00000  Uiso   1.00
H1878  H     0.06717   0.33607   0.94060   0.00000  Uiso   1.00
H1879  H     0.22238   0.37665   0.71519   0.00000  Uiso   1.00
H1880  H     0.09792   0.64214   0.89898   0.00000  Uiso   1.00
H1881  H     0.19966   0.62145   0.84864   0.00000  Uiso   1.00
H1882  H     0.22119   0.57126   0.87394   0.00000  Uiso   1.00
H1883  H     0.20335   0.33518   0.91107   0.00000  Uiso   1.00
H1884  H     0.20229   0.62045   0.94836   0.00000  Uiso   1.00
H1885  H     0.27250   0.59845   0.92818   0.00000  Uiso   1.00
H1886  H     0.27083   0.65895   0.94433   0.00000  Uiso   1.00
H1887  H     0.27378   0.64377   0.88701   0.00000  Uiso   1.00
H1888  H     0.18597   0.36228   0.64144   0.00000  Uiso   1.00
H1889  H     0.21360   0.41621   0.63937   0.00000  Uiso   1.00
H1890  H     0.11189   0.62336   0.78582   0.00000  Uiso   1.00
H1891  H     0.19120   0.35938   0.55645   0.00000  Uiso   1.00
H1892  H     0.22652   0.40748   0.56211   0.00000  Uiso   1.00
H1893  H     0.26820   0.35719   0.61507   0.00000  Uiso   1.00
H1894  H     0.26628   0.33611   0.55946   0.00000  Uiso   1.00
H1895  H     0.23542   0.64209   0.60093   0.00000  Uiso   1.00
H1896  H     0.07610   0.38862   0.68789   0.00000  Uiso   1.00
H1897  H     0.06089   0.44764   0.67936   0.00000  Uiso   1.00
H1898  H     0.01057   0.35693   0.66899   0.00000  Uiso   1.00
H1899  H     0.31855   0.41267   0.67351   0.00000  Uiso   1.00
H1900  H     0.01903   0.44362   0.60943   0.00000  Uiso   1.00
H1901  H     0.23878   0.54762   0.98437   0.00000  Uiso   1.00
H1902  H     0.33255   0.38667   0.59508   0.00000  Uiso   1.00
H1903  H     0.05294   0.39383   0.60648   0.00000  Uiso   1.00
H1904  H     0.27625   0.61037   0.66962   0.00000  Uiso   1.00
H1905  H     0.26468   0.54984   0.67591   0.00000  Uiso   1.00
H1906  H     0.01634   0.59446   0.65854   0.00000  Uiso   1.00
H1907  H     0.00849   0.53259   0.66660   0.00000  Uiso   1.00
H1908  H     0.29249   0.53082   0.60411   0.00000  Uiso   1.00
H1909  H     0.01026   0.54617   0.58902   0.00000  Uiso   1.00
H1910  H     0.30514   0.59155   0.59256   0.00000  Uiso   1.00
H1911  H     0.25719   0.38868   0.81214   0.00000  Uiso   1.00
H1912  H     0.25502   0.54655   0.54116   0.00000  Uiso   1.00
H1913  H     0.27247   0.44768   0.82068   0.00000  Uiso   1.00
H1914  H     0.32270   0.35691   0.83102   0.00000  Uiso   1.00
H1915  H     0.01474   0.41262   0.82657   0.00000  Uiso   1.00
H1916  H     0.31424   0.44352   0.89067   0.00000  Uiso   1.00
H1917  H     0.00068   0.38655   0.90496   0.00000  Uiso   1.00
H1918  H     0.28032   0.39377   0.89355   0.00000  Uiso   1.00
H1919  H     0.05702   0.61047   0.83033   0.00000  Uiso   1.00
H1920  H     0.06872   0.54997   0.82406   0.00000  Uiso   1.00
H1921  H     0.31695   0.59434   0.84141   0.00000  Uiso   1.00
H1922  H     0.32497   0.53249   0.83341   0.00000  Uiso   1.00
H1923  H     0.25585   0.60005   0.51095   0.00000  Uiso   1.00
H1924  H     0.04097   0.53097   0.89590   0.00000  Uiso   1.00
H1925  H     0.32316   0.54616   0.91098   0.00000  Uiso   1.00
H1926  H     0.02816   0.59167   0.90740   0.00000  Uiso   1.00
H1927  H     0.24605   0.46088   0.50339   0.00000  Uiso   1.00
H1928  H     0.25430   0.44739   0.94609   0.00000  Uiso   1.00
N1929  N     0.16667   0.61736   0.75000   0.00000  Uiso   1.00
N1930  N     0.16667   0.38264   0.75000   0.00000  Uiso   1.00
O1931  O     0.10655   0.53958   0.74999   0.00000  Uiso   1.00
O1932  O     0.19894   0.42394   0.97318   0.00000  Uiso   1.00
O1933  O     0.13518   0.57847   0.97219   0.00000  Uiso   1.00
O1934  O     0.13448   0.42393   0.52680   0.00000  Uiso   1.00
O1935  O     0.17487   0.58542   0.61343   0.00000  Uiso   1.00
O1936  O     0.17941   0.41559   0.88708   0.00000  Uiso   1.00
O1937  O     0.15847   0.58543   0.88658   0.00000  Uiso   1.00
O1938  O     0.15396   0.41558   0.61291   0.00000  Uiso   1.00
O1939  O     0.03991   0.41438   0.73702   0.00000  Uiso   1.00
O1940  O     0.29618   0.58209   0.72767   0.00000  Uiso   1.00
O1941  O     0.29343   0.41439   0.76303   0.00000  Uiso   1.00
O1942  O     0.22679   0.46042   0.75000   0.00000  Uiso   1.00
O1943  O     0.03715   0.58211   0.77229   0.00000  Uiso   1.00
O1944  O     0.22679   0.53958   0.75000   0.00000  Uiso   1.00
O1945  O     0.10655   0.46042   0.74999   0.00000  Uiso   1.00
O1946  O     0.16666   0.53959   0.68573   0.00000  Uiso   1.00
O1947  O     0.16667   0.46041   0.81427   0.00000  Uiso   1.00
O1948  O     0.16667   0.53959   0.81427   0.00000  Uiso   1.00
O1949  O     0.16666   0.46041   0.68573   0.00000  Uiso   1.00
O1950  O     0.19818   0.57848   0.52783   0.00000  Uiso   1.00
C1951  C     0.42071   0.49986   0.75076   0.00000  Uiso   1.00
C1952  C     0.64615   0.54117   0.74423   0.00000  Uiso   1.00
C1953  C     0.64572   0.45662   0.75376   0.00000  Uiso   1.00
C1954  C     0.35384   0.54117   0.75576   0.00000  Uiso   1.00
C1955  C     0.51413   0.54007   0.54803   0.00000  Uiso   1.00
C1956  C     0.51332   0.46107   0.95237   0.00000  Uiso   1.00
C1957  C     0.48591   0.54007   0.95198   0.00000  Uiso   1.00
C1958  C     0.48674   0.46106   0.54762   0.00000  Uiso   1.00
C1959  C     0.50734   0.54209   0.59304   0.00000  Uiso   1.00
C1960  C     0.50670   0.45834   0.90731   0.00000  Uiso   1.00
C1961  C     0.49269   0.54209   0.90696   0.00000  Uiso   1.00
C1962  C     0.57929   0.49986   0.74925   0.00000  Uiso   1.00
C1963  C     0.49334   0.45833   0.59268   0.00000  Uiso   1.00
C1964  C     0.50051   0.50002   0.61653   0.00000  Uiso   1.00
C1965  C     0.49952   0.50003   0.88347   0.00000  Uiso   1.00
C1966  C     0.50047   0.50057   0.52427   0.00000  Uiso   1.00
C1967  C     0.49958   0.50057   0.97573   0.00000  Uiso   1.00
C1968  C     0.62395   0.49916   0.74867   0.00000  Uiso   1.00
C1969  C     0.37605   0.49916   0.75134   0.00000  Uiso   1.00
C1970  C     0.57189   0.56710   0.51575   0.00000  Uiso   1.00
C1971  C     0.57425   0.43453   0.97723   0.00000  Uiso   1.00
C1972  C     0.42814   0.56707   0.98429   0.00000  Uiso   1.00
C1973  C     0.50006   0.49999   0.66489   0.00000  Uiso   1.00
C1974  C     0.42583   0.43447   0.52281   0.00000  Uiso   1.00
C1975  C     0.46740   0.60072   0.62062   0.00000  Uiso   1.00
C1976  C     0.45236   0.63244   0.58342   0.00000  Uiso   1.00
C1977  C     0.40587   0.63361   0.58097   0.00000  Uiso   1.00
C1978  C     0.47454   0.39336   0.87926   0.00000  Uiso   1.00
C1979  C     0.45341   0.37663   0.92117   0.00000  Uiso   1.00
C1980  C     0.41875   0.34260   0.91073   0.00000  Uiso   1.00
C1981  C     0.53260   0.60072   0.87936   0.00000  Uiso   1.00
C1982  C     0.54767   0.63243   0.91656   0.00000  Uiso   1.00
C1983  C     0.59416   0.63350   0.91904   0.00000  Uiso   1.00
C1984  C     0.49994   0.50000   0.83510   0.00000  Uiso   1.00
C1985  C     0.52549   0.39335   0.62074   0.00000  Uiso   1.00
C1986  C     0.54666   0.37664   0.57884   0.00000  Uiso   1.00
C1987  C     0.58128   0.34257   0.58929   0.00000  Uiso   1.00
C1988  C     0.38334   0.41314   0.69197   0.00000  Uiso   1.00
C1989  C     0.34752   0.39527   0.66399   0.00000  Uiso   1.00
C1990  C     0.35514   0.40541   0.61575   0.00000  Uiso   1.00
C1991  C     0.62198   0.57671   0.68207   0.00000  Uiso   1.00
C1992  C     0.66057   0.56550   0.65514   0.00000  Uiso   1.00
C1993  C     0.64967   0.55832   0.60717   0.00000  Uiso   1.00
C1994  C     0.61665   0.41316   0.80807   0.00000  Uiso   1.00
C1995  C     0.46908   0.35812   0.76925   0.00000  Uiso   1.00
C1996  C     0.65243   0.39524   0.83605   0.00000  Uiso   1.00
C1997  C     0.64478   0.40534   0.88430   0.00000  Uiso   1.00
C1998  C     0.37803   0.57677   0.81790   0.00000  Uiso   1.00
C1999  C     0.33946   0.56546   0.84484   0.00000  Uiso   1.00
C2000  C     0.35039   0.55838   0.89282   0.00000  Uiso   1.00
C2001  C     0.53061   0.64192   0.73032   0.00000  Uiso   1.00
C2002  C     0.53092   0.35812   0.73075   0.00000  Uiso   1.00
C2003  C     0.46939   0.64192   0.76968   0.00000  Uiso   1.00
C2004  C     0.35428   0.45662   0.74628   0.00000  Uiso   1.00
Cu2005 Cu    0.50000   0.54689   0.75000   0.00000  Uiso   1.00
Cu2006 Cu    0.50000   0.45311   0.75000   0.00000  Uiso   1.00
H2007  H     0.44428   0.37665   0.78481   0.00000  Uiso   1.00
H2008  H     0.59087   0.40216   0.98657   0.00000  Uiso   1.00
H2009  H     0.42794   0.54763   0.51569   0.00000  Uiso   1.00
H2010  H     0.41169   0.54646   0.95891   0.00000  Uiso   1.00
H2011  H     0.41082   0.60000   0.98906   0.00000  Uiso   1.00
H2012  H     0.42064   0.46088   0.99671   0.00000  Uiso   1.00
H2013  H     0.41245   0.44723   0.55399   0.00000  Uiso   1.00
H2014  H     0.40923   0.40210   0.51341   0.00000  Uiso   1.00
H2015  H     0.46698   0.62143   0.65136   0.00000  Uiso   1.00
H2016  H     0.44547   0.57124   0.62600   0.00000  Uiso   1.00
H2017  H     0.46342   0.33517   0.58890   0.00000  Uiso   1.00
H2018  H     0.55478   0.62335   0.71418   0.00000  Uiso   1.00
H2019  H     0.46438   0.62043   0.55162   0.00000  Uiso   1.00
H2020  H     0.39413   0.59858   0.57182   0.00000  Uiso   1.00
H2021  H     0.39590   0.65909   0.55569   0.00000  Uiso   1.00
H2022  H     0.39294   0.64390   0.61301   0.00000  Uiso   1.00
H2023  H     0.48072   0.36230   0.85855   0.00000  Uiso   1.00
H2024  H     0.45308   0.41623   0.86066   0.00000  Uiso   1.00
H2025  H     0.47554   0.35934   0.94353   0.00000  Uiso   1.00
H2026  H     0.44024   0.40747   0.93795   0.00000  Uiso   1.00
H2027  H     0.39844   0.35729   0.88504   0.00000  Uiso   1.00
H2028  H     0.40050   0.33607   0.94060   0.00000  Uiso   1.00
H2029  H     0.55572   0.37665   0.71519   0.00000  Uiso   1.00
H2030  H     0.43125   0.64214   0.89898   0.00000  Uiso   1.00
H2031  H     0.53300   0.62145   0.84864   0.00000  Uiso   1.00
H2032  H     0.55452   0.57126   0.87394   0.00000  Uiso   1.00
H2033  H     0.53668   0.33518   0.91107   0.00000  Uiso   1.00
H2034  H     0.53562   0.62045   0.94836   0.00000  Uiso   1.00
H2035  H     0.60584   0.59845   0.92818   0.00000  Uiso   1.00
H2036  H     0.60416   0.65895   0.94433   0.00000  Uiso   1.00
H2037  H     0.60711   0.64377   0.88701   0.00000  Uiso   1.00
H2038  H     0.51930   0.36228   0.64144   0.00000  Uiso   1.00
H2039  H     0.54694   0.41621   0.63937   0.00000  Uiso   1.00
H2040  H     0.44522   0.62336   0.78582   0.00000  Uiso   1.00
H2041  H     0.52453   0.35938   0.55645   0.00000  Uiso   1.00
H2042  H     0.55985   0.40748   0.56211   0.00000  Uiso   1.00
H2043  H     0.60154   0.35719   0.61507   0.00000  Uiso   1.00
H2044  H     0.59961   0.33611   0.55946   0.00000  Uiso   1.00
H2045  H     0.56875   0.64209   0.60093   0.00000  Uiso   1.00
H2046  H     0.40943   0.38862   0.68789   0.00000  Uiso   1.00
H2047  H     0.39422   0.44764   0.67936   0.00000  Uiso   1.00
H2048  H     0.34390   0.35693   0.66899   0.00000  Uiso   1.00
H2049  H     0.65188   0.41267   0.67351   0.00000  Uiso   1.00
H2050  H     0.35237   0.44362   0.60943   0.00000  Uiso   1.00
H2051  H     0.57212   0.54762   0.98437   0.00000  Uiso   1.00
H2052  H     0.66588   0.38667   0.59508   0.00000  Uiso   1.00
H2053  H     0.38627   0.39383   0.60648   0.00000  Uiso   1.00
H2054  H     0.60958   0.61037   0.66962   0.00000  Uiso   1.00
H2055  H     0.59801   0.54984   0.67591   0.00000  Uiso   1.00
H2056  H     0.34968   0.59446   0.65854   0.00000  Uiso   1.00
H2057  H     0.34182   0.53259   0.66660   0.00000  Uiso   1.00
H2058  H     0.62583   0.53082   0.60411   0.00000  Uiso   1.00
H2059  H     0.34360   0.54617   0.58902   0.00000  Uiso   1.00
H2060  H     0.63848   0.59155   0.59256   0.00000  Uiso   1.00
H2061  H     0.59052   0.38868   0.81214   0.00000  Uiso   1.00
H2062  H     0.58835   0.54655   0.54116   0.00000  Uiso   1.00
H2063  H     0.60580   0.44768   0.82068   0.00000  Uiso   1.00
H2064  H     0.65603   0.35691   0.83102   0.00000  Uiso   1.00
H2065  H     0.34808   0.41262   0.82657   0.00000  Uiso   1.00
H2066  H     0.64758   0.44352   0.89067   0.00000  Uiso   1.00
H2067  H     0.33402   0.38655   0.90496   0.00000  Uiso   1.00
H2068  H     0.61365   0.39377   0.89355   0.00000  Uiso   1.00
H2069  H     0.39036   0.61047   0.83033   0.00000  Uiso   1.00
H2070  H     0.40205   0.54997   0.82406   0.00000  Uiso   1.00
H2071  H     0.65028   0.59434   0.84141   0.00000  Uiso   1.00
H2072  H     0.65830   0.53249   0.83341   0.00000  Uiso   1.00
H2073  H     0.58919   0.60005   0.51095   0.00000  Uiso   1.00
H2074  H     0.37430   0.53097   0.89590   0.00000  Uiso   1.00
H2075  H     0.65649   0.54616   0.91098   0.00000  Uiso   1.00
H2076  H     0.36149   0.59167   0.90740   0.00000  Uiso   1.00
H2077  H     0.57938   0.46088   0.50339   0.00000  Uiso   1.00
H2078  H     0.58763   0.44739   0.94609   0.00000  Uiso   1.00
N2079  N     0.50000   0.61736   0.75000   0.00000  Uiso   1.00
N2080  N     0.50000   0.38264   0.75000   0.00000  Uiso   1.00
O2081  O     0.43988   0.53958   0.74999   0.00000  Uiso   1.00
O2082  O     0.53227   0.42394   0.97318   0.00000  Uiso   1.00
O2083  O     0.46851   0.57847   0.97219   0.00000  Uiso   1.00
O2084  O     0.46782   0.42393   0.52680   0.00000  Uiso   1.00
O2085  O     0.50820   0.58542   0.61343   0.00000  Uiso   1.00
O2086  O     0.51275   0.41559   0.88708   0.00000  Uiso   1.00
O2087  O     0.49181   0.58543   0.88658   0.00000  Uiso   1.00
O2088  O     0.48729   0.41558   0.61291   0.00000  Uiso   1.00
O2089  O     0.37324   0.41438   0.73702   0.00000  Uiso   1.00
O2090  O     0.62951   0.58209   0.72767   0.00000  Uiso   1.00
O2091  O     0.62676   0.41439   0.76303   0.00000  Uiso   1.00
O2092  O     0.56012   0.46042   0.75000   0.00000  Uiso   1.00
O2093  O     0.37048   0.58211   0.77229   0.00000  Uiso   1.00
O2094  O     0.56012   0.53958   0.75000   0.00000  Uiso   1.00
O2095  O     0.43988   0.46042   0.74999   0.00000  Uiso   1.00
O2096  O     0.50000   0.53959   0.68573   0.00000  Uiso   1.00
O2097  O     0.50000   0.46041   0.81427   0.00000  Uiso   1.00
O2098  O     0.50000   0.53959   0.81427   0.00000  Uiso   1.00
O2099  O     0.50000   0.46041   0.68573   0.00000  Uiso   1.00
O2100  O     0.53151   0.57848   0.52783   0.00000  Uiso   1.00
C2101  C     0.75404   0.49986   0.75076   0.00000  Uiso   1.00
C2102  C     0.97949   0.54117   0.74423   0.00000  Uiso   1.00
C2103  C     0.97906   0.45662   0.75376   0.00000  Uiso   1.00
C2104  C     0.68718   0.54117   0.75576   0.00000  Uiso   1.00
C2105  C     0.84746   0.54007   0.54803   0.00000  Uiso   1.00
C2106  C     0.84666   0.46107   0.95237   0.00000  Uiso   1.00
C2107  C     0.81924   0.54007   0.95198   0.00000  Uiso   1.00
C2108  C     0.82008   0.46106   0.54762   0.00000  Uiso   1.00
C2109  C     0.84067   0.54209   0.59304   0.00000  Uiso   1.00
C2110  C     0.84003   0.45834   0.90731   0.00000  Uiso   1.00
C2111  C     0.82602   0.54209   0.90696   0.00000  Uiso   1.00
C2112  C     0.91263   0.49986   0.74925   0.00000  Uiso   1.00
C2113  C     0.82668   0.45833   0.59268   0.00000  Uiso   1.00
C2114  C     0.83384   0.50002   0.61653   0.00000  Uiso   1.00
C2115  C     0.83285   0.50003   0.88347   0.00000  Uiso   1.00
C2116  C     0.83381   0.50057   0.52427   0.00000  Uiso   1.00
C2117  C     0.83291   0.50057   0.97573   0.00000  Uiso   1.00
C2118  C     0.95728   0.49916   0.74867   0.00000  Uiso   1.00
C2119  C     0.70938   0.49916   0.75134   0.00000  Uiso   1.00
C2120  C     0.90523   0.56710   0.51575   0.00000  Uiso   1.00
C2121  C     0.90758   0.43453   0.97723   0.00000  Uiso   1.00
C2122  C     0.76147   0.56707   0.98429   0.00000  Uiso   1.00
C2123  C     0.83339   0.49999   0.66489   0.00000  Uiso   1.00
C2124  C     0.75916   0.43447   0.52281   0.00000  Uiso   1.00
C2125  C     0.80073   0.60072   0.62062   0.00000  Uiso   1.00
C2126  C     0.78570   0.63244   0.58342   0.00000  Uiso   1.00
C2127  C     0.73920   0.63361   0.58097   0.00000  Uiso   1.00
C2128  C     0.80788   0.39336   0.87926   0.00000  Uiso   1.00
C2129  C     0.78674   0.37663   0.92117   0.00000  Uiso   1.00
C2130  C     0.75209   0.34260   0.91073   0.00000  Uiso   1.00
C2131  C     0.86593   0.60072   0.87936   0.00000  Uiso   1.00
C2132  C     0.88100   0.63243   0.91656   0.00000  Uiso   1.00
C2133  C     0.92749   0.63350   0.91904   0.00000  Uiso   1.00
C2134  C     0.83328   0.50000   0.83510   0.00000  Uiso   1.00
C2135  C     0.85882   0.39335   0.62074   0.00000  Uiso   1.00
C2136  C     0.87999   0.37664   0.57884   0.00000  Uiso   1.00
C2137  C     0.91462   0.34257   0.58929   0.00000  Uiso   1.00
C2138  C     0.71667   0.41314   0.69197   0.00000  Uiso   1.00
C2139  C     0.68086   0.39527   0.66399   0.00000  Uiso   1.00
C2140  C     0.68847   0.40541   0.61575   0.00000  Uiso   1.00
C2141  C     0.95531   0.57671   0.68207   0.00000  Uiso   1.00
C2142  C     0.99390   0.56550   0.65514   0.00000  Uiso   1.00
C2143  C     0.98300   0.55832   0.60717   0.00000  Uiso   1.00
C2144  C     0.94998   0.41316   0.80807   0.00000  Uiso   1.00
C2145  C     0.80242   0.35812   0.76925   0.00000  Uiso   1.00
C2146  C     0.98576   0.39524   0.83605   0.00000  Uiso   1.00
C2147  C     0.97812   0.40534   0.88430   0.00000  Uiso   1.00
C2148  C     0.71136   0.57677   0.81790   0.00000  Uiso   1.00
C2149  C     0.67280   0.56546   0.84484   0.00000  Uiso   1.00
C2150  C     0.68372   0.55838   0.89282   0.00000  Uiso   1.00
C2151  C     0.86394   0.64192   0.73032   0.00000  Uiso   1.00
C2152  C     0.86425   0.35812   0.73075   0.00000  Uiso   1.00
C2153  C     0.80272   0.64192   0.76968   0.00000  Uiso   1.00
C2154  C     0.68761   0.45662   0.74628   0.00000  Uiso   1.00
Cu2155 Cu    0.83333   0.54689   0.75000   0.00000  Uiso   1.00
Cu2156 Cu    0.83333   0.45311   0.75000   0.00000  Uiso   1.00
H2157  H     0.77762   0.37665   0.78481   0.00000  Uiso   1.00
H2158  H     0.92420   0.40216   0.98657   0.00000  Uiso   1.00
H2159  H     0.76127   0.54763   0.51569   0.00000  Uiso   1.00
H2160  H     0.74502   0.54646   0.95891   0.00000  Uiso   1.00
H2161  H     0.74416   0.60000   0.98906   0.00000  Uiso   1.00
H2162  H     0.75397   0.46088   0.99671   0.00000  Uiso   1.00
H2163  H     0.74578   0.44723   0.55399   0.00000  Uiso   1.00
H2164  H     0.74256   0.40210   0.51341   0.00000  Uiso   1.00
H2165  H     0.80031   0.62143   0.65136   0.00000  Uiso   1.00
H2166  H     0.77881   0.57124   0.62600   0.00000  Uiso   1.00
H2167  H     0.79675   0.33517   0.58890   0.00000  Uiso   1.00
H2168  H     0.88811   0.62335   0.71418   0.00000  Uiso   1.00
H2169  H     0.79771   0.62043   0.55162   0.00000  Uiso   1.00
H2170  H     0.72747   0.59858   0.57182   0.00000  Uiso   1.00
H2171  H     0.72923   0.65909   0.55569   0.00000  Uiso   1.00
H2172  H     0.72628   0.64390   0.61301   0.00000  Uiso   1.00
H2173  H     0.81405   0.36230   0.85855   0.00000  Uiso   1.00
H2174  H     0.78642   0.41623   0.86066   0.00000  Uiso   1.00
H2175  H     0.80888   0.35934   0.94353   0.00000  Uiso   1.00
H2176  H     0.77358   0.40747   0.93795   0.00000  Uiso   1.00
H2177  H     0.73177   0.35729   0.88504   0.00000  Uiso   1.00
H2178  H     0.73383   0.33607   0.94060   0.00000  Uiso   1.00
H2179  H     0.88905   0.37665   0.71519   0.00000  Uiso   1.00
H2180  H     0.76459   0.64214   0.89898   0.00000  Uiso   1.00
H2181  H     0.86633   0.62145   0.84864   0.00000  Uiso   1.00
H2182  H     0.88785   0.57126   0.87394   0.00000  Uiso   1.00
H2183  H     0.87001   0.33518   0.91107   0.00000  Uiso   1.00
H2184  H     0.86895   0.62045   0.94836   0.00000  Uiso   1.00
H2185  H     0.93917   0.59845   0.92818   0.00000  Uiso   1.00
H2186  H     0.93750   0.65895   0.94433   0.00000  Uiso   1.00
H2187  H     0.94045   0.64377   0.88701   0.00000  Uiso   1.00
H2188  H     0.85264   0.36228   0.64144   0.00000  Uiso   1.00
H2189  H     0.88027   0.41621   0.63937   0.00000  Uiso   1.00
H2190  H     0.77856   0.62336   0.78582   0.00000  Uiso   1.00
H2191  H     0.85787   0.35938   0.55645   0.00000  Uiso   1.00
H2192  H     0.89318   0.40748   0.56211   0.00000  Uiso   1.00
H2193  H     0.93487   0.35719   0.61507   0.00000  Uiso   1.00
H2194  H     0.93294   0.33611   0.55946   0.00000  Uiso   1.00
H2195  H     0.90208   0.64209   0.60093   0.00000  Uiso   1.00
H2196  H     0.74277   0.38862   0.68789   0.00000  Uiso   1.00
H2197  H     0.72755   0.44764   0.67936   0.00000  Uiso   1.00
H2198  H     0.67723   0.35693   0.66899   0.00000  Uiso   1.00
H2199  H     0.98522   0.41267   0.67351   0.00000  Uiso   1.00
H2200  H     0.68570   0.44362   0.60943   0.00000  Uiso   1.00
H2201  H     0.90545   0.54762   0.98437   0.00000  Uiso   1.00
H2202  H     0.99921   0.38667   0.59508   0.00000  Uiso   1.00
H2203  H     0.71960   0.39383   0.60648   0.00000  Uiso   1.00
H2204  H     0.94291   0.61037   0.66962   0.00000  Uiso   1.00
H2205  H     0.93134   0.54984   0.67591   0.00000  Uiso   1.00
H2206  H     0.68301   0.59446   0.65854   0.00000  Uiso   1.00
H2207  H     0.67515   0.53259   0.66660   0.00000  Uiso   1.00
H2208  H     0.95916   0.53082   0.60411   0.00000  Uiso   1.00
H2209  H     0.67693   0.54617   0.58902   0.00000  Uiso   1.00
H2210  H     0.97181   0.59155   0.59256   0.00000  Uiso   1.00
H2211  H     0.92385   0.38868   0.81214   0.00000  Uiso   1.00
H2212  H     0.92168   0.54655   0.54116   0.00000  Uiso   1.00
H2213  H     0.93913   0.44768   0.82068   0.00000  Uiso   1.00
H2214  H     0.98936   0.35691   0.83102   0.00000  Uiso   1.00
H2215  H     0.68141   0.41262   0.82657   0.00000  Uiso   1.00
H2216  H     0.98091   0.44352   0.89067   0.00000  Uiso   1.00
H2217  H     0.66735   0.38655   0.90496   0.00000  Uiso   1.00
H2218  H     0.94698   0.39377   0.89355   0.00000  Uiso   1.00
H2219  H     0.72369   0.61047   0.83033   0.00000  Uiso   1.00
H2220  H     0.73538   0.54997   0.82406   0.00000  Uiso   1.00
H2221  H     0.98361   0.59434   0.84141   0.00000  Uiso   1.00
H2222  H     0.99163   0.53249   0.83341   0.00000  Uiso   1.00
H2223  H     0.92252   0.60005   0.51095   0.00000  Uiso   1.00
H2224  H     0.70764   0.53097   0.89590   0.00000  Uiso   1.00
H2225  H     0.98982   0.54616   0.91098   0.00000  Uiso   1.00
H2226  H     0.69483   0.59167   0.90740   0.00000  Uiso   1.00
H2227  H     0.91271   0.46088   0.50339   0.00000  Uiso   1.00
H2228  H     0.92097   0.44739   0.94609   0.00000  Uiso   1.00
N2229  N     0.83333   0.61736   0.75000   0.00000  Uiso   1.00
N2230  N     0.83333   0.38264   0.75000   0.00000  Uiso   1.00
O2231  O     0.77321   0.53958   0.74999   0.00000  Uiso   1.00
O2232  O     0.86560   0.42394   0.97318   0.00000  Uiso   1.00
O2233  O     0.80184   0.57847   0.97219   0.00000  Uiso   1.00
O2234  O     0.80115   0.42393   0.52680   0.00000  Uiso   1.00
O2235  O     0.84153   0.58542   0.61343   0.00000  Uiso   1.00
O2236  O     0.84608   0.41559   0.88708   0.00000  Uiso   1.00
O2237  O     0.82514   0.58543   0.88658   0.00000  Uiso   1.00
O2238  O     0.82062   0.41558   0.61291   0.00000  Uiso   1.00
O2239  O     0.70657   0.41438   0.73702   0.00000  Uiso   1.00
O2240  O     0.96284   0.58209   0.72767   0.00000  Uiso   1.00
O2241  O     0.96009   0.41439   0.76303   0.00000  Uiso   1.00
O2242  O     0.89345   0.46042   0.75000   0.00000  Uiso   1.00
O2243  O     0.70381   0.58211   0.77229   0.00000  Uiso   1.00
O2244  O     0.89345   0.53958   0.75000   0.00000  Uiso   1.00
O2245  O     0.77321   0.46042   0.74999   0.00000  Uiso   1.00
O2246  O     0.83333   0.53959   0.68573   0.00000  Uiso   1.00
O2247  O     0.83334   0.46041   0.81427   0.00000  Uiso   1.00
O2248  O     0.83334   0.53959   0.81427   0.00000  Uiso   1.00
O2249  O     0.83333   0.46041   0.68573   0.00000  Uiso   1.00
O2250  O     0.86484   0.57848   0.52783   0.00000  Uiso   1.00
C2251  C     0.08737   0.83319   0.75076   0.00000  Uiso   1.00
C2252  C     0.31282   0.87450   0.74423   0.00000  Uiso   1.00
C2253  C     0.31239   0.78995   0.75376   0.00000  Uiso   1.00
C2254  C     0.02051   0.87451   0.75576   0.00000  Uiso   1.00
C2255  C     0.18079   0.87340   0.54803   0.00000  Uiso   1.00
C2256  C     0.17999   0.79440   0.95237   0.00000  Uiso   1.00
C2257  C     0.15257   0.87340   0.95198   0.00000  Uiso   1.00
C2258  C     0.15341   0.79439   0.54762   0.00000  Uiso   1.00
C2259  C     0.17400   0.87542   0.59304   0.00000  Uiso   1.00
C2260  C     0.17337   0.79168   0.90731   0.00000  Uiso   1.00
C2261  C     0.15935   0.87542   0.90696   0.00000  Uiso   1.00
C2262  C     0.24596   0.83319   0.74925   0.00000  Uiso   1.00
C2263  C     0.16001   0.79167   0.59268   0.00000  Uiso   1.00
C2264  C     0.16718   0.83336   0.61653   0.00000  Uiso   1.00
C2265  C     0.16618   0.83336   0.88347   0.00000  Uiso   1.00
C2266  C     0.16714   0.83390   0.52427   0.00000  Uiso   1.00
C2267  C     0.16625   0.83391   0.97573   0.00000  Uiso   1.00
C2268  C     0.29062   0.83249   0.74867   0.00000  Uiso   1.00
C2269  C     0.04272   0.83249   0.75134   0.00000  Uiso   1.00
C2270  C     0.23856   0.90043   0.51575   0.00000  Uiso   1.00
C2271  C     0.24091   0.76786   0.97723   0.00000  Uiso   1.00
C2272  C     0.09481   0.90040   0.98429   0.00000  Uiso   1.00
C2273  C     0.16673   0.83333   0.66489   0.00000  Uiso   1.00
C2274  C     0.09249   0.76780   0.52281   0.00000  Uiso   1.00
C2275  C     0.13407   0.93405   0.62062   0.00000  Uiso   1.00
C2276  C     0.11903   0.96578   0.58342   0.00000  Uiso   1.00
C2277  C     0.07254   0.96694   0.58097   0.00000  Uiso   1.00
C2278  C     0.14121   0.72669   0.87926   0.00000  Uiso   1.00
C2279  C     0.12007   0.70996   0.92117   0.00000  Uiso   1.00
C2280  C     0.08542   0.67593   0.91073   0.00000  Uiso   1.00
C2281  C     0.19927   0.93406   0.87936   0.00000  Uiso   1.00
C2282  C     0.21434   0.96577   0.91656   0.00000  Uiso   1.00
C2283  C     0.26083   0.96683   0.91904   0.00000  Uiso   1.00
C2284  C     0.16661   0.83333   0.83510   0.00000  Uiso   1.00
C2285  C     0.19216   0.72668   0.62074   0.00000  Uiso   1.00
C2286  C     0.21332   0.70997   0.57884   0.00000  Uiso   1.00
C2287  C     0.24795   0.67591   0.58929   0.00000  Uiso   1.00
C2288  C     0.05000   0.74647   0.69197   0.00000  Uiso   1.00
C2289  C     0.01419   0.72861   0.66399   0.00000  Uiso   1.00
C2290  C     0.02181   0.73875   0.61575   0.00000  Uiso   1.00
C2291  C     0.28865   0.91004   0.68207   0.00000  Uiso   1.00
C2292  C     0.32724   0.89883   0.65514   0.00000  Uiso   1.00
C2293  C     0.31633   0.89166   0.60717   0.00000  Uiso   1.00
C2294  C     0.28331   0.74650   0.80807   0.00000  Uiso   1.00
C2295  C     0.13575   0.69145   0.76925   0.00000  Uiso   1.00
C2296  C     0.31909   0.72857   0.83605   0.00000  Uiso   1.00
C2297  C     0.31145   0.73867   0.88430   0.00000  Uiso   1.00
C2298  C     0.04469   0.91010   0.81790   0.00000  Uiso   1.00
C2299  C     0.00613   0.89879   0.84484   0.00000  Uiso   1.00
C2300  C     0.01706   0.89172   0.89282   0.00000  Uiso   1.00
C2301  C     0.19728   0.97525   0.73032   0.00000  Uiso   1.00
C2302  C     0.19758   0.69145   0.73075   0.00000  Uiso   1.00
C2303  C     0.13606   0.97525   0.76968   0.00000  Uiso   1.00
C2304  C     0.02094   0.78995   0.74628   0.00000  Uiso   1.00
Cu2305 Cu    0.16667   0.88022   0.75000   0.00000  Uiso   1.00
Cu2306 Cu    0.16667   0.78645   0.75000   0.00000  Uiso   1.00
H2307  H     0.11095   0.70999   0.78481   0.00000  Uiso   1.00
H2308  H     0.25754   0.73549   0.98657   0.00000  Uiso   1.00
H2309  H     0.09461   0.88097   0.51569   0.00000  Uiso   1.00
H2310  H     0.07836   0.87980   0.95891   0.00000  Uiso   1.00
H2311  H     0.07749   0.93334   0.98906   0.00000  Uiso   1.00
H2312  H     0.08731   0.79421   0.99671   0.00000  Uiso   1.00
H2313  H     0.07912   0.78056   0.55399   0.00000  Uiso   1.00
H2314  H     0.07590   0.73543   0.51341   0.00000  Uiso   1.00
H2315  H     0.13364   0.95476   0.65136   0.00000  Uiso   1.00
H2316  H     0.11214   0.90458   0.62600   0.00000  Uiso   1.00
H2317  H     0.13008   0.66850   0.58890   0.00000  Uiso   1.00
H2318  H     0.22144   0.95669   0.71418   0.00000  Uiso   1.00
H2319  H     0.13105   0.95376   0.55162   0.00000  Uiso   1.00
H2320  H     0.06080   0.93192   0.57182   0.00000  Uiso   1.00
H2321  H     0.06256   0.99242   0.55569   0.00000  Uiso   1.00
H2322  H     0.05961   0.97723   0.61301   0.00000  Uiso   1.00
H2323  H     0.14739   0.69563   0.85855   0.00000  Uiso   1.00
H2324  H     0.11975   0.74956   0.86066   0.00000  Uiso   1.00
H2325  H     0.14221   0.69268   0.94353   0.00000  Uiso   1.00
H2326  H     0.10691   0.74080   0.93795   0.00000  Uiso   1.00
H2327  H     0.06510   0.69062   0.88504   0.00000  Uiso   1.00
H2328  H     0.06717   0.66940   0.94060   0.00000  Uiso   1.00
H2329  H     0.22238   0.70998   0.71519   0.00000  Uiso   1.00
H2330  H     0.09792   0.97547   0.89898   0.00000  Uiso   1.00
H2331  H     0.19966   0.95478   0.84864   0.00000  Uiso   1.00
H2332  H     0.22119   0.90459   0.87394   0.00000  Uiso   1.00
H2333  H     0.20335   0.66851   0.91107   0.00000  Uiso   1.00
H2334  H     0.20229   0.95379   0.94836   0.00000  Uiso   1.00
H2335  H     0.27250   0.93178   0.92818   0.00000  Uiso   1.00
H2336  H     0.27083   0.99228   0.94433   0.00000  Uiso   1.00
H2337  H     0.27378   0.97710   0.88701   0.00000  Uiso   1.00
H2338  H     0.18597   0.69561   0.64144   0.00000  Uiso   1.00
H2339  H     0.21360   0.74954   0.63937   0.00000  Uiso   1.00
H2340  H     0.11189   0.95669   0.78582   0.00000  Uiso   1.00
H2341  H     0.19120   0.69272   0.55645   0.00000  Uiso   1.00
H2342  H     0.22652   0.74081   0.56211   0.00000  Uiso   1.00
H2343  H     0.26820   0.69052   0.61507   0.00000  Uiso   1.00
H2344  H     0.26628   0.66944   0.55946   0.00000  Uiso   1.00
H2345  H     0.23542   0.97543   0.60093   0.00000  Uiso   1.00
H2346  H     0.07610   0.72195   0.68789   0.00000  Uiso   1.00
H2347  H     0.06089   0.78097   0.67936   0.00000  Uiso   1.00
H2348  H     0.01057   0.69026   0.66899   0.00000  Uiso   1.00
H2349  H     0.31855   0.74600   0.67351   0.00000  Uiso   1.00
H2350  H     0.01903   0.77695   0.60943   0.00000  Uiso   1.00
H2351  H     0.23878   0.88095   0.98437   0.00000  Uiso   1.00
H2352  H     0.33255   0.72000   0.59508   0.00000  Uiso   1.00
H2353  H     0.05294   0.72716   0.60648   0.00000  Uiso   1.00
H2354  H     0.27625   0.94370   0.66962   0.00000  Uiso   1.00
H2355  H     0.26468   0.88318   0.67591   0.00000  Uiso   1.00
H2356  H     0.01634   0.92779   0.65854   0.00000  Uiso   1.00
H2357  H     0.00849   0.86592   0.66660   0.00000  Uiso   1.00
H2358  H     0.29249   0.86415   0.60411   0.00000  Uiso   1.00
H2359  H     0.01026   0.87950   0.58902   0.00000  Uiso   1.00
H2360  H     0.30514   0.92489   0.59256   0.00000  Uiso   1.00
H2361  H     0.25719   0.72202   0.81214   0.00000  Uiso   1.00
H2362  H     0.25502   0.87988   0.54116   0.00000  Uiso   1.00
H2363  H     0.27247   0.78101   0.82068   0.00000  Uiso   1.00
H2364  H     0.32270   0.69024   0.83102   0.00000  Uiso   1.00
H2365  H     0.01474   0.74596   0.82657   0.00000  Uiso   1.00
H2366  H     0.31424   0.77686   0.89067   0.00000  Uiso   1.00
H2367  H     0.00068   0.71989   0.90496   0.00000  Uiso   1.00
H2368  H     0.28032   0.72711   0.89355   0.00000  Uiso   1.00
H2369  H     0.05702   0.94380   0.83033   0.00000  Uiso   1.00
H2370  H     0.06872   0.88330   0.82406   0.00000  Uiso   1.00
H2371  H     0.31695   0.92767   0.84141   0.00000  Uiso   1.00
H2372  H     0.32497   0.86582   0.83341   0.00000  Uiso   1.00
H2373  H     0.25585   0.93338   0.51095   0.00000  Uiso   1.00
H2374  H     0.04097   0.86430   0.89590   0.00000  Uiso   1.00
H2375  H     0.32316   0.87949   0.91098   0.00000  Uiso   1.00
H2376  H     0.02816   0.92500   0.90740   0.00000  Uiso   1.00
H2377  H     0.24605   0.79422   0.50339   0.00000  Uiso   1.00
H2378  H     0.25430   0.78072   0.94609   0.00000  Uiso   1.00
N2379  N     0.16667   0.95069   0.75000   0.00000  Uiso   1.00
N2380  N     0.16667   0.71598   0.75000   0.00000  Uiso   1.00
O2381  O     0.10655   0.87291   0.74999   0.00000  Uiso   1.00
O2382  O     0.19894   0.75727   0.97318   0.00000  Uiso   1.00
O2383  O     0.13518   0.91180   0.97219   0.00000  Uiso   1.00
O2384  O     0.13448   0.75726   0.52680   0.00000  Uiso   1.00
O2385  O     0.17487   0.91876   0.61343   0.00000  Uiso   1.00
O2386  O     0.17941   0.74892   0.88708   0.00000  Uiso   1.00
O2387  O     0.15847   0.91876   0.88658   0.00000  Uiso   1.00
O2388  O     0.15396   0.74892   0.61291   0.00000  Uiso   1.00
O2389  O     0.03991   0.74772   0.73702   0.00000  Uiso   1.00
O2390  O     0.29618   0.91543   0.72767   0.00000  Uiso   1.00
O2391  O     0.29343   0.74772   0.76303   0.00000  Uiso   1.00
O2392  O     0.22679   0.79375   0.75000   0.00000  Uiso   1.00
O2393  O     0.03715   0.91545   0.77229   0.00000  Uiso   1.00
O2394  O     0.22679   0.87291   0.75000   0.00000  Uiso   1.00
O2395  O     0.10655   0.79375   0.74999   0.00000  Uiso   1.00
O2396  O     0.16666   0.87293   0.68573   0.00000  Uiso   1.00
O2397  O     0.16667   0.79374   0.81427   0.00000  Uiso   1.00
O2398  O     0.16667   0.87293   0.81427   0.00000  Uiso   1.00
O2399  O     0.16666   0.79374   0.68573   0.00000  Uiso   1.00
O2400  O     0.19818   0.91181   0.52783   0.00000  Uiso   1.00
C2401  C     0.42071   0.83319   0.75076   0.00000  Uiso   1.00
C2402  C     0.64615   0.87450   0.74423   0.00000  Uiso   1.00
C2403  C     0.64572   0.78995   0.75376   0.00000  Uiso   1.00
C2404  C     0.35384   0.87451   0.75576   0.00000  Uiso   1.00
C2405  C     0.51413   0.87340   0.54803   0.00000  Uiso   1.00
C2406  C     0.51332   0.79440   0.95237   0.00000  Uiso   1.00
C2407  C     0.48591   0.87340   0.95198   0.00000  Uiso   1.00
C2408  C     0.48674   0.79439   0.54762   0.00000  Uiso   1.00
C2409  C     0.50734   0.87542   0.59304   0.00000  Uiso   1.00
C2410  C     0.50670   0.79168   0.90731   0.00000  Uiso   1.00
C2411  C     0.49269   0.87542   0.90696   0.00000  Uiso   1.00
C2412  C     0.57929   0.83319   0.74925   0.00000  Uiso   1.00
C2413  C     0.49334   0.79167   0.59268   0.00000  Uiso   1.00
C2414  C     0.50051   0.83336   0.61653   0.00000  Uiso   1.00
C2415  C     0.49952   0.83336   0.88347   0.00000  Uiso   1.00
C2416  C     0.50047   0.83390   0.52427   0.00000  Uiso   1.00
C2417  C     0.49958   0.83391   0.97573   0.00000  Uiso   1.00
C2418  C     0.62395   0.83249   0.74867   0.00000  Uiso   1.00
C2419  C     0.37605   0.83249   0.75134   0.00000  Uiso   1.00
C2420  C     0.57189   0.90043   0.51575   0.00000  Uiso   1.00
C2421  C     0.57425   0.76786   0.97723   0.00000  Uiso   1.00
C2422  C     0.42814   0.90040   0.98429   0.00000  Uiso   1.00
C2423  C     0.50006   0.83333   0.66489   0.00000  Uiso   1.00
C2424  C     0.42583   0.76780   0.52281   0.00000  Uiso   1.00
C2425  C     0.46740   0.93405   0.62062   0.00000  Uiso   1.00
C2426  C     0.45236   0.96578   0.58342   0.00000  Uiso   1.00
C2427  C     0.40587   0.96694   0.58097   0.00000  Uiso   1.00
C2428  C     0.47454   0.72669   0.87926   0.00000  Uiso   1.00
C2429  C     0.45341   0.70996   0.92117   0.00000  Uiso   1.00
C2430  C     0.41875   0.67593   0.91073   0.00000  Uiso   1.00
C2431  C     0.53260   0.93406   0.87936   0.00000  Uiso   1.00
C2432  C     0.54767   0.96577   0.91656   0.00000  Uiso   1.00
C2433  C     0.59416   0.96683   0.91904   0.00000  Uiso   1.00
C2434  C     0.49994   0.83333   0.83510   0.00000  Uiso   1.00
C2435  C     0.52549   0.72668   0.62074   0.00000  Uiso   1.00
C2436  C     0.54666   0.70997   0.57884   0.00000  Uiso   1.00
C2437  C     0.58128   0.67591   0.58929   0.00000  Uiso   1.00
C2438  C     0.38334   0.74647   0.69197   0.00000  Uiso   1.00
C2439  C     0.34752   0.72861   0.66399   0.00000  Uiso   1.00
C2440  C     0.35514   0.73875   0.61575   0.00000  Uiso   1.00
C2441  C     0.62198   0.91004   0.68207   0.00000  Uiso   1.00
C2442  C     0.66057   0.89883   0.65514   0.00000  Uiso   1.00
C2443  C     0.64967   0.89166   0.60717   0.00000  Uiso   1.00
C2444  C     0.61665   0.74650   0.80807   0.00000  Uiso   1.00
C2445  C     0.46908   0.69145   0.76925   0.00000  Uiso   1.00
C2446  C     0.65243   0.72857   0.83605   0.00000  Uiso   1.00
C2447  C     0.64478   0.73867   0.88430   0.00000  Uiso   1.00
C2448  C     0.37803   0.91010   0.81790   0.00000  Uiso   1.00
C2449  C     0.33946   0.89879   0.84484   0.00000  Uiso   1.00
C2450  C     0.35039   0.89172   0.89282   0.00000  Uiso   1.00
C2451  C     0.53061   0.97525   0.73032   0.00000  Uiso   1.00
C2452  C     0.53092   0.69145   0.73075   0.00000  Uiso   1.00
C2453  C     0.46939   0.97525   0.76968   0.00000  Uiso   1.00
C2454  C     0.35428   0.78995   0.74628   0.00000  Uiso   1.00
Cu2455 Cu    0.50000   0.88022   0.75000   0.00000  Uiso   1.00
Cu2456 Cu    0.50000   0.78645   0.75000   0.00000  Uiso   1.00
H2457  H     0.44428   0.70999   0.78481   0.00000  Uiso   1.00
H2458  H     0.59087   0.73549   0.98657   0.00000  Uiso   1.00
H2459  H     0.42794   0.88097   0.51569   0.00000  Uiso   1.00
H2460  H     0.41169   0.87980   0.95891   0.00000  Uiso   1.00
H2461  H     0.41082   0.93334   0.98906   0.00000  Uiso   1.00
H2462  H     0.42064   0.79421   0.99671   0.00000  Uiso   1.00
H2463  H     0.41245   0.78056   0.55399   0.00000  Uiso   1.00
H2464  H     0.40923   0.73543   0.51341   0.00000  Uiso   1.00
H2465  H     0.46698   0.95476   0.65136   0.00000  Uiso   1.00
H2466  H     0.44547   0.90458   0.62600   0.00000  Uiso   1.00
H2467  H     0.46342   0.66850   0.58890   0.00000  Uiso   1.00
H2468  H     0.55478   0.95669   0.71418   0.00000  Uiso   1.00
H2469  H     0.46438   0.95376   0.55162   0.00000  Uiso   1.00
H2470  H     0.39413   0.93192   0.57182   0.00000  Uiso   1.00
H2471  H     0.39590   0.99242   0.55569   0.00000  Uiso   1.00
H2472  H     0.39294   0.97723   0.61301   0.00000  Uiso   1.00
H2473  H     0.48072   0.69563   0.85855   0.00000  Uiso   1.00
H2474  H     0.45308   0.74956   0.86066   0.00000  Uiso   1.00
H2475  H     0.47554   0.69268   0.94353   0.00000  Uiso   1.00
H2476  H     0.44024   0.74080   0.93795   0.00000  Uiso   1.00
H2477  H     0.39844   0.69062   0.88504   0.00000  Uiso   1.00
H2478  H     0.40050   0.66940   0.94060   0.00000  Uiso   1.00
H2479  H     0.55572   0.70998   0.71519   0.00000  Uiso   1.00
H2480  H     0.43125   0.97547   0.89898   0.00000  Uiso   1.00
H2481  H     0.53300   0.95478   0.84864   0.00000  Uiso   1.00
H2482  H     0.55452   0.90459   0.87394   0.00000  Uiso   1.00
H2483  H     0.53668   0.66851   0.91107   0.00000  Uiso   1.00
H2484  H     0.53562   0.95379   0.94836   0.00000  Uiso   1.00
H2485  H     0.60584   0.93178   0.92818   0.00000  Uiso   1.00
H2486  H     0.60416   0.99228   0.94433   0.00000  Uiso   1.00
H2487  H     0.60711   0.97710   0.88701   0.00000  Uiso   1.00
H2488  H     0.51930   0.69561   0.64144   0.00000  Uiso   1.00
H2489  H     0.54694   0.74954   0.63937   0.00000  Uiso   1.00
H2490  H     0.44522   0.95669   0.78582   0.00000  Uiso   1.00
H2491  H     0.52453   0.69272   0.55645   0.00000  Uiso   1.00
H2492  H     0.55985   0.74081   0.56211   0.00000  Uiso   1.00
H2493  H     0.60154   0.69052   0.61507   0.00000  Uiso   1.00
H2494  H     0.59961   0.66944   0.55946   0.00000  Uiso   1.00
H2495  H     0.56875   0.97543   0.60093   0.00000  Uiso   1.00
H2496  H     0.40943   0.72195   0.68789   0.00000  Uiso   1.00
H2497  H     0.39422   0.78097   0.67936   0.00000  Uiso   1.00
H2498  H     0.34390   0.69026   0.66899   0.00000  Uiso   1.00
H2499  H     0.65188   0.74600   0.67351   0.00000  Uiso   1.00
H2500  H     0.35237   0.77695   0.60943   0.00000  Uiso   1.00
H2501  H     0.57212   0.88095   0.98437   0.00000  Uiso   1.00
H2502  H     0.66588   0.72000   0.59508   0.00000  Uiso   1.00
H2503  H     0.38627   0.72716   0.60648   0.00000  Uiso   1.00
H2504  H     0.60958   0.94370   0.66962   0.00000  Uiso   1.00
H2505  H     0.59801   0.88318   0.67591   0.00000  Uiso   1.00
H2506  H     0.34968   0.92779   0.65854   0.00000  Uiso   1.00
H2507  H     0.34182   0.86592   0.66660   0.00000  Uiso   1.00
H2508  H     0.62583   0.86415   0.60411   0.00000  Uiso   1.00
H2509  H     0.34360   0.87950   0.58902   0.00000  Uiso   1.00
H2510  H     0.63848   0.92489   0.59256   0.00000  Uiso   1.00
H2511  H     0.59052   0.72202   0.81214   0.00000  Uiso   1.00
H2512  H     0.58835   0.87988   0.54116   0.00000  Uiso   1.00
H2513  H     0.60580   0.78101   0.82068   0.00000  Uiso   1.00
H2514  H     0.65603   0.69024   0.83102   0.00000  Uiso   1.00
H2515  H     0.34808   0.74596   0.82657   0.00000  Uiso   1.00
H2516  H     0.64758   0.77686   0.89067   0.00000  Uiso   1.00
H2517  H     0.33402   0.71989   0.90496   0.00000  Uiso   1.00
H2518  H     0.61365   0.72711   0.89355   0.00000  Uiso   1.00
H2519  H     0.39036   0.94380   0.83033   0.00000  Uiso   1.00
H2520  H     0.40205   0.88330   0.82406   0.00000  Uiso   1.00
H2521  H     0.65028   0.92767   0.84141   0.00000  Uiso   1.00
H2522  H     0.65830   0.86582   0.83341   0.00000  Uiso   1.00
H2523  H     0.58919   0.93338   0.51095   0.00000  Uiso   1.00
H2524  H     0.37430   0.86430   0.89590   0.00000  Uiso   1.00
H2525  H     0.65649   0.87949   0.91098   0.00000  Uiso   1.00
H2526  H     0.36149   0.92500   0.90740   0.00000  Uiso   1.00
H2527  H     0.57938   0.79422   0.50339   0.00000  Uiso   1.00
H2528  H     0.58763   0.78072   0.94609   0.00000  Uiso   1.00
N2529  N     0.50000   0.95069   0.75000   0.00000  Uiso   1.00
N2530  N     0.50000   0.71598   0.75000   0.00000  Uiso   1.00
O2531  O     0.43988   0.87291   0.74999   0.00000  Uiso   1.00
O2532  O     0.53227   0.75727   0.97318   0.00000  Uiso   1.00
O2533  O     0.46851   0.91180   0.97219   0.00000  Uiso   1.00
O2534  O     0.46782   0.75726   0.52680   0.00000  Uiso   1.00
O2535  O     0.50820   0.91876   0.61343   0.00000  Uiso   1.00
O2536  O     0.51275   0.74892   0.88708   0.00000  Uiso   1.00
O2537  O     0.49181   0.91876   0.88658   0.00000  Uiso   1.00
O2538  O     0.48729   0.74892   0.61291   0.00000  Uiso   1.00
O2539  O     0.37324   0.74772   0.73702   0.00000  Uiso   1.00
O2540  O     0.62951   0.91543   0.72767   0.00000  Uiso   1.00
O2541  O     0.62676   0.74772   0.76303   0.00000  Uiso   1.00
O2542  O     0.56012   0.79375   0.75000   0.00000  Uiso   1.00
O2543  O     0.37048   0.91545   0.77229   0.00000  Uiso   1.00
O2544  O     0.56012   0.87291   0.75000   0.00000  Uiso   1.00
O2545  O     0.43988   0.79375   0.74999   0.00000  Uiso   1.00
O2546  O     0.50000   0.87293   0.68573   0.00000  Uiso   1.00
O2547  O     0.50000   0.79374   0.81427   0.00000  Uiso   1.00
O2548  O     0.50000   0.87293   0.81427   0.00000  Uiso   1.00
O2549  O     0.50000   0.79374   0.68573   0.00000  Uiso   1.00
O2550  O     0.53151   0.91181   0.52783   0.00000  Uiso   1.00
C2551  C     0.75404   0.83319   0.75076   0.00000  Uiso   1.00
C2552  C     0.97949   0.87450   0.74423   0.00000  Uiso   1.00
C2553  C     0.97906   0.78995   0.75376   0.00000  Uiso   1.00
C2554  C     0.68718   0.87451   0.75576   0.00000  Uiso   1.00
C2555  C     0.84746   0.87340   0.54803   0.00000  Uiso   1.00
C2556  C     0.84666   0.79440   0.95237   0.00000  Uiso   1.00
C2557  C     0.81924   0.87340   0.95198   0.00000  Uiso   1.00
C2558  C     0.82008   0.79439   0.54762   0.00000  Uiso   1.00
C2559  C     0.84067   0.87542   0.59304   0.00000  Uiso   1.00
C2560  C     0.84003   0.79168   0.90731   0.00000  Uiso   1.00
C2561  C     0.82602   0.87542   0.90696   0.00000  Uiso   1.00
C2562  C     0.91263   0.83319   0.74925   0.00000  Uiso   1.00
C2563  C     0.82668   0.79167   0.59268   0.00000  Uiso   1.00
C2564  C     0.83384   0.83336   0.61653   0.00000  Uiso   1.00
C2565  C     0.83285   0.83336   0.88347   0.00000  Uiso   1.00
C2566  C     0.83381   0.83390   0.52427   0.00000  Uiso   1.00
C2567  C     0.83291   0.83391   0.97573   0.00000  Uiso   1.00
C2568  C     0.95728   0.83249   0.74867   0.00000  Uiso   1.00
C2569  C     0.70938   0.83249   0.75134   0.00000  Uiso   1.00
C2570  C     0.90523   0.90043   0.51575   0.00000  Uiso   1.00
C2571  C     0.90758   0.76786   0.97723   0.00000  Uiso   1.00
C2572  C     0.76147   0.90040   0.98429   0.00000  Uiso   1.00
C2573  C     0.83339   0.83333   0.66489   0.00000  Uiso   1.00
C2574  C     0.75916   0.76780   0.52281   0.00000  Uiso   1.00
C2575  C     0.80073   0.93405   0.62062   0.00000  Uiso   1.00
C2576  C     0.78570   0.96578   0.58342   0.00000  Uiso   1.00
C2577  C     0.73920   0.96694   0.58097   0.00000  Uiso   1.00
C2578  C     0.80788   0.72669   0.87926   0.00000  Uiso   1.00
C2579  C     0.78674   0.70996   0.92117   0.00000  Uiso   1.00
C2580  C     0.75209   0.67593   0.91073   0.00000  Uiso   1.00
C2581  C     0.86593   0.93406   0.87936   0.00000  Uiso   1.00
C2582  C     0.88100   0.96577   0.91656   0.00000  Uiso   1.00
C2583  C     0.92749   0.96683   0.91904   0.00000  Uiso   1.00
C2584  C     0.83328   0.83333   0.83510   0.00000  Uiso   1.00
C2585  C     0.85882   0.72668   0.62074   0.00000  Uiso   1.00
C2586  C     0.87999   0.70997   0.57884   0.00000  Uiso   1.00
C2587  C     0.91462   0.67591   0.58929   0.00000  Uiso   1.00
C2588  C     0.71667   0.74647   0.69197   0.00000  Uiso   1.00
C2589  C     0.68086   0.72861   0.66399   0.00000  Uiso   1.00
C2590  C     0.68847   0.73875   0.61575   0.00000  Uiso   1.00
C2591  C     0.95531   0.91004   0.68207   0.00000  Uiso   1.00
C2592  C     0.99390   0.89883   0.65514   0.00000  Uiso   1.00
C2593  C     0.98300   0.89166   0.60717   0.00000  Uiso   1.00
C2594  C     0.94998   0.74650   0.80807   0.00000  Uiso   1.00
C2595  C     0.80242   0.69145   0.76925   0.00000  Uiso   1.00
C2596  C     0.98576   0.72857   0.83605   0.00000  Uiso   1.00
C2597  C     0.97812   0.73867   0.88430   0.00000  Uiso   1.00
C2598  C     0.71136   0.91010   0.81790   0.00000  Uiso   1.00
C2599  C     0.67280   0.89879   0.84484   0.00000  Uiso   1.00
C2600  C     0.68372   0.89172   0.89282   0.00000  Uiso   1.00
C2601  C     0.86394   0.97525   0.73032   0.00000  Uiso   1.00
C2602  C     0.86425   0.69145   0.73075   0.00000  Uiso   1.00
C2603  C     0.80272   0.97525   0.76968   0.00000  Uiso   1.00
C2604  C     0.68761   0.78995   0.74628   0.00000  Uiso   1.00
Cu2605 Cu    0.83333   0.88022   0.75000   0.00000  Uiso   1.00
Cu2606 Cu    0.83333   0.78645   0.75000   0.00000  Uiso   1.00
H2607  H     0.77762   0.70999   0.78481   0.00000  Uiso   1.00
H2608  H     0.92420   0.73549   0.98657   0.00000  Uiso   1.00
H2609  H     0.76127   0.88097   0.51569   0.00000  Uiso   1.00
H2610  H     0.74502   0.87980   0.95891   0.00000  Uiso   1.00
H2611  H     0.74416   0.93334   0.98906   0.00000  Uiso   1.00
H2612  H     0.75397   0.79421   0.99671   0.00000  Uiso   1.00
H2613  H     0.74578   0.78056   0.55399   0.00000  Uiso   1.00
H2614  H     0.74256   0.73543   0.51341   0.00000  Uiso   1.00
H2615  H     0.80031   0.95476   0.65136   0.00000  Uiso   1.00
H2616  H     0.77881   0.90458   0.62600   0.00000  Uiso   1.00
H2617  H     0.79675   0.66850   0.58890   0.00000  Uiso   1.00
H2618  H     0.88811   0.95669   0.71418   0.00000  Uiso   1.00
H2619  H     0.79771   0.95376   0.55162   0.00000  Uiso   1.00
H2620  H     0.72747   0.93192   0.57182   0.00000  Uiso   1.00
H2621  H     0.72923   0.99242   0.55569   0.00000  Uiso   1.00
H2622  H     0.72628   0.97723   0.61301   0.00000  Uiso   1.00
H2623  H     0.81405   0.69563   0.85855   0.00000  Uiso   1.00
H2624  H     0.78642   0.74956   0.86066   0.00000  Uiso   1.00
H2625  H     0.80888   0.69268   0.94353   0.00000  Uiso   1.00
H2626  H     0.77358   0.74080   0.93795   0.00000  Uiso   1.00
H2627  H     0.73177   0.69062   0.88504   0.00000  Uiso   1.00
H2628  H     0.73383   0.66940   0.94060   0.00000  Uiso   1.00
H2629  H     0.88905   0.70998   0.71519   0.00000  Uiso   1.00
H2630  H     0.76459   0.97547   0.89898   0.00000  Uiso   1.00
H2631  H     0.86633   0.95478   0.84864   0.00000  Uiso   1.00
H2632  H     0.88785   0.90459   0.87394   0.00000  Uiso   1.00
H2633  H     0.87001   0.66851   0.91107   0.00000  Uiso   1.00
H2634  H     0.86895   0.95379   0.94836   0.00000  Uiso   1.00
H2635  H     0.93917   0.93178   0.92818   0.00000  Uiso   1.00
H2636  H     0.93750   0.99228   0.94433   0.00000  Uiso   1.00
H2637  H     0.94045   0.97710   0.88701   0.00000  Uiso   1.00
H2638  H     0.85264   0.69561   0.64144   0.00000  Uiso   1.00
H2639  H     0.88027   0.74954   0.63937   0.00000  Uiso   1.00
H2640  H     0.77856   0.95669   0.78582   0.00000  Uiso   1.00
H2641  H     0.85787   0.69272   0.55645   0.00000  Uiso   1.00
H2642  H     0.89318   0.74081   0.56211   0.00000  Uiso   1.00
H2643  H     0.93487   0.69052   0.61507   0.00000  Uiso   1.00
H2644  H     0.93294   0.66944   0.55946   0.00000  Uiso   1.00
H2645  H     0.90208   0.97543   0.60093   0.00000  Uiso   1.00
H2646  H     0.74277   0.72195   0.68789   0.00000  Uiso   1.00
H2647  H     0.72755   0.78097   0.67936   0.00000  Uiso   1.00
H2648  H     0.67723   0.69026   0.66899   0.00000  Uiso   1.00
H2649  H     0.98522   0.74600   0.67351   0.00000  Uiso   1.00
H2650  H     0.68570   0.77695   0.60943   0.00000  Uiso   1.00
H2651  H     0.90545   0.88095   0.98437   0.00000  Uiso   1.00
H2652  H     0.99921   0.72000   0.59508   0.00000  Uiso   1.00
H2653  H     0.71960   0.72716   0.60648   0.00000  Uiso   1.00
H2654  H     0.94291   0.94370   0.66962   0.00000  Uiso   1.00
H2655  H     0.93134   0.88318   0.67591   0.00000  Uiso   1.00
H2656  H     0.68301   0.92779   0.65854   0.00000  Uiso   1.00
H2657  H     0.67515   0.86592   0.66660   0.00000  Uiso   1.00
H2658  H     0.95916   0.86415   0.60411   0.00000  Uiso   1.00
H2659  H     0.67693   0.87950   0.58902   0.00000  Uiso   1.00
H2660  H     0.97181   0.92489   0.59256   0.00000  Uiso   1.00
H2661  H     0.92385   0.72202   0.81214   0.00000  Uiso   1.00
H2662  H     0.92168   0.87988   0.54116   0.00000  Uiso   1.00
H2663  H     0.93913   0.78101   0.82068   0.00000  Uiso   1.00
H2664  H     0.98936   0.69024   0.83102   0.00000  Uiso   1.00
H2665  H     0.68141   0.74596   0.82657   0.00000  Uiso   1.00
H2666  H     0.98091   0.77686   0.89067   0.00000  Uiso   1.00
H2667  H     0.66735   0.71989   0.90496   0.00000  Uiso   1.00
H2668  H     0.94698   0.72711   0.89355   0.00000  Uiso   1.00
H2669  H     0.72369   0.94380   0.83033   0.00000  Uiso   1.00
H2670  H     0.73538   0.88330   0.82406   0.00000  Uiso   1.00
H2671  H     0.98361   0.92767   0.84141   0.00000  Uiso   1.00
H2672  H     0.99163   0.86582   0.83341   0.00000  Uiso   1.00
H2673  H     0.92252   0.93338   0.51095   0.00000  Uiso   1.00
H2674  H     0.70764   0.86430   0.89590   0.00000  Uiso   1.00
H2675  H     0.98982   0.87949   0.91098   0.00000  Uiso   1.00
H2676  H     0.69483   0.92500   0.90740   0.00000  Uiso   1.00
H2677  H     0.91271   0.79422   0.50339   0.00000  Uiso   1.00
H2678  H     0.92097   0.78072   0.94609   0.00000  Uiso   1.00
N2679  N     0.83333   0.95069   0.75000   0.00000  Uiso   1.00
N2680  N     0.83333   0.71598   0.75000   0.00000  Uiso   1.00
O2681  O     0.77321   0.87291   0.74999   0.00000  Uiso   1.00
O2682  O     0.86560   0.75727   0.97318   0.00000  Uiso   1.00
O2683  O     0.80184   0.91180   0.97219   0.00000  Uiso   1.00
O2684  O     0.80115   0.75726   0.52680   0.00000  Uiso   1.00
O2685  O     0.84153   0.91876   0.61343   0.00000  Uiso   1.00
O2686  O     0.84608   0.74892   0.88708   0.00000  Uiso   1.00
O2687  O     0.82514   0.91876   0.88658   0.00000  Uiso   1.00
O2688  O     0.82062   0.74892   0.61291   0.00000  Uiso   1.00
O2689  O     0.70657   0.74772   0.73702   0.00000  Uiso   1.00
O2690  O     0.96284   0.91543   0.72767   0.00000  Uiso   1.00
O2691  O     0.96009   0.74772   0.76303   0.00000  Uiso   1.00
O2692  O     0.89345   0.79375   0.75000   0.00000  Uiso   1.00
O2693  O     0.70381   0.91545   0.77229   0.00000  Uiso   1.00
O2694  O     0.89345   0.87291   0.75000   0.00000  Uiso   1.00
O2695  O     0.77321   0.79375   0.74999   0.00000  Uiso   1.00
O2696  O     0.83333   0.87293   0.68573   0.00000  Uiso   1.00
O2697  O     0.83334   0.79374   0.81427   0.00000  Uiso   1.00
O2698  O     0.83334   0.87293   0.81427   0.00000  Uiso   1.00
O2699  O     0.83333   0.79374   0.68573   0.00000  Uiso   1.00
O2700  O     0.86484   0.91181   0.52783   0.00000  Uiso   1.00
loop_
_geom_bond_atom_site_label_1
_geom_bond_atom_site_label_2
_geom_bond_distance
_geom_bond_site_symmetry_2
_ccdc_geom_bond_type
C1     O145    1.289   .     A
C1     C19     1.461   .     S
C1     O131    1.296   .     A
C2     C18     1.409   .     A
C2     O140    1.384   .     S
C2     C154    1.386   .     S
C3     O141    1.386   .     S
C3     C18     1.416   .     A
C3     C204    1.390   .     S
C4     O143    1.384   .     S
C4     C19     1.409   .     A
C4     C302    1.386   1_455 S
C5     O150    1.383   .     S
C5     C9      1.398   .     A
C5     C16     1.413   .     A
C6     O132    1.382   .     S
C6     C17     1.410   .     A
C6     C10     1.397   .     A
C7     C11     1.398   .     A
C7     O133    1.383   .     S
C7     C17     1.413   .     A
C8     C13     1.397   .     A
C8     C16     1.410   .     A
C8     O134    1.382   .     S
C9     C14     1.418   .     A
C9     O135    1.386   .     S
C10    O136    1.383   .     S
C10    C15     1.415   .     A
C11    C15     1.418   .     A
C11    O137    1.386   .     S
C12    O142    1.289   .     A
C12    O144    1.296   .     A
C12    C18     1.461   .     S
C13    C14     1.415   .     A
C13    O138    1.383   .     S
C14    C23     1.481   .     S
C15    C34     1.481   .     S
C16    C1367   1.486   1_554 S
C17    C1366   1.486   .     S
C19    C54     1.416   .     A
C20    H112    1.111   .     S
C20    H123    1.108   .     S
C20    O150    1.411   .     S
C20    H1451   1.110   1_554 S
C21    O132    1.411   .     S
C21    H128    1.113   .     S
C21    H58     1.109   .     S
C21    H1477   1.111   .     S
C22    H60     1.111   .     S
C22    O133    1.411   .     S
C22    H61     1.108   .     S
C22    H1409   1.110   .     S
C23    O149    1.298   .     A
C23    O146    1.298   .     A
C24    H63     1.113   .     S
C24    O134    1.411   .     S
C24    H64     1.109   .     S
C24    H1412   1.111   1_554 S
C25    H65     1.111   .     S
C25    C26     1.534   .     S
C25    H66     1.118   .     S
C25    O135    1.422   .     S
C26    C27     1.523   .     S
C26    H69     1.106   .     S
C26    H517    1.104   .     S
C27    H70     1.107   .     S
C27    H71     1.110   .     S
C27    H72     1.109   .     S
C28    H74     1.113   .     S
C28    H73     1.109   .     S
C28    C29     1.536   .     S
C28    O136    1.421   .     S
C29    H76     1.107   .     S
C29    C30     1.526   .     S
C29    H75     1.110   .     S
C30    H77     1.110   .     S
C30    H78     1.110   .     S
C30    H980    1.109   1_545 S
C31    H82     1.118   .     S
C31    C32     1.534   .     S
C31    O137    1.422   .     S
C31    H81     1.111   .     S
C32    H84     1.106   .     S
C32    C33     1.523   .     S
C32    H533    1.104   .     S
C33    H86     1.110   .     S
C33    H85     1.107   .     S
C33    H87     1.109   .     S
C34    O148    1.298   .     A
C34    O147    1.298   .     A
C35    C36     1.536   .     S
C35    O138    1.421   .     S
C35    H88     1.109   .     S
C35    H89     1.113   .     S
C36    C37     1.526   .     S
C36    H92     1.107   .     S
C36    H91     1.110   .     S
C37    H93     1.109   .     S
C37    H94     1.110   .     S
C37    H995    1.108   1_545 S
C38    C39     1.535   .     S
C38    O139    1.420   .     S
C38    H97     1.117   .     S
C38    H96     1.112   .     S
C39    C40     1.526   .     S
C39    H98     1.112   .     S
C39    H399    1.110   1_455 S
C40    H100    1.112   .     S
C40    H103    1.109   .     S
C40    H402    1.109   1_455 S
C41    C42     1.544   .     S
C41    H105    1.112   .     S
C41    O140    1.425   .     S
C41    H104    1.110   .     S
C42    C43     1.523   .     S
C42    H256    1.110   .     S
C42    H257    1.110   .     S
C43    H110    1.110   .     S
C43    H108    1.111   .     S
C43    H259    1.109   .     S
C44    C46     1.535   .     S
C44    O141    1.420   .     S
C44    H113    1.117   .     S
C44    H111    1.111   .     S
C45    H57     1.081   .     S
C45    N130    1.366   .     A
C45    C953    1.414   1_545 S
C46    H114    1.112   .     S
C46    C47     1.526   .     S
C46    H265    1.110   .     S
C47    H118    1.109   .     S
C47    H116    1.111   .     S
C47    H267    1.108   .     S
C48    H120    1.112   .     S
C48    H119    1.110   .     S
C48    O143    1.425   .     S
C48    C49     1.544   .     S
C49    C50     1.523   .     S
C49    H421    1.110   1_455 S
C49    H422    1.110   1_455 S
C50    H126    1.110   .     S
C50    H124    1.110   .     S
C50    H425    1.109   1_455 S
C51    N129    1.365   .     A
C51    H68     1.074   .     S
C51    C502    1.414   .     S
C52    H79     1.081   .     S
C52    N130    1.366   .     A
C52    C951    1.414   1_545 S
C53    N129    1.365   .     A
C53    H90     1.074   .     S
C53    C495    1.414   .     S
C54    O139    1.386   .     S
C54    C303    1.390   1_455 S
Cu55   Cu56    2.677   .     S
Cu55   N129    2.012   .     S
Cu55   O146    1.978   .     S
Cu55   O131    1.978   .     S
Cu55   O144    1.978   .     S
Cu55   O148    1.978   .     S
Cu56   O145    1.978   .     S
Cu56   O142    1.978   .     S
Cu56   O147    1.978   .     S
Cu56   O149    1.978   .     S
Cu56   N130    2.012   .     S
H59    C1372   1.110   1_554 S
H62    C1374   1.111   .     S
H67    C926    1.104   1_545 S
H80    C480    1.109   .     S
H83    C932    1.104   1_545 S
H95    C487    1.108   .     S
H99    C189    1.110   .     S
H101   C1370   1.110   .     S
H102   C190    1.109   .     S
H106   C342    1.110   1_455 S
H107   C342    1.110   1_455 S
H109   C343    1.109   1_455 S
H115   C346    1.110   1_455 S
H117   C347    1.108   1_455 S
H121   C199    1.110   .     S
H122   C199    1.110   .     S
H125   C200    1.109   .     S
H127   C1371   1.111   1_554 S
C151   O295    1.289   .     A
C151   C169    1.461   .     S
C151   O281    1.296   .     A
C152   C168    1.409   .     A
C152   O290    1.384   .     S
C152   C304    1.386   .     S
C153   O291    1.386   .     S
C153   C168    1.416   .     A
C153   C354    1.390   .     S
C154   O293    1.384   .     S
C154   C169    1.409   .     A
C155   O300    1.383   .     S
C155   C159    1.398   .     A
C155   C166    1.413   .     A
C156   O282    1.382   .     S
C156   C167    1.410   .     A
C156   C160    1.397   .     A
C157   C161    1.398   .     A
C157   O283    1.383   .     S
C157   C167    1.413   .     A
C158   C163    1.397   .     A
C158   C166    1.410   .     A
C158   O284    1.382   .     S
C159   C164    1.418   .     A
C159   O285    1.386   .     S
C160   O286    1.383   .     S
C160   C165    1.415   .     A
C161   C165    1.418   .     A
C161   O287    1.386   .     S
C162   O292    1.289   .     A
C162   O294    1.296   .     A
C162   C168    1.461   .     S
C163   C164    1.415   .     A
C163   O288    1.383   .     S
C164   C173    1.481   .     S
C165   C184    1.481   .     S
C166   C1517   1.486   1_554 S
C167   C1516   1.486   .     S
C169   C204    1.416   .     A
C170   H262    1.111   .     S
C170   H273    1.108   .     S
C170   O300    1.411   .     S
C170   H1601   1.110   1_554 S
C171   O282    1.411   .     S
C171   H278    1.113   .     S
C171   H208    1.109   .     S
C171   H1627   1.111   .     S
C172   H210    1.111   .     S
C172   O283    1.411   .     S
C172   H211    1.108   .     S
C172   H1559   1.110   .     S
C173   O299    1.298   .     A
C173   O296    1.298   .     A
C174   H213    1.113   .     S
C174   O284    1.411   .     S
C174   H214    1.109   .     S
C174   H1562   1.111   1_554 S
C175   H215    1.111   .     S
C175   C176    1.534   .     S
C175   H216    1.118   .     S
C175   O285    1.422   .     S
C176   C177    1.523   .     S
C176   H219    1.106   .     S
C176   H667    1.104   .     S
C177   H220    1.107   .     S
C177   H221    1.110   .     S
C177   H222    1.109   .     S
C178   H224    1.113   .     S
C178   H223    1.109   .     S
C178   C179    1.536   .     S
C178   O286    1.421   .     S
C179   H226    1.107   .     S
C179   C180    1.526   .     S
C179   H225    1.110   .     S
C180   H227    1.110   .     S
C180   H228    1.110   .     S
C180   H1130   1.109   1_545 S
C181   H232    1.118   .     S
C181   C182    1.534   .     S
C181   O287    1.422   .     S
C181   H231    1.111   .     S
C182   H234    1.106   .     S
C182   C183    1.523   .     S
C182   H683    1.104   .     S
C183   H236    1.110   .     S
C183   H235    1.107   .     S
C183   H237    1.109   .     S
C184   O298    1.298   .     A
C184   O297    1.298   .     A
C185   C186    1.536   .     S
C185   O288    1.421   .     S
C185   H238    1.109   .     S
C185   H239    1.113   .     S
C186   C187    1.526   .     S
C186   H242    1.107   .     S
C186   H241    1.110   .     S
C187   H243    1.109   .     S
C187   H244    1.110   .     S
C187   H1145   1.108   1_545 S
C188   C189    1.535   .     S
C188   O289    1.420   .     S
C188   H247    1.117   .     S
C188   H246    1.112   .     S
C189   C190    1.526   .     S
C189   H248    1.112   .     S
C190   H250    1.112   .     S
C190   H253    1.109   .     S
C191   C192    1.544   .     S
C191   H255    1.112   .     S
C191   O290    1.425   .     S
C191   H254    1.110   .     S
C192   C193    1.523   .     S
C192   H406    1.110   .     S
C192   H407    1.110   .     S
C193   H260    1.110   .     S
C193   H258    1.111   .     S
C193   H409    1.109   .     S
C194   C196    1.535   .     S
C194   O291    1.420   .     S
C194   H263    1.117   .     S
C194   H261    1.111   .     S
C195   H207    1.081   .     S
C195   N280    1.366   .     A
C195   C1103   1.414   1_545 S
C196   H264    1.112   .     S
C196   C197    1.526   .     S
C196   H415    1.110   .     S
C197   H268    1.109   .     S
C197   H266    1.111   .     S
C197   H417    1.108   .     S
C198   H270    1.112   .     S
C198   H269    1.110   .     S
C198   O293    1.425   .     S
C198   C199    1.544   .     S
C199   C200    1.523   .     S
C200   H276    1.110   .     S
C200   H274    1.110   .     S
C201   N279    1.365   .     A
C201   H218    1.074   .     S
C201   C652    1.414   .     S
C202   H229    1.081   .     S
C202   N280    1.366   .     A
C202   C1101   1.414   1_545 S
C203   N279    1.365   .     A
C203   H240    1.074   .     S
C203   C645    1.414   .     S
C204   O289    1.386   .     S
Cu205  Cu206   2.677   .     S
Cu205  N279    2.012   .     S
Cu205  O296    1.978   .     S
Cu205  O281    1.978   .     S
Cu205  O294    1.978   .     S
Cu205  O298    1.978   .     S
Cu206  O295    1.978   .     S
Cu206  O292    1.978   .     S
Cu206  O297    1.978   .     S
Cu206  O299    1.978   .     S
Cu206  N280    2.012   .     S
H209   C1522   1.110   1_554 S
H212   C1524   1.111   .     S
H217   C1076   1.104   1_545 S
H230   C630    1.109   .     S
H233   C1082   1.104   1_545 S
H245   C637    1.108   .     S
H249   C339    1.110   .     S
H251   C1520   1.110   .     S
H252   C340    1.109   .     S
H271   C349    1.110   .     S
H272   C349    1.110   .     S
H275   C350    1.109   .     S
H277   C1521   1.111   1_554 S
C301   O445    1.289   .     A
C301   C319    1.461   .     S
C301   O431    1.296   .     A
C302   C318    1.409   .     A
C302   O440    1.384   .     S
C302   C4      1.386   1_655 S
C303   O441    1.386   .     S
C303   C318    1.416   .     A
C303   C54     1.390   1_655 S
C304   O443    1.384   .     S
C304   C319    1.409   .     A
C305   O450    1.383   .     S
C305   C309    1.398   .     A
C305   C316    1.413   .     A
C306   O432    1.382   .     S
C306   C317    1.410   .     A
C306   C310    1.397   .     A
C307   C311    1.398   .     A
C307   O433    1.383   .     S
C307   C317    1.413   .     A
C308   C313    1.397   .     A
C308   C316    1.410   .     A
C308   O434    1.382   .     S
C309   C314    1.418   .     A
C309   O435    1.386   .     S
C310   O436    1.383   .     S
C310   C315    1.415   .     A
C311   C315    1.418   .     A
C311   O437    1.386   .     S
C312   O442    1.289   .     A
C312   O444    1.296   .     A
C312   C318    1.461   .     S
C313   C314    1.415   .     A
C313   O438    1.383   .     S
C314   C323    1.481   .     S
C315   C334    1.481   .     S
C316   C1667   1.486   1_554 S
C317   C1666   1.486   .     S
C319   C354    1.416   .     A
C320   H412    1.111   .     S
C320   H423    1.108   .     S
C320   O450    1.411   .     S
C320   H1751   1.110   1_554 S
C321   O432    1.411   .     S
C321   H428    1.113   .     S
C321   H358    1.109   .     S
C321   H1777   1.111   .     S
C322   H360    1.111   .     S
C322   O433    1.411   .     S
C322   H361    1.108   .     S
C322   H1709   1.110   .     S
C323   O449    1.298   .     A
C323   O446    1.298   .     A
C324   H363    1.113   .     S
C324   O434    1.411   .     S
C324   H364    1.109   .     S
C324   H1712   1.111   1_554 S
C325   H365    1.111   .     S
C325   C326    1.534   .     S
C325   H366    1.118   .     S
C325   O435    1.422   .     S
C326   C327    1.523   .     S
C326   H369    1.106   .     S
C326   H817    1.104   .     S
C327   H370    1.107   .     S
C327   H371    1.110   .     S
C327   H372    1.109   .     S
C328   H374    1.113   .     S
C328   H373    1.109   .     S
C328   C329    1.536   .     S
C328   O436    1.421   .     S
C329   H376    1.107   .     S
C329   C330    1.526   .     S
C329   H375    1.110   .     S
C330   H377    1.110   .     S
C330   H378    1.110   .     S
C330   H1280   1.109   1_545 S
C331   H382    1.118   .     S
C331   C332    1.534   .     S
C331   O437    1.422   .     S
C331   H381    1.111   .     S
C332   H384    1.106   .     S
C332   C333    1.523   .     S
C332   H833    1.104   .     S
C333   H386    1.110   .     S
C333   H385    1.107   .     S
C333   H387    1.109   .     S
C334   O448    1.298   .     A
C334   O447    1.298   .     A
C335   C336    1.536   .     S
C335   O438    1.421   .     S
C335   H388    1.109   .     S
C335   H389    1.113   .     S
C336   C337    1.526   .     S
C336   H392    1.107   .     S
C336   H391    1.110   .     S
C337   H393    1.109   .     S
C337   H394    1.110   .     S
C337   H1295   1.108   1_545 S
C338   C339    1.535   .     S
C338   O439    1.420   .     S
C338   H397    1.117   .     S
C338   H396    1.112   .     S
C339   C340    1.526   .     S
C339   H398    1.112   .     S
C340   H400    1.112   .     S
C340   H403    1.109   .     S
C341   C342    1.544   .     S
C341   H405    1.112   .     S
C341   O440    1.425   .     S
C341   H404    1.110   .     S
C342   C343    1.523   .     S
C342   H106    1.110   1_655 S
C342   H107    1.110   1_655 S
C343   H410    1.110   .     S
C343   H408    1.111   .     S
C343   H109    1.109   1_655 S
C344   C346    1.535   .     S
C344   O441    1.420   .     S
C344   H413    1.117   .     S
C344   H411    1.111   .     S
C345   H357    1.081   .     S
C345   N430    1.366   .     A
C345   C1253   1.414   1_545 S
C346   H414    1.112   .     S
C346   C347    1.526   .     S
C346   H115    1.110   1_655 S
C347   H418    1.109   .     S
C347   H416    1.111   .     S
C347   H117    1.108   1_655 S
C348   H420    1.112   .     S
C348   H419    1.110   .     S
C348   O443    1.425   .     S
C348   C349    1.544   .     S
C349   C350    1.523   .     S
C350   H426    1.110   .     S
C350   H424    1.110   .     S
C351   N429    1.365   .     A
C351   H368    1.074   .     S
C351   C802    1.414   .     S
C352   H379    1.081   .     S
C352   N430    1.366   .     A
C352   C1251   1.414   1_545 S
C353   N429    1.365   .     A
C353   H390    1.074   .     S
C353   C795    1.414   .     S
C354   O439    1.386   .     S
Cu355  Cu356   2.677   .     S
Cu355  N429    2.012   .     S
Cu355  O446    1.978   .     S
Cu355  O431    1.978   .     S
Cu355  O444    1.978   .     S
Cu355  O448    1.978   .     S
Cu356  O445    1.978   .     S
Cu356  O442    1.978   .     S
Cu356  O447    1.978   .     S
Cu356  O449    1.978   .     S
Cu356  N430    2.012   .     S
H359   C1672   1.110   1_554 S
H362   C1674   1.111   .     S
H367   C1226   1.104   1_545 S
H380   C780    1.109   .     S
H383   C1232   1.104   1_545 S
H395   C787    1.108   .     S
H399   C39     1.110   1_655 S
H401   C1670   1.110   .     S
H402   C40     1.109   1_655 S
H421   C49     1.110   1_655 S
H422   C49     1.110   1_655 S
H425   C50     1.109   1_655 S
H427   C1671   1.111   1_554 S
C451   O595    1.289   .     A
C451   C469    1.461   .     S
C451   O581    1.296   .     A
C452   C468    1.409   .     A
C452   O590    1.384   .     S
C452   C604    1.386   .     S
C453   O591    1.386   .     S
C453   C468    1.416   .     A
C453   C654    1.390   .     S
C454   O593    1.384   .     S
C454   C469    1.409   .     A
C454   C752    1.386   1_455 S
C455   O600    1.383   .     S
C455   C459    1.398   .     A
C455   C466    1.413   .     A
C456   O582    1.382   .     S
C456   C467    1.410   .     A
C456   C460    1.397   .     A
C457   C461    1.398   .     A
C457   O583    1.383   .     S
C457   C467    1.413   .     A
C458   C463    1.397   .     A
C458   C466    1.410   .     A
C458   O584    1.382   .     S
C459   C464    1.418   .     A
C459   O585    1.386   .     S
C460   O586    1.383   .     S
C460   C465    1.415   .     A
C461   C465    1.418   .     A
C461   O587    1.386   .     S
C462   O592    1.289   .     A
C462   O594    1.296   .     A
C462   C468    1.461   .     S
C463   C464    1.415   .     A
C463   O588    1.383   .     S
C464   C473    1.481   .     S
C465   C484    1.481   .     S
C466   C1817   1.486   1_554 S
C467   C1816   1.486   .     S
C469   C504    1.416   .     A
C470   H562    1.111   .     S
C470   H573    1.108   .     S
C470   O600    1.411   .     S
C470   H1901   1.110   1_554 S
C471   O582    1.411   .     S
C471   H578    1.113   .     S
C471   H508    1.109   .     S
C471   H1927   1.111   .     S
C472   H510    1.111   .     S
C472   O583    1.411   .     S
C472   H511    1.108   .     S
C472   H1859   1.110   .     S
C473   O599    1.298   .     A
C473   O596    1.298   .     A
C474   H513    1.113   .     S
C474   O584    1.411   .     S
C474   H514    1.109   .     S
C474   H1862   1.111   1_554 S
C475   H515    1.111   .     S
C475   C476    1.534   .     S
C475   H516    1.118   .     S
C475   O585    1.422   .     S
C476   C477    1.523   .     S
C476   H519    1.106   .     S
C476   H967    1.104   .     S
C477   H520    1.107   .     S
C477   H521    1.110   .     S
C477   H522    1.109   .     S
C478   H524    1.113   .     S
C478   H523    1.109   .     S
C478   C479    1.536   .     S
C478   O586    1.421   .     S
C479   H526    1.107   .     S
C479   C480    1.526   .     S
C479   H525    1.110   .     S
C480   H527    1.110   .     S
C480   H528    1.110   .     S
C481   H532    1.118   .     S
C481   C482    1.534   .     S
C481   O587    1.422   .     S
C481   H531    1.111   .     S
C482   H534    1.106   .     S
C482   C483    1.523   .     S
C482   H983    1.104   .     S
C483   H536    1.110   .     S
C483   H535    1.107   .     S
C483   H537    1.109   .     S
C484   O598    1.298   .     A
C484   O597    1.298   .     A
C485   C486    1.536   .     S
C485   O588    1.421   .     S
C485   H538    1.109   .     S
C485   H539    1.113   .     S
C486   C487    1.526   .     S
C486   H542    1.107   .     S
C486   H541    1.110   .     S
C487   H543    1.109   .     S
C487   H544    1.110   .     S
C488   C489    1.535   .     S
C488   O589    1.420   .     S
C488   H547    1.117   .     S
C488   H546    1.112   .     S
C489   C490    1.526   .     S
C489   H548    1.112   .     S
C489   H849    1.110   1_455 S
C490   H550    1.112   .     S
C490   H553    1.109   .     S
C490   H852    1.109   1_455 S
C491   C492    1.544   .     S
C491   H555    1.112   .     S
C491   O590    1.425   .     S
C491   H554    1.110   .     S
C492   C493    1.523   .     S
C492   H706    1.110   .     S
C492   H707    1.110   .     S
C493   H560    1.110   .     S
C493   H558    1.111   .     S
C493   H709    1.109   .     S
C494   C496    1.535   .     S
C494   O591    1.420   .     S
C494   H563    1.117   .     S
C494   H561    1.111   .     S
C495   H507    1.081   .     S
C495   N580    1.366   .     A
C496   H564    1.112   .     S
C496   C497    1.526   .     S
C496   H715    1.110   .     S
C497   H568    1.109   .     S
C497   H566    1.111   .     S
C497   H717    1.108   .     S
C498   H570    1.112   .     S
C498   H569    1.110   .     S
C498   O593    1.425   .     S
C498   C499    1.544   .     S
C499   C500    1.523   .     S
C499   H871    1.110   1_455 S
C499   H872    1.110   1_455 S
C500   H576    1.110   .     S
C500   H574    1.110   .     S
C500   H875    1.109   1_455 S
C501   N579    1.365   .     A
C501   H518    1.074   .     S
C501   C952    1.414   .     S
C502   H529    1.081   .     S
C502   N580    1.366   .     A
C503   N579    1.365   .     A
C503   H540    1.074   .     S
C503   C945    1.414   .     S
C504   O589    1.386   .     S
C504   C753    1.390   1_455 S
Cu505  Cu506   2.677   .     S
Cu505  N579    2.012   .     S
Cu505  O596    1.978   .     S
Cu505  O581    1.978   .     S
Cu505  O594    1.978   .     S
Cu505  O598    1.978   .     S
Cu506  O595    1.978   .     S
Cu506  O592    1.978   .     S
Cu506  O597    1.978   .     S
Cu506  O599    1.978   .     S
Cu506  N580    2.012   .     S
H509   C1822   1.110   1_554 S
H512   C1824   1.111   .     S
H530   C930    1.109   .     S
H545   C937    1.108   .     S
H549   C639    1.110   .     S
H551   C1820   1.110   .     S
H552   C640    1.109   .     S
H556   C792    1.110   1_455 S
H557   C792    1.110   1_455 S
H559   C793    1.109   1_455 S
H565   C796    1.110   1_455 S
H567   C797    1.108   1_455 S
H571   C649    1.110   .     S
H572   C649    1.110   .     S
H575   C650    1.109   .     S
H577   C1821   1.111   1_554 S
C601   O745    1.289   .     A
C601   C619    1.461   .     S
C601   O731    1.296   .     A
C602   C618    1.409   .     A
C602   O740    1.384   .     S
C602   C754    1.386   .     S
C603   O741    1.386   .     S
C603   C618    1.416   .     A
C603   C804    1.390   .     S
C604   O743    1.384   .     S
C604   C619    1.409   .     A
C605   O750    1.383   .     S
C605   C609    1.398   .     A
C605   C616    1.413   .     A
C606   O732    1.382   .     S
C606   C617    1.410   .     A
C606   C610    1.397   .     A
C607   C611    1.398   .     A
C607   O733    1.383   .     S
C607   C617    1.413   .     A
C608   C613    1.397   .     A
C608   C616    1.410   .     A
C608   O734    1.382   .     S
C609   C614    1.418   .     A
C609   O735    1.386   .     S
C610   O736    1.383   .     S
C610   C615    1.415   .     A
C611   C615    1.418   .     A
C611   O737    1.386   .     S
C612   O742    1.289   .     A
C612   O744    1.296   .     A
C612   C618    1.461   .     S
C613   C614    1.415   .     A
C613   O738    1.383   .     S
C614   C623    1.481   .     S
C615   C634    1.481   .     S
C616   C1967   1.486   1_554 S
C617   C1966   1.486   .     S
C619   C654    1.416   .     A
C620   H712    1.111   .     S
C620   H723    1.108   .     S
C620   O750    1.411   .     S
C620   H2051   1.110   1_554 S
C621   O732    1.411   .     S
C621   H728    1.113   .     S
C621   H658    1.109   .     S
C621   H2077   1.111   .     S
C622   H660    1.111   .     S
C622   O733    1.411   .     S
C622   H661    1.108   .     S
C622   H2009   1.110   .     S
C623   O749    1.298   .     A
C623   O746    1.298   .     A
C624   H663    1.113   .     S
C624   O734    1.411   .     S
C624   H664    1.109   .     S
C624   H2012   1.111   1_554 S
C625   H665    1.111   .     S
C625   C626    1.534   .     S
C625   H666    1.118   .     S
C625   O735    1.422   .     S
C626   C627    1.523   .     S
C626   H669    1.106   .     S
C626   H1117   1.104   .     S
C627   H670    1.107   .     S
C627   H671    1.110   .     S
C627   H672    1.109   .     S
C628   H674    1.113   .     S
C628   H673    1.109   .     S
C628   C629    1.536   .     S
C628   O736    1.421   .     S
C629   H676    1.107   .     S
C629   C630    1.526   .     S
C629   H675    1.110   .     S
C630   H677    1.110   .     S
C630   H678    1.110   .     S
C631   H682    1.118   .     S
C631   C632    1.534   .     S
C631   O737    1.422   .     S
C631   H681    1.111   .     S
C632   H684    1.106   .     S
C632   C633    1.523   .     S
C632   H1133   1.104   .     S
C633   H686    1.110   .     S
C633   H685    1.107   .     S
C633   H687    1.109   .     S
C634   O748    1.298   .     A
C634   O747    1.298   .     A
C635   C636    1.536   .     S
C635   O738    1.421   .     S
C635   H688    1.109   .     S
C635   H689    1.113   .     S
C636   C637    1.526   .     S
C636   H692    1.107   .     S
C636   H691    1.110   .     S
C637   H693    1.109   .     S
C637   H694    1.110   .     S
C638   C639    1.535   .     S
C638   O739    1.420   .     S
C638   H697    1.117   .     S
C638   H696    1.112   .     S
C639   C640    1.526   .     S
C639   H698    1.112   .     S
C640   H700    1.112   .     S
C640   H703    1.109   .     S
C641   C642    1.544   .     S
C641   H705    1.112   .     S
C641   O740    1.425   .     S
C641   H704    1.110   .     S
C642   C643    1.523   .     S
C642   H856    1.110   .     S
C642   H857    1.110   .     S
C643   H710    1.110   .     S
C643   H708    1.111   .     S
C643   H859    1.109   .     S
C644   C646    1.535   .     S
C644   O741    1.420   .     S
C644   H713    1.117   .     S
C644   H711    1.111   .     S
C645   H657    1.081   .     S
C645   N730    1.366   .     A
C646   H714    1.112   .     S
C646   C647    1.526   .     S
C646   H865    1.110   .     S
C647   H718    1.109   .     S
C647   H716    1.111   .     S
C647   H867    1.108   .     S
C648   H720    1.112   .     S
C648   H719    1.110   .     S
C648   O743    1.425   .     S
C648   C649    1.544   .     S
C649   C650    1.523   .     S
C650   H726    1.110   .     S
C650   H724    1.110   .     S
C651   N729    1.365   .     A
C651   H668    1.074   .     S
C651   C1102   1.414   .     S
C652   H679    1.081   .     S
C652   N730    1.366   .     A
C653   N729    1.365   .     A
C653   H690    1.074   .     S
C653   C1095   1.414   .     S
C654   O739    1.386   .     S
Cu655  Cu656   2.677   .     S
Cu655  N729    2.012   .     S
Cu655  O746    1.978   .     S
Cu655  O731    1.978   .     S
Cu655  O744    1.978   .     S
Cu655  O748    1.978   .     S
Cu656  O745    1.978   .     S
Cu656  O742    1.978   .     S
Cu656  O747    1.978   .     S
Cu656  O749    1.978   .     S
Cu656  N730    2.012   .     S
H659   C1972   1.110   1_554 S
H662   C1974   1.111   .     S
H680   C1080   1.109   .     S
H695   C1087   1.108   .     S
H699   C789    1.110   .     S
H701   C1970   1.110   .     S
H702   C790    1.109   .     S
H721   C799    1.110   .     S
H722   C799    1.110   .     S
H725   C800    1.109   .     S
H727   C1971   1.111   1_554 S
C751   O895    1.289   .     A
C751   C769    1.461   .     S
C751   O881    1.296   .     A
C752   C768    1.409   .     A
C752   O890    1.384   .     S
C752   C454    1.386   1_655 S
C753   O891    1.386   .     S
C753   C768    1.416   .     A
C753   C504    1.390   1_655 S
C754   O893    1.384   .     S
C754   C769    1.409   .     A
C755   O900    1.383   .     S
C755   C759    1.398   .     A
C755   C766    1.413   .     A
C756   O882    1.382   .     S
C756   C767    1.410   .     A
C756   C760    1.397   .     A
C757   C761    1.398   .     A
C757   O883    1.383   .     S
C757   C767    1.413   .     A
C758   C763    1.397   .     A
C758   C766    1.410   .     A
C758   O884    1.382   .     S
C759   C764    1.418   .     A
C759   O885    1.386   .     S
C760   O886    1.383   .     S
C760   C765    1.415   .     A
C761   C765    1.418   .     A
C761   O887    1.386   .     S
C762   O892    1.289   .     A
C762   O894    1.296   .     A
C762   C768    1.461   .     S
C763   C764    1.415   .     A
C763   O888    1.383   .     S
C764   C773    1.481   .     S
C765   C784    1.481   .     S
C766   C2117   1.486   1_554 S
C767   C2116   1.486   .     S
C769   C804    1.416   .     A
C770   H862    1.111   .     S
C770   H873    1.108   .     S
C770   O900    1.411   .     S
C770   H2201   1.110   1_554 S
C771   O882    1.411   .     S
C771   H878    1.113   .     S
C771   H808    1.109   .     S
C771   H2227   1.111   .     S
C772   H810    1.111   .     S
C772   O883    1.411   .     S
C772   H811    1.108   .     S
C772   H2159   1.110   .     S
C773   O899    1.298   .     A
C773   O896    1.298   .     A
C774   H813    1.113   .     S
C774   O884    1.411   .     S
C774   H814    1.109   .     S
C774   H2162   1.111   1_554 S
C775   H815    1.111   .     S
C775   C776    1.534   .     S
C775   H816    1.118   .     S
C775   O885    1.422   .     S
C776   C777    1.523   .     S
C776   H819    1.106   .     S
C776   H1267   1.104   .     S
C777   H820    1.107   .     S
C777   H821    1.110   .     S
C777   H822    1.109   .     S
C778   H824    1.113   .     S
C778   H823    1.109   .     S
C778   C779    1.536   .     S
C778   O886    1.421   .     S
C779   H826    1.107   .     S
C779   C780    1.526   .     S
C779   H825    1.110   .     S
C780   H827    1.110   .     S
C780   H828    1.110   .     S
C781   H832    1.118   .     S
C781   C782    1.534   .     S
C781   O887    1.422   .     S
C781   H831    1.111   .     S
C782   H834    1.106   .     S
C782   C783    1.523   .     S
C782   H1283   1.104   .     S
C783   H836    1.110   .     S
C783   H835    1.107   .     S
C783   H837    1.109   .     S
C784   O898    1.298   .     A
C784   O897    1.298   .     A
C785   C786    1.536   .     S
C785   O888    1.421   .     S
C785   H838    1.109   .     S
C785   H839    1.113   .     S
C786   C787    1.526   .     S
C786   H842    1.107   .     S
C786   H841    1.110   .     S
C787   H843    1.109   .     S
C787   H844    1.110   .     S
C788   C789    1.535   .     S
C788   O889    1.420   .     S
C788   H847    1.117   .     S
C788   H846    1.112   .     S
C789   C790    1.526   .     S
C789   H848    1.112   .     S
C790   H850    1.112   .     S
C790   H853    1.109   .     S
C791   C792    1.544   .     S
C791   H855    1.112   .     S
C791   O890    1.425   .     S
C791   H854    1.110   .     S
C792   C793    1.523   .     S
C792   H556    1.110   1_655 S
C792   H557    1.110   1_655 S
C793   H860    1.110   .     S
C793   H858    1.111   .     S
C793   H559    1.109   1_655 S
C794   C796    1.535   .     S
C794   O891    1.420   .     S
C794   H863    1.117   .     S
C794   H861    1.111   .     S
C795   H807    1.081   .     S
C795   N880    1.366   .     A
C796   H864    1.112   .     S
C796   C797    1.526   .     S
C796   H565    1.110   1_655 S
C797   H868    1.109   .     S
C797   H866    1.111   .     S
C797   H567    1.108   1_655 S
C798   H870    1.112   .     S
C798   H869    1.110   .     S
C798   O893    1.425   .     S
C798   C799    1.544   .     S
C799   C800    1.523   .     S
C800   H876    1.110   .     S
C800   H874    1.110   .     S
C801   N879    1.365   .     A
C801   H818    1.074   .     S
C801   C1252   1.414   .     S
C802   H829    1.081   .     S
C802   N880    1.366   .     A
C803   N879    1.365   .     A
C803   H840    1.074   .     S
C803   C1245   1.414   .     S
C804   O889    1.386   .     S
Cu805  Cu806   2.677   .     S
Cu805  N879    2.012   .     S
Cu805  O896    1.978   .     S
Cu805  O881    1.978   .     S
Cu805  O894    1.978   .     S
Cu805  O898    1.978   .     S
Cu806  O895    1.978   .     S
Cu806  O892    1.978   .     S
Cu806  O897    1.978   .     S
Cu806  O899    1.978   .     S
Cu806  N880    2.012   .     S
H809   C2122   1.110   1_554 S
H812   C2124   1.111   .     S
H830   C1230   1.109   .     S
H845   C1237   1.108   .     S
H849   C489    1.110   1_655 S
H851   C2120   1.110   .     S
H852   C490    1.109   1_655 S
H871   C499    1.110   1_655 S
H872   C499    1.110   1_655 S
H875   C500    1.109   1_655 S
H877   C2121   1.111   1_554 S
C901   O1045   1.289   .     A
C901   C919    1.461   .     S
C901   O1031   1.296   .     A
C902   C918    1.409   .     A
C902   O1040   1.384   .     S
C902   C1054   1.386   .     S
C903   O1041   1.386   .     S
C903   C918    1.416   .     A
C903   C1104   1.390   .     S
C904   O1043   1.384   .     S
C904   C919    1.409   .     A
C904   C1202   1.386   1_455 S
C905   O1050   1.383   .     S
C905   C909    1.398   .     A
C905   C916    1.413   .     A
C906   O1032   1.382   .     S
C906   C917    1.410   .     A
C906   C910    1.397   .     A
C907   C911    1.398   .     A
C907   O1033   1.383   .     S
C907   C917    1.413   .     A
C908   C913    1.397   .     A
C908   C916    1.410   .     A
C908   O1034   1.382   .     S
C909   C914    1.418   .     A
C909   O1035   1.386   .     S
C910   O1036   1.383   .     S
C910   C915    1.415   .     A
C911   C915    1.418   .     A
C911   O1037   1.386   .     S
C912   O1042   1.289   .     A
C912   O1044   1.296   .     A
C912   C918    1.461   .     S
C913   C914    1.415   .     A
C913   O1038   1.383   .     S
C914   C923    1.481   .     S
C915   C934    1.481   .     S
C916   C2267   1.486   1_554 S
C917   C2266   1.486   .     S
C919   C954    1.416   .     A
C920   H1012   1.111   .     S
C920   H1023   1.108   .     S
C920   O1050   1.411   .     S
C920   H2351   1.110   1_554 S
C921   O1032   1.411   .     S
C921   H1028   1.113   .     S
C921   H958    1.109   .     S
C921   H2377   1.111   .     S
C922   H960    1.111   .     S
C922   O1033   1.411   .     S
C922   H961    1.108   .     S
C922   H2309   1.110   .     S
C923   O1049   1.298   .     A
C923   O1046   1.298   .     A
C924   H963    1.113   .     S
C924   O1034   1.411   .     S
C924   H964    1.109   .     S
C924   H2312   1.111   1_554 S
C925   H965    1.111   .     S
C925   C926    1.534   .     S
C925   H966    1.118   .     S
C925   O1035   1.422   .     S
C926   C927    1.523   .     S
C926   H969    1.106   .     S
C926   H67     1.104   1_565 S
C927   H970    1.107   .     S
C927   H971    1.110   .     S
C927   H972    1.109   .     S
C928   H974    1.113   .     S
C928   H973    1.109   .     S
C928   C929    1.536   .     S
C928   O1036   1.421   .     S
C929   H976    1.107   .     S
C929   C930    1.526   .     S
C929   H975    1.110   .     S
C930   H977    1.110   .     S
C930   H978    1.110   .     S
C931   H982    1.118   .     S
C931   C932    1.534   .     S
C931   O1037   1.422   .     S
C931   H981    1.111   .     S
C932   H984    1.106   .     S
C932   C933    1.523   .     S
C932   H83     1.104   1_565 S
C933   H986    1.110   .     S
C933   H985    1.107   .     S
C933   H987    1.109   .     S
C934   O1048   1.298   .     A
C934   O1047   1.298   .     A
C935   C936    1.536   .     S
C935   O1038   1.421   .     S
C935   H988    1.109   .     S
C935   H989    1.113   .     S
C936   C937    1.526   .     S
C936   H992    1.107   .     S
C936   H991    1.110   .     S
C937   H993    1.109   .     S
C937   H994    1.110   .     S
C938   C939    1.535   .     S
C938   O1039   1.420   .     S
C938   H997    1.117   .     S
C938   H996    1.112   .     S
C939   C940    1.526   .     S
C939   H998    1.112   .     S
C939   H1299   1.110   1_455 S
C940   H1000   1.112   .     S
C940   H1003   1.109   .     S
C940   H1302   1.109   1_455 S
C941   C942    1.544   .     S
C941   H1005   1.112   .     S
C941   O1040   1.425   .     S
C941   H1004   1.110   .     S
C942   C943    1.523   .     S
C942   H1156   1.110   .     S
C942   H1157   1.110   .     S
C943   H1010   1.110   .     S
C943   H1008   1.111   .     S
C943   H1159   1.109   .     S
C944   C946    1.535   .     S
C944   O1041   1.420   .     S
C944   H1013   1.117   .     S
C944   H1011   1.111   .     S
C945   H957    1.081   .     S
C945   N1030   1.366   .     A
C946   H1014   1.112   .     S
C946   C947    1.526   .     S
C946   H1165   1.110   .     S
C947   H1018   1.109   .     S
C947   H1016   1.111   .     S
C947   H1167   1.108   .     S
C948   H1020   1.112   .     S
C948   H1019   1.110   .     S
C948   O1043   1.425   .     S
C948   C949    1.544   .     S
C949   C950    1.523   .     S
C949   H1321   1.110   1_455 S
C949   H1322   1.110   1_455 S
C950   H1026   1.110   .     S
C950   H1024   1.110   .     S
C950   H1325   1.109   1_455 S
C951   N1029   1.365   .     A
C951   H968    1.074   .     S
C951   C52     1.414   1_565 S
C952   H979    1.081   .     S
C952   N1030   1.366   .     A
C953   N1029   1.365   .     A
C953   H990    1.074   .     S
C953   C45     1.414   1_565 S
C954   O1039   1.386   .     S
C954   C1203   1.390   1_455 S
Cu955  Cu956   2.677   .     S
Cu955  N1029   2.012   .     S
Cu955  O1046   1.978   .     S
Cu955  O1031   1.978   .     S
Cu955  O1044   1.978   .     S
Cu955  O1048   1.978   .     S
Cu956  O1045   1.978   .     S
Cu956  O1042   1.978   .     S
Cu956  O1047   1.978   .     S
Cu956  O1049   1.978   .     S
Cu956  N1030   2.012   .     S
H959   C2272   1.110   1_554 S
H962   C2274   1.111   .     S
H980   C30     1.109   1_565 S
H995   C37     1.108   1_565 S
H999   C1089   1.110   .     S
H1001  C2270   1.110   .     S
H1002  C1090   1.109   .     S
H1006  C1242   1.110   1_455 S
H1007  C1242   1.110   1_455 S
H1009  C1243   1.109   1_455 S
H1015  C1246   1.110   1_455 S
H1017  C1247   1.108   1_455 S
H1021  C1099   1.110   .     S
H1022  C1099   1.110   .     S
H1025  C1100   1.109   .     S
H1027  C2271   1.111   1_554 S
C1051  O1195   1.289   .     A
C1051  C1069   1.461   .     S
C1051  O1181   1.296   .     A
C1052  C1068   1.409   .     A
C1052  O1190   1.384   .     S
C1052  C1204   1.386   .     S
C1053  O1191   1.386   .     S
C1053  C1068   1.416   .     A
C1053  C1254   1.390   .     S
C1054  O1193   1.384   .     S
C1054  C1069   1.409   .     A
C1055  O1200   1.383   .     S
C1055  C1059   1.398   .     A
C1055  C1066   1.413   .     A
C1056  O1182   1.382   .     S
C1056  C1067   1.410   .     A
C1056  C1060   1.397   .     A
C1057  C1061   1.398   .     A
C1057  O1183   1.383   .     S
C1057  C1067   1.413   .     A
C1058  C1063   1.397   .     A
C1058  C1066   1.410   .     A
C1058  O1184   1.382   .     S
C1059  C1064   1.418   .     A
C1059  O1185   1.386   .     S
C1060  O1186   1.383   .     S
C1060  C1065   1.415   .     A
C1061  C1065   1.418   .     A
C1061  O1187   1.386   .     S
C1062  O1192   1.289   .     A
C1062  O1194   1.296   .     A
C1062  C1068   1.461   .     S
C1063  C1064   1.415   .     A
C1063  O1188   1.383   .     S
C1064  C1073   1.481   .     S
C1065  C1084   1.481   .     S
C1066  C2417   1.486   1_554 S
C1067  C2416   1.486   .     S
C1069  C1104   1.416   .     A
C1070  H1162   1.111   .     S
C1070  H1173   1.108   .     S
C1070  O1200   1.411   .     S
C1070  H2501   1.110   1_554 S
C1071  O1182   1.411   .     S
C1071  H1178   1.113   .     S
C1071  H1108   1.109   .     S
C1071  H2527   1.111   .     S
C1072  H1110   1.111   .     S
C1072  O1183   1.411   .     S
C1072  H1111   1.108   .     S
C1072  H2459   1.110   .     S
C1073  O1199   1.298   .     A
C1073  O1196   1.298   .     A
C1074  H1113   1.113   .     S
C1074  O1184   1.411   .     S
C1074  H1114   1.109   .     S
C1074  H2462   1.111   1_554 S
C1075  H1115   1.111   .     S
C1075  C1076   1.534   .     S
C1075  H1116   1.118   .     S
C1075  O1185   1.422   .     S
C1076  C1077   1.523   .     S
C1076  H1119   1.106   .     S
C1076  H217    1.104   1_565 S
C1077  H1120   1.107   .     S
C1077  H1121   1.110   .     S
C1077  H1122   1.109   .     S
C1078  H1124   1.113   .     S
C1078  H1123   1.109   .     S
C1078  C1079   1.536   .     S
C1078  O1186   1.421   .     S
C1079  H1126   1.107   .     S
C1079  C1080   1.526   .     S
C1079  H1125   1.110   .     S
C1080  H1127   1.110   .     S
C1080  H1128   1.110   .     S
C1081  H1132   1.118   .     S
C1081  C1082   1.534   .     S
C1081  O1187   1.422   .     S
C1081  H1131   1.111   .     S
C1082  H1134   1.106   .     S
C1082  C1083   1.523   .     S
C1082  H233    1.104   1_565 S
C1083  H1136   1.110   .     S
C1083  H1135   1.107   .     S
C1083  H1137   1.109   .     S
C1084  O1198   1.298   .     A
C1084  O1197   1.298   .     A
C1085  C1086   1.536   .     S
C1085  O1188   1.421   .     S
C1085  H1138   1.109   .     S
C1085  H1139   1.113   .     S
C1086  C1087   1.526   .     S
C1086  H1142   1.107   .     S
C1086  H1141   1.110   .     S
C1087  H1143   1.109   .     S
C1087  H1144   1.110   .     S
C1088  C1089   1.535   .     S
C1088  O1189   1.420   .     S
C1088  H1147   1.117   .     S
C1088  H1146   1.112   .     S
C1089  C1090   1.526   .     S
C1089  H1148   1.112   .     S
C1090  H1150   1.112   .     S
C1090  H1153   1.109   .     S
C1091  C1092   1.544   .     S
C1091  H1155   1.112   .     S
C1091  O1190   1.425   .     S
C1091  H1154   1.110   .     S
C1092  C1093   1.523   .     S
C1092  H1306   1.110   .     S
C1092  H1307   1.110   .     S
C1093  H1160   1.110   .     S
C1093  H1158   1.111   .     S
C1093  H1309   1.109   .     S
C1094  C1096   1.535   .     S
C1094  O1191   1.420   .     S
C1094  H1163   1.117   .     S
C1094  H1161   1.111   .     S
C1095  H1107   1.081   .     S
C1095  N1180   1.366   .     A
C1096  H1164   1.112   .     S
C1096  C1097   1.526   .     S
C1096  H1315   1.110   .     S
C1097  H1168   1.109   .     S
C1097  H1166   1.111   .     S
C1097  H1317   1.108   .     S
C1098  H1170   1.112   .     S
C1098  H1169   1.110   .     S
C1098  O1193   1.425   .     S
C1098  C1099   1.544   .     S
C1099  C1100   1.523   .     S
C1100  H1176   1.110   .     S
C1100  H1174   1.110   .     S
C1101  N1179   1.365   .     A
C1101  H1118   1.074   .     S
C1101  C202    1.414   1_565 S
C1102  H1129   1.081   .     S
C1102  N1180   1.366   .     A
C1103  N1179   1.365   .     A
C1103  H1140   1.074   .     S
C1103  C195    1.414   1_565 S
C1104  O1189   1.386   .     S
Cu1105 Cu1106  2.677   .     S
Cu1105 N1179   2.012   .     S
Cu1105 O1196   1.978   .     S
Cu1105 O1181   1.978   .     S
Cu1105 O1194   1.978   .     S
Cu1105 O1198   1.978   .     S
Cu1106 O1195   1.978   .     S
Cu1106 O1192   1.978   .     S
Cu1106 O1197   1.978   .     S
Cu1106 O1199   1.978   .     S
Cu1106 N1180   2.012   .     S
H1109  C2422   1.110   1_554 S
H1112  C2424   1.111   .     S
H1130  C180    1.109   1_565 S
H1145  C187    1.108   1_565 S
H1149  C1239   1.110   .     S
H1151  C2420   1.110   .     S
H1152  C1240   1.109   .     S
H1171  C1249   1.110   .     S
H1172  C1249   1.110   .     S
H1175  C1250   1.109   .     S
H1177  C2421   1.111   1_554 S
C1201  O1345   1.289   .     A
C1201  C1219   1.461   .     S
C1201  O1331   1.296   .     A
C1202  C1218   1.409   .     A
C1202  O1340   1.384   .     S
C1202  C904    1.386   1_655 S
C1203  O1341   1.386   .     S
C1203  C1218   1.416   .     A
C1203  C954    1.390   1_655 S
C1204  O1343   1.384   .     S
C1204  C1219   1.409   .     A
C1205  O1350   1.383   .     S
C1205  C1209   1.398   .     A
C1205  C1216   1.413   .     A
C1206  O1332   1.382   .     S
C1206  C1217   1.410   .     A
C1206  C1210   1.397   .     A
C1207  C1211   1.398   .     A
C1207  O1333   1.383   .     S
C1207  C1217   1.413   .     A
C1208  C1213   1.397   .     A
C1208  C1216   1.410   .     A
C1208  O1334   1.382   .     S
C1209  C1214   1.418   .     A
C1209  O1335   1.386   .     S
C1210  O1336   1.383   .     S
C1210  C1215   1.415   .     A
C1211  C1215   1.418   .     A
C1211  O1337   1.386   .     S
C1212  O1342   1.289   .     A
C1212  O1344   1.296   .     A
C1212  C1218   1.461   .     S
C1213  C1214   1.415   .     A
C1213  O1338   1.383   .     S
C1214  C1223   1.481   .     S
C1215  C1234   1.481   .     S
C1216  C2567   1.486   1_554 S
C1217  C2566   1.486   .     S
C1219  C1254   1.416   .     A
C1220  H1312   1.111   .     S
C1220  H1323   1.108   .     S
C1220  O1350   1.411   .     S
C1220  H2651   1.110   1_554 S
C1221  O1332   1.411   .     S
C1221  H1328   1.113   .     S
C1221  H1258   1.109   .     S
C1221  H2677   1.111   .     S
C1222  H1260   1.111   .     S
C1222  O1333   1.411   .     S
C1222  H1261   1.108   .     S
C1222  H2609   1.110   .     S
C1223  O1349   1.298   .     A
C1223  O1346   1.298   .     A
C1224  H1263   1.113   .     S
C1224  O1334   1.411   .     S
C1224  H1264   1.109   .     S
C1224  H2612   1.111   1_554 S
C1225  H1265   1.111   .     S
C1225  C1226   1.534   .     S
C1225  H1266   1.118   .     S
C1225  O1335   1.422   .     S
C1226  C1227   1.523   .     S
C1226  H1269   1.106   .     S
C1226  H367    1.104   1_565 S
C1227  H1270   1.107   .     S
C1227  H1271   1.110   .     S
C1227  H1272   1.109   .     S
C1228  H1274   1.113   .     S
C1228  H1273   1.109   .     S
C1228  C1229   1.536   .     S
C1228  O1336   1.421   .     S
C1229  H1276   1.107   .     S
C1229  C1230   1.526   .     S
C1229  H1275   1.110   .     S
C1230  H1277   1.110   .     S
C1230  H1278   1.110   .     S
C1231  H1282   1.118   .     S
C1231  C1232   1.534   .     S
C1231  O1337   1.422   .     S
C1231  H1281   1.111   .     S
C1232  H1284   1.106   .     S
C1232  C1233   1.523   .     S
C1232  H383    1.104   1_565 S
C1233  H1286   1.110   .     S
C1233  H1285   1.107   .     S
C1233  H1287   1.109   .     S
C1234  O1348   1.298   .     A
C1234  O1347   1.298   .     A
C1235  C1236   1.536   .     S
C1235  O1338   1.421   .     S
C1235  H1288   1.109   .     S
C1235  H1289   1.113   .     S
C1236  C1237   1.526   .     S
C1236  H1292   1.107   .     S
C1236  H1291   1.110   .     S
C1237  H1293   1.109   .     S
C1237  H1294   1.110   .     S
C1238  C1239   1.535   .     S
C1238  O1339   1.420   .     S
C1238  H1297   1.117   .     S
C1238  H1296   1.112   .     S
C1239  C1240   1.526   .     S
C1239  H1298   1.112   .     S
C1240  H1300   1.112   .     S
C1240  H1303   1.109   .     S
C1241  C1242   1.544   .     S
C1241  H1305   1.112   .     S
C1241  O1340   1.425   .     S
C1241  H1304   1.110   .     S
C1242  C1243   1.523   .     S
C1242  H1006   1.110   1_655 S
C1242  H1007   1.110   1_655 S
C1243  H1310   1.110   .     S
C1243  H1308   1.111   .     S
C1243  H1009   1.109   1_655 S
C1244  C1246   1.535   .     S
C1244  O1341   1.420   .     S
C1244  H1313   1.117   .     S
C1244  H1311   1.111   .     S
C1245  H1257   1.081   .     S
C1245  N1330   1.366   .     A
C1246  H1314   1.112   .     S
C1246  C1247   1.526   .     S
C1246  H1015   1.110   1_655 S
C1247  H1318   1.109   .     S
C1247  H1316   1.111   .     S
C1247  H1017   1.108   1_655 S
C1248  H1320   1.112   .     S
C1248  H1319   1.110   .     S
C1248  O1343   1.425   .     S
C1248  C1249   1.544   .     S
C1249  C1250   1.523   .     S
C1250  H1326   1.110   .     S
C1250  H1324   1.110   .     S
C1251  N1329   1.365   .     A
C1251  H1268   1.074   .     S
C1251  C352    1.414   1_565 S
C1252  H1279   1.081   .     S
C1252  N1330   1.366   .     A
C1253  N1329   1.365   .     A
C1253  H1290   1.074   .     S
C1253  C345    1.414   1_565 S
C1254  O1339   1.386   .     S
Cu1255 Cu1256  2.677   .     S
Cu1255 N1329   2.012   .     S
Cu1255 O1346   1.978   .     S
Cu1255 O1331   1.978   .     S
Cu1255 O1344   1.978   .     S
Cu1255 O1348   1.978   .     S
Cu1256 O1345   1.978   .     S
Cu1256 O1342   1.978   .     S
Cu1256 O1347   1.978   .     S
Cu1256 O1349   1.978   .     S
Cu1256 N1330   2.012   .     S
H1259  C2572   1.110   1_554 S
H1262  C2574   1.111   .     S
H1280  C330    1.109   1_565 S
H1295  C337    1.108   1_565 S
H1299  C939    1.110   1_655 S
H1301  C2570   1.110   .     S
H1302  C940    1.109   1_655 S
H1321  C949    1.110   1_655 S
H1322  C949    1.110   1_655 S
H1325  C950    1.109   1_655 S
H1327  C2571   1.111   1_554 S
C1351  O1495   1.289   .     A
C1351  C1369   1.461   .     S
C1351  O1481   1.296   .     A
C1352  C1368   1.409   .     A
C1352  O1490   1.384   .     S
C1352  C1504   1.386   .     S
C1353  O1491   1.386   .     S
C1353  C1368   1.416   .     A
C1353  C1554   1.390   .     S
C1354  O1493   1.384   .     S
C1354  C1369   1.409   .     A
C1354  C1652   1.386   1_455 S
C1355  O1500   1.383   .     S
C1355  C1359   1.398   .     A
C1355  C1366   1.413   .     A
C1356  O1482   1.382   .     S
C1356  C1367   1.410   .     A
C1356  C1360   1.397   .     A
C1357  C1361   1.398   .     A
C1357  O1483   1.383   .     S
C1357  C1367   1.413   .     A
C1358  C1363   1.397   .     A
C1358  C1366   1.410   .     A
C1358  O1484   1.382   .     S
C1359  C1364   1.418   .     A
C1359  O1485   1.386   .     S
C1360  O1486   1.383   .     S
C1360  C1365   1.415   .     A
C1361  C1365   1.418   .     A
C1361  O1487   1.386   .     S
C1362  O1492   1.289   .     A
C1362  O1494   1.296   .     A
C1362  C1368   1.461   .     S
C1363  C1364   1.415   .     A
C1363  O1488   1.383   .     S
C1364  C1373   1.481   .     S
C1365  C1384   1.481   .     S
C1367  C16     1.486   1_556 S
C1369  C1404   1.416   .     A
C1370  H1462   1.111   .     S
C1370  H1473   1.108   .     S
C1370  O1500   1.411   .     S
C1371  O1482   1.411   .     S
C1371  H1478   1.113   .     S
C1371  H1408   1.109   .     S
C1371  H127    1.111   1_556 S
C1372  H1410   1.111   .     S
C1372  O1483   1.411   .     S
C1372  H1411   1.108   .     S
C1372  H59     1.110   1_556 S
C1373  O1499   1.298   .     A
C1373  O1496   1.298   .     A
C1374  H1413   1.113   .     S
C1374  O1484   1.411   .     S
C1374  H1414   1.109   .     S
C1375  H1415   1.111   .     S
C1375  C1376   1.534   .     S
C1375  H1416   1.118   .     S
C1375  O1485   1.422   .     S
C1376  C1377   1.523   .     S
C1376  H1419   1.106   .     S
C1376  H1867   1.104   .     S
C1377  H1420   1.107   .     S
C1377  H1421   1.110   .     S
C1377  H1422   1.109   .     S
C1378  H1424   1.113   .     S
C1378  H1423   1.109   .     S
C1378  C1379   1.536   .     S
C1378  O1486   1.421   .     S
C1379  H1426   1.107   .     S
C1379  C1380   1.526   .     S
C1379  H1425   1.110   .     S
C1380  H1427   1.110   .     S
C1380  H1428   1.110   .     S
C1380  H2330   1.109   1_545 S
C1381  H1432   1.118   .     S
C1381  C1382   1.534   .     S
C1381  O1487   1.422   .     S
C1381  H1431   1.111   .     S
C1382  H1434   1.106   .     S
C1382  C1383   1.523   .     S
C1382  H1883   1.104   .     S
C1383  H1436   1.110   .     S
C1383  H1435   1.107   .     S
C1383  H1437   1.109   .     S
C1384  O1498   1.298   .     A
C1384  O1497   1.298   .     A
C1385  C1386   1.536   .     S
C1385  O1488   1.421   .     S
C1385  H1438   1.109   .     S
C1385  H1439   1.113   .     S
C1386  C1387   1.526   .     S
C1386  H1442   1.107   .     S
C1386  H1441   1.110   .     S
C1387  H1443   1.109   .     S
C1387  H1444   1.110   .     S
C1387  H2345   1.108   1_545 S
C1388  C1389   1.535   .     S
C1388  O1489   1.420   .     S
C1388  H1447   1.117   .     S
C1388  H1446   1.112   .     S
C1389  C1390   1.526   .     S
C1389  H1448   1.112   .     S
C1389  H1749   1.110   1_455 S
C1390  H1450   1.112   .     S
C1390  H1453   1.109   .     S
C1390  H1752   1.109   1_455 S
C1391  C1392   1.544   .     S
C1391  H1455   1.112   .     S
C1391  O1490   1.425   .     S
C1391  H1454   1.110   .     S
C1392  C1393   1.523   .     S
C1392  H1606   1.110   .     S
C1392  H1607   1.110   .     S
C1393  H1460   1.110   .     S
C1393  H1458   1.111   .     S
C1393  H1609   1.109   .     S
C1394  C1396   1.535   .     S
C1394  O1491   1.420   .     S
C1394  H1463   1.117   .     S
C1394  H1461   1.111   .     S
C1395  H1407   1.081   .     S
C1395  N1480   1.366   .     A
C1395  C2303   1.414   1_545 S
C1396  H1464   1.112   .     S
C1396  C1397   1.526   .     S
C1396  H1615   1.110   .     S
C1397  H1468   1.109   .     S
C1397  H1466   1.111   .     S
C1397  H1617   1.108   .     S
C1398  H1470   1.112   .     S
C1398  H1469   1.110   .     S
C1398  O1493   1.425   .     S
C1398  C1399   1.544   .     S
C1399  C1400   1.523   .     S
C1399  H1771   1.110   1_455 S
C1399  H1772   1.110   1_455 S
C1400  H1476   1.110   .     S
C1400  H1474   1.110   .     S
C1400  H1775   1.109   1_455 S
C1401  N1479   1.365   .     A
C1401  H1418   1.074   .     S
C1401  C1852   1.414   .     S
C1402  H1429   1.081   .     S
C1402  N1480   1.366   .     A
C1402  C2301   1.414   1_545 S
C1403  N1479   1.365   .     A
C1403  H1440   1.074   .     S
C1403  C1845   1.414   .     S
C1404  O1489   1.386   .     S
C1404  C1653   1.390   1_455 S
Cu1405 Cu1406  2.677   .     S
Cu1405 N1479   2.012   .     S
Cu1405 O1496   1.978   .     S
Cu1405 O1481   1.978   .     S
Cu1405 O1494   1.978   .     S
Cu1405 O1498   1.978   .     S
Cu1406 O1495   1.978   .     S
Cu1406 O1492   1.978   .     S
Cu1406 O1497   1.978   .     S
Cu1406 O1499   1.978   .     S
Cu1406 N1480   2.012   .     S
H1412  C24     1.111   1_556 S
H1417  C2276   1.104   1_545 S
H1430  C1830   1.109   .     S
H1433  C2282   1.104   1_545 S
H1445  C1837   1.108   .     S
H1449  C1539   1.110   .     S
H1451  C20     1.110   1_556 S
H1452  C1540   1.109   .     S
H1456  C1692   1.110   1_455 S
H1457  C1692   1.110   1_455 S
H1459  C1693   1.109   1_455 S
H1465  C1696   1.110   1_455 S
H1467  C1697   1.108   1_455 S
H1471  C1549   1.110   .     S
H1472  C1549   1.110   .     S
H1475  C1550   1.109   .     S
C1501  O1645   1.289   .     A
C1501  C1519   1.461   .     S
C1501  O1631   1.296   .     A
C1502  C1518   1.409   .     A
C1502  O1640   1.384   .     S
C1502  C1654   1.386   .     S
C1503  O1641   1.386   .     S
C1503  C1518   1.416   .     A
C1503  C1704   1.390   .     S
C1504  O1643   1.384   .     S
C1504  C1519   1.409   .     A
C1505  O1650   1.383   .     S
C1505  C1509   1.398   .     A
C1505  C1516   1.413   .     A
C1506  O1632   1.382   .     S
C1506  C1517   1.410   .     A
C1506  C1510   1.397   .     A
C1507  C1511   1.398   .     A
C1507  O1633   1.383   .     S
C1507  C1517   1.413   .     A
C1508  C1513   1.397   .     A
C1508  C1516   1.410   .     A
C1508  O1634   1.382   .     S
C1509  C1514   1.418   .     A
C1509  O1635   1.386   .     S
C1510  O1636   1.383   .     S
C1510  C1515   1.415   .     A
C1511  C1515   1.418   .     A
C1511  O1637   1.386   .     S
C1512  O1642   1.289   .     A
C1512  O1644   1.296   .     A
C1512  C1518   1.461   .     S
C1513  C1514   1.415   .     A
C1513  O1638   1.383   .     S
C1514  C1523   1.481   .     S
C1515  C1534   1.481   .     S
C1517  C166    1.486   1_556 S
C1519  C1554   1.416   .     A
C1520  H1612   1.111   .     S
C1520  H1623   1.108   .     S
C1520  O1650   1.411   .     S
C1521  O1632   1.411   .     S
C1521  H1628   1.113   .     S
C1521  H1558   1.109   .     S
C1521  H277    1.111   1_556 S
C1522  H1560   1.111   .     S
C1522  O1633   1.411   .     S
C1522  H1561   1.108   .     S
C1522  H209    1.110   1_556 S
C1523  O1649   1.298   .     A
C1523  O1646   1.298   .     A
C1524  H1563   1.113   .     S
C1524  O1634   1.411   .     S
C1524  H1564   1.109   .     S
C1525  H1565   1.111   .     S
C1525  C1526   1.534   .     S
C1525  H1566   1.118   .     S
C1525  O1635   1.422   .     S
C1526  C1527   1.523   .     S
C1526  H1569   1.106   .     S
C1526  H2017   1.104   .     S
C1527  H1570   1.107   .     S
C1527  H1571   1.110   .     S
C1527  H1572   1.109   .     S
C1528  H1574   1.113   .     S
C1528  H1573   1.109   .     S
C1528  C1529   1.536   .     S
C1528  O1636   1.421   .     S
C1529  H1576   1.107   .     S
C1529  C1530   1.526   .     S
C1529  H1575   1.110   .     S
C1530  H1577   1.110   .     S
C1530  H1578   1.110   .     S
C1530  H2480   1.109   1_545 S
C1531  H1582   1.118   .     S
C1531  C1532   1.534   .     S
C1531  O1637   1.422   .     S
C1531  H1581   1.111   .     S
C1532  H1584   1.106   .     S
C1532  C1533   1.523   .     S
C1532  H2033   1.104   .     S
C1533  H1586   1.110   .     S
C1533  H1585   1.107   .     S
C1533  H1587   1.109   .     S
C1534  O1648   1.298   .     A
C1534  O1647   1.298   .     A
C1535  C1536   1.536   .     S
C1535  O1638   1.421   .     S
C1535  H1588   1.109   .     S
C1535  H1589   1.113   .     S
C1536  C1537   1.526   .     S
C1536  H1592   1.107   .     S
C1536  H1591   1.110   .     S
C1537  H1593   1.109   .     S
C1537  H1594   1.110   .     S
C1537  H2495   1.108   1_545 S
C1538  C1539   1.535   .     S
C1538  O1639   1.420   .     S
C1538  H1597   1.117   .     S
C1538  H1596   1.112   .     S
C1539  C1540   1.526   .     S
C1539  H1598   1.112   .     S
C1540  H1600   1.112   .     S
C1540  H1603   1.109   .     S
C1541  C1542   1.544   .     S
C1541  H1605   1.112   .     S
C1541  O1640   1.425   .     S
C1541  H1604   1.110   .     S
C1542  C1543   1.523   .     S
C1542  H1756   1.110   .     S
C1542  H1757   1.110   .     S
C1543  H1610   1.110   .     S
C1543  H1608   1.111   .     S
C1543  H1759   1.109   .     S
C1544  C1546   1.535   .     S
C1544  O1641   1.420   .     S
C1544  H1613   1.117   .     S
C1544  H1611   1.111   .     S
C1545  H1557   1.081   .     S
C1545  N1630   1.366   .     A
C1545  C2453   1.414   1_545 S
C1546  H1614   1.112   .     S
C1546  C1547   1.526   .     S
C1546  H1765   1.110   .     S
C1547  H1618   1.109   .     S
C1547  H1616   1.111   .     S
C1547  H1767   1.108   .     S
C1548  H1620   1.112   .     S
C1548  H1619   1.110   .     S
C1548  O1643   1.425   .     S
C1548  C1549   1.544   .     S
C1549  C1550   1.523   .     S
C1550  H1626   1.110   .     S
C1550  H1624   1.110   .     S
C1551  N1629   1.365   .     A
C1551  H1568   1.074   .     S
C1551  C2002   1.414   .     S
C1552  H1579   1.081   .     S
C1552  N1630   1.366   .     A
C1552  C2451   1.414   1_545 S
C1553  N1629   1.365   .     A
C1553  H1590   1.074   .     S
C1553  C1995   1.414   .     S
C1554  O1639   1.386   .     S
Cu1555 Cu1556  2.677   .     S
Cu1555 N1629   2.012   .     S
Cu1555 O1646   1.978   .     S
Cu1555 O1631   1.978   .     S
Cu1555 O1644   1.978   .     S
Cu1555 O1648   1.978   .     S
Cu1556 O1645   1.978   .     S
Cu1556 O1642   1.978   .     S
Cu1556 O1647   1.978   .     S
Cu1556 O1649   1.978   .     S
Cu1556 N1630   2.012   .     S
H1562  C174    1.111   1_556 S
H1567  C2426   1.104   1_545 S
H1580  C1980   1.109   .     S
H1583  C2432   1.104   1_545 S
H1595  C1987   1.108   .     S
H1599  C1689   1.110   .     S
H1601  C170    1.110   1_556 S
H1602  C1690   1.109   .     S
H1621  C1699   1.110   .     S
H1622  C1699   1.110   .     S
H1625  C1700   1.109   .     S
C1651  O1795   1.289   .     A
C1651  C1669   1.461   .     S
C1651  O1781   1.296   .     A
C1652  C1668   1.409   .     A
C1652  O1790   1.384   .     S
C1652  C1354   1.386   1_655 S
C1653  O1791   1.386   .     S
C1653  C1668   1.416   .     A
C1653  C1404   1.390   1_655 S
C1654  O1793   1.384   .     S
C1654  C1669   1.409   .     A
C1655  O1800   1.383   .     S
C1655  C1659   1.398   .     A
C1655  C1666   1.413   .     A
C1656  O1782   1.382   .     S
C1656  C1667   1.410   .     A
C1656  C1660   1.397   .     A
C1657  C1661   1.398   .     A
C1657  O1783   1.383   .     S
C1657  C1667   1.413   .     A
C1658  C1663   1.397   .     A
C1658  C1666   1.410   .     A
C1658  O1784   1.382   .     S
C1659  C1664   1.418   .     A
C1659  O1785   1.386   .     S
C1660  O1786   1.383   .     S
C1660  C1665   1.415   .     A
C1661  C1665   1.418   .     A
C1661  O1787   1.386   .     S
C1662  O1792   1.289   .     A
C1662  O1794   1.296   .     A
C1662  C1668   1.461   .     S
C1663  C1664   1.415   .     A
C1663  O1788   1.383   .     S
C1664  C1673   1.481   .     S
C1665  C1684   1.481   .     S
C1667  C316    1.486   1_556 S
C1669  C1704   1.416   .     A
C1670  H1762   1.111   .     S
C1670  H1773   1.108   .     S
C1670  O1800   1.411   .     S
C1671  O1782   1.411   .     S
C1671  H1778   1.113   .     S
C1671  H1708   1.109   .     S
C1671  H427    1.111   1_556 S
C1672  H1710   1.111   .     S
C1672  O1783   1.411   .     S
C1672  H1711   1.108   .     S
C1672  H359    1.110   1_556 S
C1673  O1799   1.298   .     A
C1673  O1796   1.298   .     A
C1674  H1713   1.113   .     S
C1674  O1784   1.411   .     S
C1674  H1714   1.109   .     S
C1675  H1715   1.111   .     S
C1675  C1676   1.534   .     S
C1675  H1716   1.118   .     S
C1675  O1785   1.422   .     S
C1676  C1677   1.523   .     S
C1676  H1719   1.106   .     S
C1676  H2167   1.104   .     S
C1677  H1720   1.107   .     S
C1677  H1721   1.110   .     S
C1677  H1722   1.109   .     S
C1678  H1724   1.113   .     S
C1678  H1723   1.109   .     S
C1678  C1679   1.536   .     S
C1678  O1786   1.421   .     S
C1679  H1726   1.107   .     S
C1679  C1680   1.526   .     S
C1679  H1725   1.110   .     S
C1680  H1727   1.110   .     S
C1680  H1728   1.110   .     S
C1680  H2630   1.109   1_545 S
C1681  H1732   1.118   .     S
C1681  C1682   1.534   .     S
C1681  O1787   1.422   .     S
C1681  H1731   1.111   .     S
C1682  H1734   1.106   .     S
C1682  C1683   1.523   .     S
C1682  H2183   1.104   .     S
C1683  H1736   1.110   .     S
C1683  H1735   1.107   .     S
C1683  H1737   1.109   .     S
C1684  O1798   1.298   .     A
C1684  O1797   1.298   .     A
C1685  C1686   1.536   .     S
C1685  O1788   1.421   .     S
C1685  H1738   1.109   .     S
C1685  H1739   1.113   .     S
C1686  C1687   1.526   .     S
C1686  H1742   1.107   .     S
C1686  H1741   1.110   .     S
C1687  H1743   1.109   .     S
C1687  H1744   1.110   .     S
C1687  H2645   1.108   1_545 S
C1688  C1689   1.535   .     S
C1688  O1789   1.420   .     S
C1688  H1747   1.117   .     S
C1688  H1746   1.112   .     S
C1689  C1690   1.526   .     S
C1689  H1748   1.112   .     S
C1690  H1750   1.112   .     S
C1690  H1753   1.109   .     S
C1691  C1692   1.544   .     S
C1691  H1755   1.112   .     S
C1691  O1790   1.425   .     S
C1691  H1754   1.110   .     S
C1692  C1693   1.523   .     S
C1692  H1456   1.110   1_655 S
C1692  H1457   1.110   1_655 S
C1693  H1760   1.110   .     S
C1693  H1758   1.111   .     S
C1693  H1459   1.109   1_655 S
C1694  C1696   1.535   .     S
C1694  O1791   1.420   .     S
C1694  H1763   1.117   .     S
C1694  H1761   1.111   .     S
C1695  H1707   1.081   .     S
C1695  N1780   1.366   .     A
C1695  C2603   1.414   1_545 S
C1696  H1764   1.112   .     S
C1696  C1697   1.526   .     S
C1696  H1465   1.110   1_655 S
C1697  H1768   1.109   .     S
C1697  H1766   1.111   .     S
C1697  H1467   1.108   1_655 S
C1698  H1770   1.112   .     S
C1698  H1769   1.110   .     S
C1698  O1793   1.425   .     S
C1698  C1699   1.544   .     S
C1699  C1700   1.523   .     S
C1700  H1776   1.110   .     S
C1700  H1774   1.110   .     S
C1701  N1779   1.365   .     A
C1701  H1718   1.074   .     S
C1701  C2152   1.414   .     S
C1702  H1729   1.081   .     S
C1702  N1780   1.366   .     A
C1702  C2601   1.414   1_545 S
C1703  N1779   1.365   .     A
C1703  H1740   1.074   .     S
C1703  C2145   1.414   .     S
C1704  O1789   1.386   .     S
Cu1705 Cu1706  2.677   .     S
Cu1705 N1779   2.012   .     S
Cu1705 O1796   1.978   .     S
Cu1705 O1781   1.978   .     S
Cu1705 O1794   1.978   .     S
Cu1705 O1798   1.978   .     S
Cu1706 O1795   1.978   .     S
Cu1706 O1792   1.978   .     S
Cu1706 O1797   1.978   .     S
Cu1706 O1799   1.978   .     S
Cu1706 N1780   2.012   .     S
H1712  C324    1.111   1_556 S
H1717  C2576   1.104   1_545 S
H1730  C2130   1.109   .     S
H1733  C2582   1.104   1_545 S
H1745  C2137   1.108   .     S
H1749  C1389   1.110   1_655 S
H1751  C320    1.110   1_556 S
H1752  C1390   1.109   1_655 S
H1771  C1399   1.110   1_655 S
H1772  C1399   1.110   1_655 S
H1775  C1400   1.109   1_655 S
C1801  O1945   1.289   .     A
C1801  C1819   1.461   .     S
C1801  O1931   1.296   .     A
C1802  C1818   1.409   .     A
C1802  O1940   1.384   .     S
C1802  C1954   1.386   .     S
C1803  O1941   1.386   .     S
C1803  C1818   1.416   .     A
C1803  C2004   1.390   .     S
C1804  O1943   1.384   .     S
C1804  C1819   1.409   .     A
C1804  C2102   1.386   1_455 S
C1805  O1950   1.383   .     S
C1805  C1809   1.398   .     A
C1805  C1816   1.413   .     A
C1806  O1932   1.382   .     S
C1806  C1817   1.410   .     A
C1806  C1810   1.397   .     A
C1807  C1811   1.398   .     A
C1807  O1933   1.383   .     S
C1807  C1817   1.413   .     A
C1808  C1813   1.397   .     A
C1808  C1816   1.410   .     A
C1808  O1934   1.382   .     S
C1809  C1814   1.418   .     A
C1809  O1935   1.386   .     S
C1810  O1936   1.383   .     S
C1810  C1815   1.415   .     A
C1811  C1815   1.418   .     A
C1811  O1937   1.386   .     S
C1812  O1942   1.289   .     A
C1812  O1944   1.296   .     A
C1812  C1818   1.461   .     S
C1813  C1814   1.415   .     A
C1813  O1938   1.383   .     S
C1814  C1823   1.481   .     S
C1815  C1834   1.481   .     S
C1817  C466    1.486   1_556 S
C1819  C1854   1.416   .     A
C1820  H1912   1.111   .     S
C1820  H1923   1.108   .     S
C1820  O1950   1.411   .     S
C1821  O1932   1.411   .     S
C1821  H1928   1.113   .     S
C1821  H1858   1.109   .     S
C1821  H577    1.111   1_556 S
C1822  H1860   1.111   .     S
C1822  O1933   1.411   .     S
C1822  H1861   1.108   .     S
C1822  H509    1.110   1_556 S
C1823  O1949   1.298   .     A
C1823  O1946   1.298   .     A
C1824  H1863   1.113   .     S
C1824  O1934   1.411   .     S
C1824  H1864   1.109   .     S
C1825  H1865   1.111   .     S
C1825  C1826   1.534   .     S
C1825  H1866   1.118   .     S
C1825  O1935   1.422   .     S
C1826  C1827   1.523   .     S
C1826  H1869   1.106   .     S
C1826  H2317   1.104   .     S
C1827  H1870   1.107   .     S
C1827  H1871   1.110   .     S
C1827  H1872   1.109   .     S
C1828  H1874   1.113   .     S
C1828  H1873   1.109   .     S
C1828  C1829   1.536   .     S
C1828  O1936   1.421   .     S
C1829  H1876   1.107   .     S
C1829  C1830   1.526   .     S
C1829  H1875   1.110   .     S
C1830  H1877   1.110   .     S
C1830  H1878   1.110   .     S
C1831  H1882   1.118   .     S
C1831  C1832   1.534   .     S
C1831  O1937   1.422   .     S
C1831  H1881   1.111   .     S
C1832  H1884   1.106   .     S
C1832  C1833   1.523   .     S
C1832  H2333   1.104   .     S
C1833  H1886   1.110   .     S
C1833  H1885   1.107   .     S
C1833  H1887   1.109   .     S
C1834  O1948   1.298   .     A
C1834  O1947   1.298   .     A
C1835  C1836   1.536   .     S
C1835  O1938   1.421   .     S
C1835  H1888   1.109   .     S
C1835  H1889   1.113   .     S
C1836  C1837   1.526   .     S
C1836  H1892   1.107   .     S
C1836  H1891   1.110   .     S
C1837  H1893   1.109   .     S
C1837  H1894   1.110   .     S
C1838  C1839   1.535   .     S
C1838  O1939   1.420   .     S
C1838  H1897   1.117   .     S
C1838  H1896   1.112   .     S
C1839  C1840   1.526   .     S
C1839  H1898   1.112   .     S
C1839  H2199   1.110   1_455 S
C1840  H1900   1.112   .     S
C1840  H1903   1.109   .     S
C1840  H2202   1.109   1_455 S
C1841  C1842   1.544   .     S
C1841  H1905   1.112   .     S
C1841  O1940   1.425   .     S
C1841  H1904   1.110   .     S
C1842  C1843   1.523   .     S
C1842  H2056   1.110   .     S
C1842  H2057   1.110   .     S
C1843  H1910   1.110   .     S
C1843  H1908   1.111   .     S
C1843  H2059   1.109   .     S
C1844  C1846   1.535   .     S
C1844  O1941   1.420   .     S
C1844  H1913   1.117   .     S
C1844  H1911   1.111   .     S
C1845  H1857   1.081   .     S
C1845  N1930   1.366   .     A
C1846  H1914   1.112   .     S
C1846  C1847   1.526   .     S
C1846  H2065   1.110   .     S
C1847  H1918   1.109   .     S
C1847  H1916   1.111   .     S
C1847  H2067   1.108   .     S
C1848  H1920   1.112   .     S
C1848  H1919   1.110   .     S
C1848  O1943   1.425   .     S
C1848  C1849   1.544   .     S
C1849  C1850   1.523   .     S
C1849  H2221   1.110   1_455 S
C1849  H2222   1.110   1_455 S
C1850  H1926   1.110   .     S
C1850  H1924   1.110   .     S
C1850  H2225   1.109   1_455 S
C1851  N1929   1.365   .     A
C1851  H1868   1.074   .     S
C1851  C2302   1.414   .     S
C1852  H1879   1.081   .     S
C1852  N1930   1.366   .     A
C1853  N1929   1.365   .     A
C1853  H1890   1.074   .     S
C1853  C2295   1.414   .     S
C1854  O1939   1.386   .     S
C1854  C2103   1.390   1_455 S
Cu1855 Cu1856  2.677   .     S
Cu1855 N1929   2.012   .     S
Cu1855 O1946   1.978   .     S
Cu1855 O1931   1.978   .     S
Cu1855 O1944   1.978   .     S
Cu1855 O1948   1.978   .     S
Cu1856 O1945   1.978   .     S
Cu1856 O1942   1.978   .     S
Cu1856 O1947   1.978   .     S
Cu1856 O1949   1.978   .     S
Cu1856 N1930   2.012   .     S
H1862  C474    1.111   1_556 S
H1880  C2280   1.109   .     S
H1895  C2287   1.108   .     S
H1899  C1989   1.110   .     S
H1901  C470    1.110   1_556 S
H1902  C1990   1.109   .     S
H1906  C2142   1.110   1_455 S
H1907  C2142   1.110   1_455 S
H1909  C2143   1.109   1_455 S
H1915  C2146   1.110   1_455 S
H1917  C2147   1.108   1_455 S
H1921  C1999   1.110   .     S
H1922  C1999   1.110   .     S
H1925  C2000   1.109   .     S
C1951  O2095   1.289   .     A
C1951  C1969   1.461   .     S
C1951  O2081   1.296   .     A
C1952  C1968   1.409   .     A
C1952  O2090   1.384   .     S
C1952  C2104   1.386   .     S
C1953  O2091   1.386   .     S
C1953  C1968   1.416   .     A
C1953  C2154   1.390   .     S
C1954  O2093   1.384   .     S
C1954  C1969   1.409   .     A
C1955  O2100   1.383   .     S
C1955  C1959   1.398   .     A
C1955  C1966   1.413   .     A
C1956  O2082   1.382   .     S
C1956  C1967   1.410   .     A
C1956  C1960   1.397   .     A
C1957  C1961   1.398   .     A
C1957  O2083   1.383   .     S
C1957  C1967   1.413   .     A
C1958  C1963   1.397   .     A
C1958  C1966   1.410   .     A
C1958  O2084   1.382   .     S
C1959  C1964   1.418   .     A
C1959  O2085   1.386   .     S
C1960  O2086   1.383   .     S
C1960  C1965   1.415   .     A
C1961  C1965   1.418   .     A
C1961  O2087   1.386   .     S
C1962  O2092   1.289   .     A
C1962  O2094   1.296   .     A
C1962  C1968   1.461   .     S
C1963  C1964   1.415   .     A
C1963  O2088   1.383   .     S
C1964  C1973   1.481   .     S
C1965  C1984   1.481   .     S
C1967  C616    1.486   1_556 S
C1969  C2004   1.416   .     A
C1970  H2062   1.111   .     S
C1970  H2073   1.108   .     S
C1970  O2100   1.411   .     S
C1971  O2082   1.411   .     S
C1971  H2078   1.113   .     S
C1971  H2008   1.109   .     S
C1971  H727    1.111   1_556 S
C1972  H2010   1.111   .     S
C1972  O2083   1.411   .     S
C1972  H2011   1.108   .     S
C1972  H659    1.110   1_556 S
C1973  O2099   1.298   .     A
C1973  O2096   1.298   .     A
C1974  H2013   1.113   .     S
C1974  O2084   1.411   .     S
C1974  H2014   1.109   .     S
C1975  H2015   1.111   .     S
C1975  C1976   1.534   .     S
C1975  H2016   1.118   .     S
C1975  O2085   1.422   .     S
C1976  C1977   1.523   .     S
C1976  H2019   1.106   .     S
C1976  H2467   1.104   .     S
C1977  H2020   1.107   .     S
C1977  H2021   1.110   .     S
C1977  H2022   1.109   .     S
C1978  H2024   1.113   .     S
C1978  H2023   1.109   .     S
C1978  C1979   1.536   .     S
C1978  O2086   1.421   .     S
C1979  H2026   1.107   .     S
C1979  C1980   1.526   .     S
C1979  H2025   1.110   .     S
C1980  H2027   1.110   .     S
C1980  H2028   1.110   .     S
C1981  H2032   1.118   .     S
C1981  C1982   1.534   .     S
C1981  O2087   1.422   .     S
C1981  H2031   1.111   .     S
C1982  H2034   1.106   .     S
C1982  C1983   1.523   .     S
C1982  H2483   1.104   .     S
C1983  H2036   1.110   .     S
C1983  H2035   1.107   .     S
C1983  H2037   1.109   .     S
C1984  O2098   1.298   .     A
C1984  O2097   1.298   .     A
C1985  C1986   1.536   .     S
C1985  O2088   1.421   .     S
C1985  H2038   1.109   .     S
C1985  H2039   1.113   .     S
C1986  C1987   1.526   .     S
C1986  H2042   1.107   .     S
C1986  H2041   1.110   .     S
C1987  H2043   1.109   .     S
C1987  H2044   1.110   .     S
C1988  C1989   1.535   .     S
C1988  O2089   1.420   .     S
C1988  H2047   1.117   .     S
C1988  H2046   1.112   .     S
C1989  C1990   1.526   .     S
C1989  H2048   1.112   .     S
C1990  H2050   1.112   .     S
C1990  H2053   1.109   .     S
C1991  C1992   1.544   .     S
C1991  H2055   1.112   .     S
C1991  O2090   1.425   .     S
C1991  H2054   1.110   .     S
C1992  C1993   1.523   .     S
C1992  H2206   1.110   .     S
C1992  H2207   1.110   .     S
C1993  H2060   1.110   .     S
C1993  H2058   1.111   .     S
C1993  H2209   1.109   .     S
C1994  C1996   1.535   .     S
C1994  O2091   1.420   .     S
C1994  H2063   1.117   .     S
C1994  H2061   1.111   .     S
C1995  H2007   1.081   .     S
C1995  N2080   1.366   .     A
C1996  H2064   1.112   .     S
C1996  C1997   1.526   .     S
C1996  H2215   1.110   .     S
C1997  H2068   1.109   .     S
C1997  H2066   1.111   .     S
C1997  H2217   1.108   .     S
C1998  H2070   1.112   .     S
C1998  H2069   1.110   .     S
C1998  O2093   1.425   .     S
C1998  C1999   1.544   .     S
C1999  C2000   1.523   .     S
C2000  H2076   1.110   .     S
C2000  H2074   1.110   .     S
C2001  N2079   1.365   .     A
C2001  H2018   1.074   .     S
C2001  C2452   1.414   .     S
C2002  H2029   1.081   .     S
C2002  N2080   1.366   .     A
C2003  N2079   1.365   .     A
C2003  H2040   1.074   .     S
C2003  C2445   1.414   .     S
C2004  O2089   1.386   .     S
Cu2005 Cu2006  2.677   .     S
Cu2005 N2079   2.012   .     S
Cu2005 O2096   1.978   .     S
Cu2005 O2081   1.978   .     S
Cu2005 O2094   1.978   .     S
Cu2005 O2098   1.978   .     S
Cu2006 O2095   1.978   .     S
Cu2006 O2092   1.978   .     S
Cu2006 O2097   1.978   .     S
Cu2006 O2099   1.978   .     S
Cu2006 N2080   2.012   .     S
H2012  C624    1.111   1_556 S
H2030  C2430   1.109   .     S
H2045  C2437   1.108   .     S
H2049  C2139   1.110   .     S
H2051  C620    1.110   1_556 S
H2052  C2140   1.109   .     S
H2071  C2149   1.110   .     S
H2072  C2149   1.110   .     S
H2075  C2150   1.109   .     S
C2101  O2245   1.289   .     A
C2101  C2119   1.461   .     S
C2101  O2231   1.296   .     A
C2102  C2118   1.409   .     A
C2102  O2240   1.384   .     S
C2102  C1804   1.386   1_655 S
C2103  O2241   1.386   .     S
C2103  C2118   1.416   .     A
C2103  C1854   1.390   1_655 S
C2104  O2243   1.384   .     S
C2104  C2119   1.409   .     A
C2105  O2250   1.383   .     S
C2105  C2109   1.398   .     A
C2105  C2116   1.413   .     A
C2106  O2232   1.382   .     S
C2106  C2117   1.410   .     A
C2106  C2110   1.397   .     A
C2107  C2111   1.398   .     A
C2107  O2233   1.383   .     S
C2107  C2117   1.413   .     A
C2108  C2113   1.397   .     A
C2108  C2116   1.410   .     A
C2108  O2234   1.382   .     S
C2109  C2114   1.418   .     A
C2109  O2235   1.386   .     S
C2110  O2236   1.383   .     S
C2110  C2115   1.415   .     A
C2111  C2115   1.418   .     A
C2111  O2237   1.386   .     S
C2112  O2242   1.289   .     A
C2112  O2244   1.296   .     A
C2112  C2118   1.461   .     S
C2113  C2114   1.415   .     A
C2113  O2238   1.383   .     S
C2114  C2123   1.481   .     S
C2115  C2134   1.481   .     S
C2117  C766    1.486   1_556 S
C2119  C2154   1.416   .     A
C2120  H2212   1.111   .     S
C2120  H2223   1.108   .     S
C2120  O2250   1.411   .     S
C2121  O2232   1.411   .     S
C2121  H2228   1.113   .     S
C2121  H2158   1.109   .     S
C2121  H877    1.111   1_556 S
C2122  H2160   1.111   .     S
C2122  O2233   1.411   .     S
C2122  H2161   1.108   .     S
C2122  H809    1.110   1_556 S
C2123  O2249   1.298   .     A
C2123  O2246   1.298   .     A
C2124  H2163   1.113   .     S
C2124  O2234   1.411   .     S
C2124  H2164   1.109   .     S
C2125  H2165   1.111   .     S
C2125  C2126   1.534   .     S
C2125  H2166   1.118   .     S
C2125  O2235   1.422   .     S
C2126  C2127   1.523   .     S
C2126  H2169   1.106   .     S
C2126  H2617   1.104   .     S
C2127  H2170   1.107   .     S
C2127  H2171   1.110   .     S
C2127  H2172   1.109   .     S
C2128  H2174   1.113   .     S
C2128  H2173   1.109   .     S
C2128  C2129   1.536   .     S
C2128  O2236   1.421   .     S
C2129  H2176   1.107   .     S
C2129  C2130   1.526   .     S
C2129  H2175   1.110   .     S
C2130  H2177   1.110   .     S
C2130  H2178   1.110   .     S
C2131  H2182   1.118   .     S
C2131  C2132   1.534   .     S
C2131  O2237   1.422   .     S
C2131  H2181   1.111   .     S
C2132  H2184   1.106   .     S
C2132  C2133   1.523   .     S
C2132  H2633   1.104   .     S
C2133  H2186   1.110   .     S
C2133  H2185   1.107   .     S
C2133  H2187   1.109   .     S
C2134  O2248   1.298   .     A
C2134  O2247   1.298   .     A
C2135  C2136   1.536   .     S
C2135  O2238   1.421   .     S
C2135  H2188   1.109   .     S
C2135  H2189   1.113   .     S
C2136  C2137   1.526   .     S
C2136  H2192   1.107   .     S
C2136  H2191   1.110   .     S
C2137  H2193   1.109   .     S
C2137  H2194   1.110   .     S
C2138  C2139   1.535   .     S
C2138  O2239   1.420   .     S
C2138  H2197   1.117   .     S
C2138  H2196   1.112   .     S
C2139  C2140   1.526   .     S
C2139  H2198   1.112   .     S
C2140  H2200   1.112   .     S
C2140  H2203   1.109   .     S
C2141  C2142   1.544   .     S
C2141  H2205   1.112   .     S
C2141  O2240   1.425   .     S
C2141  H2204   1.110   .     S
C2142  C2143   1.523   .     S
C2142  H1906   1.110   1_655 S
C2142  H1907   1.110   1_655 S
C2143  H2210   1.110   .     S
C2143  H2208   1.111   .     S
C2143  H1909   1.109   1_655 S
C2144  C2146   1.535   .     S
C2144  O2241   1.420   .     S
C2144  H2213   1.117   .     S
C2144  H2211   1.111   .     S
C2145  H2157   1.081   .     S
C2145  N2230   1.366   .     A
C2146  H2214   1.112   .     S
C2146  C2147   1.526   .     S
C2146  H1915   1.110   1_655 S
C2147  H2218   1.109   .     S
C2147  H2216   1.111   .     S
C2147  H1917   1.108   1_655 S
C2148  H2220   1.112   .     S
C2148  H2219   1.110   .     S
C2148  O2243   1.425   .     S
C2148  C2149   1.544   .     S
C2149  C2150   1.523   .     S
C2150  H2226   1.110   .     S
C2150  H2224   1.110   .     S
C2151  N2229   1.365   .     A
C2151  H2168   1.074   .     S
C2151  C2602   1.414   .     S
C2152  H2179   1.081   .     S
C2152  N2230   1.366   .     A
C2153  N2229   1.365   .     A
C2153  H2190   1.074   .     S
C2153  C2595   1.414   .     S
C2154  O2239   1.386   .     S
Cu2155 Cu2156  2.677   .     S
Cu2155 N2229   2.012   .     S
Cu2155 O2246   1.978   .     S
Cu2155 O2231   1.978   .     S
Cu2155 O2244   1.978   .     S
Cu2155 O2248   1.978   .     S
Cu2156 O2245   1.978   .     S
Cu2156 O2242   1.978   .     S
Cu2156 O2247   1.978   .     S
Cu2156 O2249   1.978   .     S
Cu2156 N2230   2.012   .     S
H2162  C774    1.111   1_556 S
H2180  C2580   1.109   .     S
H2195  C2587   1.108   .     S
H2199  C1839   1.110   1_655 S
H2201  C770    1.110   1_556 S
H2202  C1840   1.109   1_655 S
H2221  C1849   1.110   1_655 S
H2222  C1849   1.110   1_655 S
H2225  C1850   1.109   1_655 S
C2251  O2395   1.289   .     A
C2251  C2269   1.461   .     S
C2251  O2381   1.296   .     A
C2252  C2268   1.409   .     A
C2252  O2390   1.384   .     S
C2252  C2404   1.386   .     S
C2253  O2391   1.386   .     S
C2253  C2268   1.416   .     A
C2253  C2454   1.390   .     S
C2254  O2393   1.384   .     S
C2254  C2269   1.409   .     A
C2254  C2552   1.386   1_455 S
C2255  O2400   1.383   .     S
C2255  C2259   1.398   .     A
C2255  C2266   1.413   .     A
C2256  O2382   1.382   .     S
C2256  C2267   1.410   .     A
C2256  C2260   1.397   .     A
C2257  C2261   1.398   .     A
C2257  O2383   1.383   .     S
C2257  C2267   1.413   .     A
C2258  C2263   1.397   .     A
C2258  C2266   1.410   .     A
C2258  O2384   1.382   .     S
C2259  C2264   1.418   .     A
C2259  O2385   1.386   .     S
C2260  O2386   1.383   .     S
C2260  C2265   1.415   .     A
C2261  C2265   1.418   .     A
C2261  O2387   1.386   .     S
C2262  O2392   1.289   .     A
C2262  O2394   1.296   .     A
C2262  C2268   1.461   .     S
C2263  C2264   1.415   .     A
C2263  O2388   1.383   .     S
C2264  C2273   1.481   .     S
C2265  C2284   1.481   .     S
C2267  C916    1.486   1_556 S
C2269  C2304   1.416   .     A
C2270  H2362   1.111   .     S
C2270  H2373   1.108   .     S
C2270  O2400   1.411   .     S
C2271  O2382   1.411   .     S
C2271  H2378   1.113   .     S
C2271  H2308   1.109   .     S
C2271  H1027   1.111   1_556 S
C2272  H2310   1.111   .     S
C2272  O2383   1.411   .     S
C2272  H2311   1.108   .     S
C2272  H959    1.110   1_556 S
C2273  O2399   1.298   .     A
C2273  O2396   1.298   .     A
C2274  H2313   1.113   .     S
C2274  O2384   1.411   .     S
C2274  H2314   1.109   .     S
C2275  H2315   1.111   .     S
C2275  C2276   1.534   .     S
C2275  H2316   1.118   .     S
C2275  O2385   1.422   .     S
C2276  C2277   1.523   .     S
C2276  H2319   1.106   .     S
C2276  H1417   1.104   1_565 S
C2277  H2320   1.107   .     S
C2277  H2321   1.110   .     S
C2277  H2322   1.109   .     S
C2278  H2324   1.113   .     S
C2278  H2323   1.109   .     S
C2278  C2279   1.536   .     S
C2278  O2386   1.421   .     S
C2279  H2326   1.107   .     S
C2279  C2280   1.526   .     S
C2279  H2325   1.110   .     S
C2280  H2327   1.110   .     S
C2280  H2328   1.110   .     S
C2281  H2332   1.118   .     S
C2281  C2282   1.534   .     S
C2281  O2387   1.422   .     S
C2281  H2331   1.111   .     S
C2282  H2334   1.106   .     S
C2282  C2283   1.523   .     S
C2282  H1433   1.104   1_565 S
C2283  H2336   1.110   .     S
C2283  H2335   1.107   .     S
C2283  H2337   1.109   .     S
C2284  O2398   1.298   .     A
C2284  O2397   1.298   .     A
C2285  C2286   1.536   .     S
C2285  O2388   1.421   .     S
C2285  H2338   1.109   .     S
C2285  H2339   1.113   .     S
C2286  C2287   1.526   .     S
C2286  H2342   1.107   .     S
C2286  H2341   1.110   .     S
C2287  H2343   1.109   .     S
C2287  H2344   1.110   .     S
C2288  C2289   1.535   .     S
C2288  O2389   1.420   .     S
C2288  H2347   1.117   .     S
C2288  H2346   1.112   .     S
C2289  C2290   1.526   .     S
C2289  H2348   1.112   .     S
C2289  H2649   1.110   1_455 S
C2290  H2350   1.112   .     S
C2290  H2353   1.109   .     S
C2290  H2652   1.109   1_455 S
C2291  C2292   1.544   .     S
C2291  H2355   1.112   .     S
C2291  O2390   1.425   .     S
C2291  H2354   1.110   .     S
C2292  C2293   1.523   .     S
C2292  H2506   1.110   .     S
C2292  H2507   1.110   .     S
C2293  H2360   1.110   .     S
C2293  H2358   1.111   .     S
C2293  H2509   1.109   .     S
C2294  C2296   1.535   .     S
C2294  O2391   1.420   .     S
C2294  H2363   1.117   .     S
C2294  H2361   1.111   .     S
C2295  H2307   1.081   .     S
C2295  N2380   1.366   .     A
C2296  H2364   1.112   .     S
C2296  C2297   1.526   .     S
C2296  H2515   1.110   .     S
C2297  H2368   1.109   .     S
C2297  H2366   1.111   .     S
C2297  H2517   1.108   .     S
C2298  H2370   1.112   .     S
C2298  H2369   1.110   .     S
C2298  O2393   1.425   .     S
C2298  C2299   1.544   .     S
C2299  C2300   1.523   .     S
C2299  H2671   1.110   1_455 S
C2299  H2672   1.110   1_455 S
C2300  H2376   1.110   .     S
C2300  H2374   1.110   .     S
C2300  H2675   1.109   1_455 S
C2301  N2379   1.365   .     A
C2301  H2318   1.074   .     S
C2301  C1402   1.414   1_565 S
C2302  H2329   1.081   .     S
C2302  N2380   1.366   .     A
C2303  N2379   1.365   .     A
C2303  H2340   1.074   .     S
C2303  C1395   1.414   1_565 S
C2304  O2389   1.386   .     S
C2304  C2553   1.390   1_455 S
Cu2305 Cu2306  2.677   .     S
Cu2305 N2379   2.012   .     S
Cu2305 O2396   1.978   .     S
Cu2305 O2381   1.978   .     S
Cu2305 O2394   1.978   .     S
Cu2305 O2398   1.978   .     S
Cu2306 O2395   1.978   .     S
Cu2306 O2392   1.978   .     S
Cu2306 O2397   1.978   .     S
Cu2306 O2399   1.978   .     S
Cu2306 N2380   2.012   .     S
H2312  C924    1.111   1_556 S
H2330  C1380   1.109   1_565 S
H2345  C1387   1.108   1_565 S
H2349  C2439   1.110   .     S
H2351  C920    1.110   1_556 S
H2352  C2440   1.109   .     S
H2356  C2592   1.110   1_455 S
H2357  C2592   1.110   1_455 S
H2359  C2593   1.109   1_455 S
H2365  C2596   1.110   1_455 S
H2367  C2597   1.108   1_455 S
H2371  C2449   1.110   .     S
H2372  C2449   1.110   .     S
H2375  C2450   1.109   .     S
C2401  O2545   1.289   .     A
C2401  C2419   1.461   .     S
C2401  O2531   1.296   .     A
C2402  C2418   1.409   .     A
C2402  O2540   1.384   .     S
C2402  C2554   1.386   .     S
C2403  O2541   1.386   .     S
C2403  C2418   1.416   .     A
C2403  C2604   1.390   .     S
C2404  O2543   1.384   .     S
C2404  C2419   1.409   .     A
C2405  O2550   1.383   .     S
C2405  C2409   1.398   .     A
C2405  C2416   1.413   .     A
C2406  O2532   1.382   .     S
C2406  C2417   1.410   .     A
C2406  C2410   1.397   .     A
C2407  C2411   1.398   .     A
C2407  O2533   1.383   .     S
C2407  C2417   1.413   .     A
C2408  C2413   1.397   .     A
C2408  C2416   1.410   .     A
C2408  O2534   1.382   .     S
C2409  C2414   1.418   .     A
C2409  O2535   1.386   .     S
C2410  O2536   1.383   .     S
C2410  C2415   1.415   .     A
C2411  C2415   1.418   .     A
C2411  O2537   1.386   .     S
C2412  O2542   1.289   .     A
C2412  O2544   1.296   .     A
C2412  C2418   1.461   .     S
C2413  C2414   1.415   .     A
C2413  O2538   1.383   .     S
C2414  C2423   1.481   .     S
C2415  C2434   1.481   .     S
C2417  C1066   1.486   1_556 S
C2419  C2454   1.416   .     A
C2420  H2512   1.111   .     S
C2420  H2523   1.108   .     S
C2420  O2550   1.411   .     S
C2421  O2532   1.411   .     S
C2421  H2528   1.113   .     S
C2421  H2458   1.109   .     S
C2421  H1177   1.111   1_556 S
C2422  H2460   1.111   .     S
C2422  O2533   1.411   .     S
C2422  H2461   1.108   .     S
C2422  H1109   1.110   1_556 S
C2423  O2549   1.298   .     A
C2423  O2546   1.298   .     A
C2424  H2463   1.113   .     S
C2424  O2534   1.411   .     S
C2424  H2464   1.109   .     S
C2425  H2465   1.111   .     S
C2425  C2426   1.534   .     S
C2425  H2466   1.118   .     S
C2425  O2535   1.422   .     S
C2426  C2427   1.523   .     S
C2426  H2469   1.106   .     S
C2426  H1567   1.104   1_565 S
C2427  H2470   1.107   .     S
C2427  H2471   1.110   .     S
C2427  H2472   1.109   .     S
C2428  H2474   1.113   .     S
C2428  H2473   1.109   .     S
C2428  C2429   1.536   .     S
C2428  O2536   1.421   .     S
C2429  H2476   1.107   .     S
C2429  C2430   1.526   .     S
C2429  H2475   1.110   .     S
C2430  H2477   1.110   .     S
C2430  H2478   1.110   .     S
C2431  H2482   1.118   .     S
C2431  C2432   1.534   .     S
C2431  O2537   1.422   .     S
C2431  H2481   1.111   .     S
C2432  H2484   1.106   .     S
C2432  C2433   1.523   .     S
C2432  H1583   1.104   1_565 S
C2433  H2486   1.110   .     S
C2433  H2485   1.107   .     S
C2433  H2487   1.109   .     S
C2434  O2548   1.298   .     A
C2434  O2547   1.298   .     A
C2435  C2436   1.536   .     S
C2435  O2538   1.421   .     S
C2435  H2488   1.109   .     S
C2435  H2489   1.113   .     S
C2436  C2437   1.526   .     S
C2436  H2492   1.107   .     S
C2436  H2491   1.110   .     S
C2437  H2493   1.109   .     S
C2437  H2494   1.110   .     S
C2438  C2439   1.535   .     S
C2438  O2539   1.420   .     S
C2438  H2497   1.117   .     S
C2438  H2496   1.112   .     S
C2439  C2440   1.526   .     S
C2439  H2498   1.112   .     S
C2440  H2500   1.112   .     S
C2440  H2503   1.109   .     S
C2441  C2442   1.544   .     S
C2441  H2505   1.112   .     S
C2441  O2540   1.425   .     S
C2441  H2504   1.110   .     S
C2442  C2443   1.523   .     S
C2442  H2656   1.110   .     S
C2442  H2657   1.110   .     S
C2443  H2510   1.110   .     S
C2443  H2508   1.111   .     S
C2443  H2659   1.109   .     S
C2444  C2446   1.535   .     S
C2444  O2541   1.420   .     S
C2444  H2513   1.117   .     S
C2444  H2511   1.111   .     S
C2445  H2457   1.081   .     S
C2445  N2530   1.366   .     A
C2446  H2514   1.112   .     S
C2446  C2447   1.526   .     S
C2446  H2665   1.110   .     S
C2447  H2518   1.109   .     S
C2447  H2516   1.111   .     S
C2447  H2667   1.108   .     S
C2448  H2520   1.112   .     S
C2448  H2519   1.110   .     S
C2448  O2543   1.425   .     S
C2448  C2449   1.544   .     S
C2449  C2450   1.523   .     S
C2450  H2526   1.110   .     S
C2450  H2524   1.110   .     S
C2451  N2529   1.365   .     A
C2451  H2468   1.074   .     S
C2451  C1552   1.414   1_565 S
C2452  H2479   1.081   .     S
C2452  N2530   1.366   .     A
C2453  N2529   1.365   .     A
C2453  H2490   1.074   .     S
C2453  C1545   1.414   1_565 S
C2454  O2539   1.386   .     S
Cu2455 Cu2456  2.677   .     S
Cu2455 N2529   2.012   .     S
Cu2455 O2546   1.978   .     S
Cu2455 O2531   1.978   .     S
Cu2455 O2544   1.978   .     S
Cu2455 O2548   1.978   .     S
Cu2456 O2545   1.978   .     S
Cu2456 O2542   1.978   .     S
Cu2456 O2547   1.978   .     S
Cu2456 O2549   1.978   .     S
Cu2456 N2530   2.012   .     S
H2462  C1074   1.111   1_556 S
H2480  C1530   1.109   1_565 S
H2495  C1537   1.108   1_565 S
H2499  C2589   1.110   .     S
H2501  C1070   1.110   1_556 S
H2502  C2590   1.109   .     S
H2521  C2599   1.110   .     S
H2522  C2599   1.110   .     S
H2525  C2600   1.109   .     S
C2551  O2695   1.289   .     A
C2551  C2569   1.461   .     S
C2551  O2681   1.296   .     A
C2552  C2568   1.409   .     A
C2552  O2690   1.384   .     S
C2552  C2254   1.386   1_655 S
C2553  O2691   1.386   .     S
C2553  C2568   1.416   .     A
C2553  C2304   1.390   1_655 S
C2554  O2693   1.384   .     S
C2554  C2569   1.409   .     A
C2555  O2700   1.383   .     S
C2555  C2559   1.398   .     A
C2555  C2566   1.413   .     A
C2556  O2682   1.382   .     S
C2556  C2567   1.410   .     A
C2556  C2560   1.397   .     A
C2557  C2561   1.398   .     A
C2557  O2683   1.383   .     S
C2557  C2567   1.413   .     A
C2558  C2563   1.397   .     A
C2558  C2566   1.410   .     A
C2558  O2684   1.382   .     S
C2559  C2564   1.418   .     A
C2559  O2685   1.386   .     S
C2560  O2686   1.383   .     S
C2560  C2565   1.415   .     A
C2561  C2565   1.418   .     A
C2561  O2687   1.386   .     S
C2562  O2692   1.289   .     A
C2562  O2694   1.296   .     A
C2562  C2568   1.461   .     S
C2563  C2564   1.415   .     A
C2563  O2688   1.383   .     S
C2564  C2573   1.481   .     S
C2565  C2584   1.481   .     S
C2567  C1216   1.486   1_556 S
C2569  C2604   1.416   .     A
C2570  H2662   1.111   .     S
C2570  H2673   1.108   .     S
C2570  O2700   1.411   .     S
C2571  O2682   1.411   .     S
C2571  H2678   1.113   .     S
C2571  H2608   1.109   .     S
C2571  H1327   1.111   1_556 S
C2572  H2610   1.111   .     S
C2572  O2683   1.411   .     S
C2572  H2611   1.108   .     S
C2572  H1259   1.110   1_556 S
C2573  O2699   1.298   .     A
C2573  O2696   1.298   .     A
C2574  H2613   1.113   .     S
C2574  O2684   1.411   .     S
C2574  H2614   1.109   .     S
C2575  H2615   1.111   .     S
C2575  C2576   1.534   .     S
C2575  H2616   1.118   .     S
C2575  O2685   1.422   .     S
C2576  C2577   1.523   .     S
C2576  H2619   1.106   .     S
C2576  H1717   1.104   1_565 S
C2577  H2620   1.107   .     S
C2577  H2621   1.110   .     S
C2577  H2622   1.109   .     S
C2578  H2624   1.113   .     S
C2578  H2623   1.109   .     S
C2578  C2579   1.536   .     S
C2578  O2686   1.421   .     S
C2579  H2626   1.107   .     S
C2579  C2580   1.526   .     S
C2579  H2625   1.110   .     S
C2580  H2627   1.110   .     S
C2580  H2628   1.110   .     S
C2581  H2632   1.118   .     S
C2581  C2582   1.534   .     S
C2581  O2687   1.422   .     S
C2581  H2631   1.111   .     S
C2582  H2634   1.106   .     S
C2582  C2583   1.523   .     S
C2582  H1733   1.104   1_565 S
C2583  H2636   1.110   .     S
C2583  H2635   1.107   .     S
C2583  H2637   1.109   .     S
C2584  O2698   1.298   .     A
C2584  O2697   1.298   .     A
C2585  C2586   1.536   .     S
C2585  O2688   1.421   .     S
C2585  H2638   1.109   .     S
C2585  H2639   1.113   .     S
C2586  C2587   1.526   .     S
C2586  H2642   1.107   .     S
C2586  H2641   1.110   .     S
C2587  H2643   1.109   .     S
C2587  H2644   1.110   .     S
C2588  C2589   1.535   .     S
C2588  O2689   1.420   .     S
C2588  H2647   1.117   .     S
C2588  H2646   1.112   .     S
C2589  C2590   1.526   .     S
C2589  H2648   1.112   .     S
C2590  H2650   1.112   .     S
C2590  H2653   1.109   .     S
C2591  C2592   1.544   .     S
C2591  H2655   1.112   .     S
C2591  O2690   1.425   .     S
C2591  H2654   1.110   .     S
C2592  C2593   1.523   .     S
C2592  H2356   1.110   1_655 S
C2592  H2357   1.110   1_655 S
C2593  H2660   1.110   .     S
C2593  H2658   1.111   .     S
C2593  H2359   1.109   1_655 S
C2594  C2596   1.535   .     S
C2594  O2691   1.420   .     S
C2594  H2663   1.117   .     S
C2594  H2661   1.111   .     S
C2595  H2607   1.081   .     S
C2595  N2680   1.366   .     A
C2596  H2664   1.112   .     S
C2596  C2597   1.526   .     S
C2596  H2365   1.110   1_655 S
C2597  H2668   1.109   .     S
C2597  H2666   1.111   .     S
C2597  H2367   1.108   1_655 S
C2598  H2670   1.112   .     S
C2598  H2669   1.110   .     S
C2598  O2693   1.425   .     S
C2598  C2599   1.544   .     S
C2599  C2600   1.523   .     S
C2600  H2676   1.110   .     S
C2600  H2674   1.110   .     S
C2601  N2679   1.365   .     A
C2601  H2618   1.074   .     S
C2601  C1702   1.414   1_565 S
C2602  H2629   1.081   .     S
C2602  N2680   1.366   .     A
C2603  N2679   1.365   .     A
C2603  H2640   1.074   .     S
C2603  C1695   1.414   1_565 S
C2604  O2689   1.386   .     S
Cu2605 Cu2606  2.677   .     S
Cu2605 N2679   2.012   .     S
Cu2605 O2696   1.978   .     S
Cu2605 O2681   1.978   .     S
Cu2605 O2694   1.978   .     S
Cu2605 O2698   1.978   .     S
Cu2606 O2695   1.978   .     S
Cu2606 O2692   1.978   .     S
Cu2606 O2697   1.978   .     S
Cu2606 O2699   1.978   .     S
Cu2606 N2680   2.012   .     S
H2612  C1224   1.111   1_556 S
H2630  C1680   1.109   1_565 S
H2645  C1687   1.108   1_565 S
H2649  C2289   1.110   1_655 S
H2651  C1220   1.110   1_556 S
H2652  C2290   1.109   1_655 S
H2671  C2299   1.110   1_655 S
H2672  C2299   1.110   1_655 S
H2675  C2300   1.109   1_655 S
