data_str_m2_o2_o5_pcu_sym.61
_audit_creation_date              2020-01-03
_audit_creation_method            'Materials Studio'
_symmetry_space_group_name_H-M    'P1'
_symmetry_Int_Tables_number       1
_symmetry_cell_setting            triclinic
loop_
_symmetry_equiv_pos_as_xyz
  x,y,z
_cell_length_a                    30.3518
_cell_length_b                    28.0220
_cell_length_c                    27.2810
_cell_angle_alpha                 90.0363
_cell_angle_beta                  94.3713
_cell_angle_gamma                 89.9815
loop_
_atom_site_label
_atom_site_type_symbol
_atom_site_fract_x
_atom_site_fract_y
_atom_site_fract_z
_atom_site_U_iso_or_equiv
_atom_site_adp_type
_atom_site_occupancy
C1     C     0.16518   0.24992   0.16888   0.00000  Uiso   1.00
C2     C     0.28977   0.44642   0.17335   0.00000  Uiso   1.00
C3     C     0.24974   0.24999   0.07358   0.00000  Uiso   1.00
C4     C     0.25022   0.25001   0.25975   0.00000  Uiso   1.00
C5     C     0.25061   0.02744   0.16676   0.00000  Uiso   1.00
C6     C     0.25042   0.47307   0.16704   0.00000  Uiso   1.00
C7     C     0.24989   0.25000   0.02184   0.00000  Uiso   1.00
C8     C     0.25006   0.25002   0.31149   0.00000  Uiso   1.00
C9     C     0.04868   0.29189   0.18509   0.00000  Uiso   1.00
C10    C     0.45346   0.21021   0.17735   0.00000  Uiso   1.00
C11    C     0.45134   0.29192   0.14867   0.00000  Uiso   1.00
C12    C     0.33483   0.24992   0.16453   0.00000  Uiso   1.00
C13    C     0.04655   0.21021   0.15625   0.00000  Uiso   1.00
C14    C     0.09486   0.29062   0.18874   0.00000  Uiso   1.00
C15    C     0.40767   0.20781   0.17166   0.00000  Uiso   1.00
C16    C     0.40516   0.29066   0.14494   0.00000  Uiso   1.00
C17    C     0.09235   0.20781   0.16186   0.00000  Uiso   1.00
C18    C     0.11699   0.24959   0.17278   0.00000  Uiso   1.00
C19    C     0.38302   0.24961   0.16077   0.00000  Uiso   1.00
C20    C     0.02430   0.25194   0.16803   0.00000  Uiso   1.00
C21    C     0.47571   0.25195   0.16568   0.00000  Uiso   1.00
C22    C     0.32792   0.13339   0.25826   0.00000  Uiso   1.00
C23    C     0.27062   0.10458   0.20560   0.00000  Uiso   1.00
C24    C     0.33953   0.13506   0.31349   0.00000  Uiso   1.00
C25    C     0.16165   0.37872   0.09177   0.00000  Uiso   1.00
C26    C     0.12320   0.34592   0.07598   0.00000  Uiso   1.00
C27    C     0.17195   0.13225   0.07561   0.00000  Uiso   1.00
C28    C     0.15968   0.13286   0.02051   0.00000  Uiso   1.00
C29    C     0.33494   0.37131   0.24251   0.00000  Uiso   1.00
C30    C     0.38421   0.37616   0.25648   0.00000  Uiso   1.00
C31    C     0.13146   0.31738   0.25904   0.00000  Uiso   1.00
C32    C     0.16183   0.35618   0.28116   0.00000  Uiso   1.00
C33    C     0.39488   0.13616   0.13317   0.00000  Uiso   1.00
C34    C     0.21177   0.39637   0.15544   0.00000  Uiso   1.00
C35    C     0.35385   0.10705   0.11807   0.00000  Uiso   1.00
C36    C     0.36920   0.31738   0.07427   0.00000  Uiso   1.00
C37    C     0.33937   0.35638   0.05160   0.00000  Uiso   1.00
C38    C     0.10534   0.13626   0.20038   0.00000  Uiso   1.00
C39    C     0.14672   0.10785   0.21582   0.00000  Uiso   1.00
C40    C     0.27852   0.01262   0.27753   0.00000  Uiso   1.00
C41    C     0.31168   0.49119   0.31631   0.00000  Uiso   1.00
C42    C     0.15800   0.47713   0.20626   0.00000  Uiso   1.00
C43    C     0.10869   0.48722   0.20441   0.00000  Uiso   1.00
C44    C     0.22633   0.01100   0.05637   0.00000  Uiso   1.00
C45    C     0.22989   0.10425   0.12765   0.00000  Uiso   1.00
C46    C     0.19514   0.49069   0.01497   0.00000  Uiso   1.00
C47    C     0.34473   0.47565   0.13022   0.00000  Uiso   1.00
C48    C     0.39381   0.48719   0.13449   0.00000  Uiso   1.00
C49    C     0.28838   0.39611   0.17792   0.00000  Uiso   1.00
C50    C     0.27309   0.05396   0.20507   0.00000  Uiso   1.00
C51    C     0.21081   0.44681   0.16064   0.00000  Uiso   1.00
C52    C     0.22818   0.05358   0.12811   0.00000  Uiso   1.00
Cu53   Cu    0.25000   0.29822   0.16667   0.00000  Uiso   1.00
Cu54   Cu    0.25000   0.20178   0.16667   0.00000  Uiso   1.00
H55    H     0.03203   0.32351   0.19714   0.00000  Uiso   1.00
H56    H     0.19003   0.36956   0.06985   0.00000  Uiso   1.00
H57    H     0.15086   0.41588   0.08362   0.00000  Uiso   1.00
H58    H     0.09521   0.35248   0.09907   0.00000  Uiso   1.00
H59    H     0.11180   0.35293   0.03705   0.00000  Uiso   1.00
H60    H     0.13363   0.30804   0.07965   0.00000  Uiso   1.00
H61    H     0.16198   0.16714   0.09007   0.00000  Uiso   1.00
H62    H     0.15279   0.10346   0.09246   0.00000  Uiso   1.00
H63    H     0.17035   0.09923   0.00368   0.00000  Uiso   1.00
H64    H     0.12335   0.13666   0.01330   0.00000  Uiso   1.00
H65    H     0.17614   0.16329   0.00325   0.00000  Uiso   1.00
H66    H     0.47136   0.17854   0.18991   0.00000  Uiso   1.00
H67    H     0.32387   0.33613   0.25559   0.00000  Uiso   1.00
H68    H     0.31738   0.39958   0.26222   0.00000  Uiso   1.00
H69    H     0.39620   0.41112   0.24372   0.00000  Uiso   1.00
H70    H     0.39077   0.37394   0.29698   0.00000  Uiso   1.00
H71    H     0.40253   0.34707   0.23926   0.00000  Uiso   1.00
H72    H     0.15019   0.28316   0.26179   0.00000  Uiso   1.00
H73    H     0.10229   0.31447   0.28127   0.00000  Uiso   1.00
H74    H     0.14261   0.38919   0.28670   0.00000  Uiso   1.00
H75    H     0.17722   0.34416   0.31724   0.00000  Uiso   1.00
H76    H     0.18856   0.36371   0.25665   0.00000  Uiso   1.00
H77    H     0.46800   0.32353   0.13667   0.00000  Uiso   1.00
H78    H     0.42287   0.11143   0.14262   0.00000  Uiso   1.00
H79    H     0.40271   0.15762   0.10038   0.00000  Uiso   1.00
H80    H     0.32590   0.13111   0.10655   0.00000  Uiso   1.00
H81    H     0.36037   0.08348   0.08671   0.00000  Uiso   1.00
H82    H     0.34482   0.08478   0.14931   0.00000  Uiso   1.00
H83    H     0.35028   0.28329   0.07125   0.00000  Uiso   1.00
H84    H     0.39869   0.31422   0.05255   0.00000  Uiso   1.00
H85    H     0.35875   0.38946   0.04719   0.00000  Uiso   1.00
H86    H     0.32507   0.34479   0.01488   0.00000  Uiso   1.00
H87    H     0.31188   0.36364   0.07518   0.00000  Uiso   1.00
H88    H     0.02866   0.17854   0.14367   0.00000  Uiso   1.00
H89    H     0.07772   0.11106   0.19090   0.00000  Uiso   1.00
H90    H     0.09704   0.15772   0.23303   0.00000  Uiso   1.00
H91    H     0.17432   0.13238   0.22725   0.00000  Uiso   1.00
H92    H     0.14041   0.08445   0.24733   0.00000  Uiso   1.00
H93    H     0.15611   0.08548   0.18477   0.00000  Uiso   1.00
H94    H     0.25593   0.48375   0.26341   0.00000  Uiso   1.00
H95    H     0.25914   0.04101   0.29450   0.00000  Uiso   1.00
H96    H     0.29513   0.46523   0.00612   0.00000  Uiso   1.00
H97    H     0.32696   0.01957   0.00696   0.00000  Uiso   1.00
H98    H     0.33836   0.47227   0.29854   0.00000  Uiso   1.00
H99    H     0.33771   0.16813   0.24339   0.00000  Uiso   1.00
H100   H     0.17630   0.00804   0.22323   0.00000  Uiso   1.00
H101   H     0.16465   0.44541   0.23018   0.00000  Uiso   1.00
H102   H     0.08997   0.45543   0.19015   0.00000  Uiso   1.00
H103   H     0.09897   0.49551   0.24191   0.00000  Uiso   1.00
H104   H     0.10025   0.01804   0.17992   0.00000  Uiso   1.00
H105   H     0.24725   0.48132   0.07181   0.00000  Uiso   1.00
H106   H     0.24789   0.03861   0.04138   0.00000  Uiso   1.00
H107   H     0.21187   0.46222   0.32841   0.00000  Uiso   1.00
H108   H     0.18421   0.01913   0.32187   0.00000  Uiso   1.00
H109   H     0.16542   0.47498   0.02978   0.00000  Uiso   1.00
H110   H     0.34763   0.10462   0.24215   0.00000  Uiso   1.00
H111   H     0.32635   0.00568   0.11158   0.00000  Uiso   1.00
H112   H     0.33996   0.44317   0.10700   0.00000  Uiso   1.00
H113   H     0.41277   0.45622   0.15036   0.00000  Uiso   1.00
H114   H     0.40498   0.49509   0.09752   0.00000  Uiso   1.00
H115   H     0.40041   0.01866   0.15867   0.00000  Uiso   1.00
H116   H     0.32802   0.10214   0.33096   0.00000  Uiso   1.00
H117   H     0.37586   0.13827   0.32119   0.00000  Uiso   1.00
H118   H     0.32334   0.16626   0.32974   0.00000  Uiso   1.00
N119   N     0.25000   0.12934   0.16667   0.00000  Uiso   1.00
N120   N     0.25000   0.37066   0.16667   0.00000  Uiso   1.00
O121   O     0.18573   0.29072   0.16667   0.00000  Uiso   1.00
O122   O     0.17258   0.37317   0.14265   0.00000  Uiso   1.00
O123   O     0.21822   0.12741   0.08384   0.00000  Uiso   1.00
O124   O     0.32767   0.37328   0.19075   0.00000  Uiso   1.00
O125   O     0.11784   0.32906   0.20973   0.00000  Uiso   1.00
O126   O     0.38715   0.16405   0.17504   0.00000  Uiso   1.00
O127   O     0.38218   0.32902   0.12378   0.00000  Uiso   1.00
O128   O     0.11285   0.16404   0.15841   0.00000  Uiso   1.00
O129   O     0.30185   0.03171   0.23961   0.00000  Uiso   1.00
O130   O     0.17039   0.46972   0.15802   0.00000  Uiso   1.00
O131   O     0.20101   0.03076   0.09238   0.00000  Uiso   1.00
O132   O     0.31427   0.20928   0.16666   0.00000  Uiso   1.00
O133   O     0.33042   0.46882   0.17771   0.00000  Uiso   1.00
O134   O     0.31427   0.29072   0.16666   0.00000  Uiso   1.00
O135   O     0.18573   0.20929   0.16667   0.00000  Uiso   1.00
O136   O     0.25000   0.29071   0.09613   0.00000  Uiso   1.00
O137   O     0.25000   0.20929   0.23720   0.00000  Uiso   1.00
O138   O     0.25000   0.29071   0.23720   0.00000  Uiso   1.00
O139   O     0.25000   0.20929   0.09613   0.00000  Uiso   1.00
O140   O     0.28177   0.12785   0.24951   0.00000  Uiso   1.00
C141   C     0.66518   0.24992   0.16888   0.00000  Uiso   1.00
C142   C     0.78977   0.44642   0.17335   0.00000  Uiso   1.00
C143   C     0.74974   0.24999   0.07358   0.00000  Uiso   1.00
C144   C     0.75022   0.25001   0.25975   0.00000  Uiso   1.00
C145   C     0.75061   0.02744   0.16676   0.00000  Uiso   1.00
C146   C     0.75042   0.47307   0.16704   0.00000  Uiso   1.00
C147   C     0.74989   0.25000   0.02184   0.00000  Uiso   1.00
C148   C     0.75006   0.25002   0.31149   0.00000  Uiso   1.00
C149   C     0.54868   0.29189   0.18509   0.00000  Uiso   1.00
C150   C     0.95346   0.21021   0.17735   0.00000  Uiso   1.00
C151   C     0.95134   0.29192   0.14867   0.00000  Uiso   1.00
C152   C     0.83483   0.24992   0.16453   0.00000  Uiso   1.00
C153   C     0.54655   0.21021   0.15625   0.00000  Uiso   1.00
C154   C     0.59486   0.29062   0.18874   0.00000  Uiso   1.00
C155   C     0.90767   0.20781   0.17166   0.00000  Uiso   1.00
C156   C     0.90516   0.29066   0.14494   0.00000  Uiso   1.00
C157   C     0.59235   0.20781   0.16186   0.00000  Uiso   1.00
C158   C     0.61699   0.24959   0.17278   0.00000  Uiso   1.00
C159   C     0.88302   0.24961   0.16077   0.00000  Uiso   1.00
C160   C     0.52430   0.25194   0.16803   0.00000  Uiso   1.00
C161   C     0.97571   0.25195   0.16568   0.00000  Uiso   1.00
C162   C     0.82792   0.13339   0.25826   0.00000  Uiso   1.00
C163   C     0.77062   0.10458   0.20560   0.00000  Uiso   1.00
C164   C     0.83953   0.13506   0.31349   0.00000  Uiso   1.00
C165   C     0.66165   0.37872   0.09177   0.00000  Uiso   1.00
C166   C     0.62320   0.34592   0.07598   0.00000  Uiso   1.00
C167   C     0.67195   0.13225   0.07561   0.00000  Uiso   1.00
C168   C     0.65968   0.13286   0.02051   0.00000  Uiso   1.00
C169   C     0.83494   0.37131   0.24251   0.00000  Uiso   1.00
C170   C     0.88421   0.37616   0.25648   0.00000  Uiso   1.00
C171   C     0.63146   0.31738   0.25904   0.00000  Uiso   1.00
C172   C     0.66183   0.35618   0.28116   0.00000  Uiso   1.00
C173   C     0.89488   0.13616   0.13317   0.00000  Uiso   1.00
C174   C     0.71177   0.39637   0.15544   0.00000  Uiso   1.00
C175   C     0.85385   0.10705   0.11807   0.00000  Uiso   1.00
C176   C     0.86920   0.31738   0.07427   0.00000  Uiso   1.00
C177   C     0.83937   0.35638   0.05160   0.00000  Uiso   1.00
C178   C     0.60534   0.13626   0.20038   0.00000  Uiso   1.00
C179   C     0.64672   0.10785   0.21582   0.00000  Uiso   1.00
C180   C     0.77852   0.01262   0.27753   0.00000  Uiso   1.00
C181   C     0.81168   0.49119   0.31631   0.00000  Uiso   1.00
C182   C     0.65800   0.47713   0.20626   0.00000  Uiso   1.00
C183   C     0.60869   0.48722   0.20441   0.00000  Uiso   1.00
C184   C     0.72633   0.01100   0.05637   0.00000  Uiso   1.00
C185   C     0.72989   0.10425   0.12765   0.00000  Uiso   1.00
C186   C     0.69514   0.49069   0.01497   0.00000  Uiso   1.00
C187   C     0.84473   0.47565   0.13022   0.00000  Uiso   1.00
C188   C     0.89381   0.48719   0.13449   0.00000  Uiso   1.00
C189   C     0.78838   0.39611   0.17792   0.00000  Uiso   1.00
C190   C     0.77309   0.05396   0.20507   0.00000  Uiso   1.00
C191   C     0.71081   0.44681   0.16064   0.00000  Uiso   1.00
C192   C     0.72818   0.05358   0.12811   0.00000  Uiso   1.00
Cu193  Cu    0.75000   0.29822   0.16667   0.00000  Uiso   1.00
Cu194  Cu    0.75000   0.20178   0.16667   0.00000  Uiso   1.00
H195   H     0.53203   0.32351   0.19714   0.00000  Uiso   1.00
H196   H     0.69003   0.36956   0.06985   0.00000  Uiso   1.00
H197   H     0.65086   0.41588   0.08362   0.00000  Uiso   1.00
H198   H     0.59521   0.35248   0.09907   0.00000  Uiso   1.00
H199   H     0.61180   0.35293   0.03705   0.00000  Uiso   1.00
H200   H     0.63363   0.30804   0.07965   0.00000  Uiso   1.00
H201   H     0.66198   0.16714   0.09007   0.00000  Uiso   1.00
H202   H     0.65279   0.10346   0.09246   0.00000  Uiso   1.00
H203   H     0.67035   0.09923   0.00368   0.00000  Uiso   1.00
H204   H     0.62335   0.13666   0.01330   0.00000  Uiso   1.00
H205   H     0.67614   0.16329   0.00325   0.00000  Uiso   1.00
H206   H     0.97136   0.17854   0.18991   0.00000  Uiso   1.00
H207   H     0.82387   0.33613   0.25559   0.00000  Uiso   1.00
H208   H     0.81738   0.39958   0.26222   0.00000  Uiso   1.00
H209   H     0.89620   0.41112   0.24372   0.00000  Uiso   1.00
H210   H     0.89077   0.37394   0.29698   0.00000  Uiso   1.00
H211   H     0.90253   0.34707   0.23926   0.00000  Uiso   1.00
H212   H     0.65019   0.28316   0.26179   0.00000  Uiso   1.00
H213   H     0.60229   0.31447   0.28127   0.00000  Uiso   1.00
H214   H     0.64261   0.38919   0.28670   0.00000  Uiso   1.00
H215   H     0.67722   0.34416   0.31724   0.00000  Uiso   1.00
H216   H     0.68856   0.36371   0.25665   0.00000  Uiso   1.00
H217   H     0.96800   0.32353   0.13667   0.00000  Uiso   1.00
H218   H     0.92287   0.11143   0.14262   0.00000  Uiso   1.00
H219   H     0.90271   0.15762   0.10038   0.00000  Uiso   1.00
H220   H     0.82590   0.13111   0.10655   0.00000  Uiso   1.00
H221   H     0.86037   0.08348   0.08671   0.00000  Uiso   1.00
H222   H     0.84482   0.08478   0.14931   0.00000  Uiso   1.00
H223   H     0.85028   0.28329   0.07125   0.00000  Uiso   1.00
H224   H     0.89869   0.31422   0.05255   0.00000  Uiso   1.00
H225   H     0.85875   0.38946   0.04719   0.00000  Uiso   1.00
H226   H     0.82507   0.34479   0.01488   0.00000  Uiso   1.00
H227   H     0.81188   0.36364   0.07518   0.00000  Uiso   1.00
H228   H     0.52866   0.17854   0.14367   0.00000  Uiso   1.00
H229   H     0.57772   0.11106   0.19090   0.00000  Uiso   1.00
H230   H     0.59704   0.15772   0.23303   0.00000  Uiso   1.00
H231   H     0.67432   0.13238   0.22725   0.00000  Uiso   1.00
H232   H     0.64041   0.08445   0.24733   0.00000  Uiso   1.00
H233   H     0.65611   0.08548   0.18477   0.00000  Uiso   1.00
H234   H     0.75593   0.48375   0.26341   0.00000  Uiso   1.00
H235   H     0.75914   0.04101   0.29450   0.00000  Uiso   1.00
H236   H     0.79513   0.46523   0.00612   0.00000  Uiso   1.00
H237   H     0.82696   0.01957   0.00696   0.00000  Uiso   1.00
H238   H     0.83836   0.47227   0.29854   0.00000  Uiso   1.00
H239   H     0.83771   0.16813   0.24339   0.00000  Uiso   1.00
H240   H     0.67630   0.00804   0.22323   0.00000  Uiso   1.00
H241   H     0.66465   0.44541   0.23018   0.00000  Uiso   1.00
H242   H     0.58997   0.45543   0.19015   0.00000  Uiso   1.00
H243   H     0.59897   0.49551   0.24191   0.00000  Uiso   1.00
H244   H     0.60025   0.01804   0.17992   0.00000  Uiso   1.00
H245   H     0.74725   0.48132   0.07181   0.00000  Uiso   1.00
H246   H     0.74789   0.03861   0.04138   0.00000  Uiso   1.00
H247   H     0.71187   0.46222   0.32841   0.00000  Uiso   1.00
H248   H     0.68421   0.01913   0.32187   0.00000  Uiso   1.00
H249   H     0.66542   0.47498   0.02978   0.00000  Uiso   1.00
H250   H     0.84763   0.10462   0.24215   0.00000  Uiso   1.00
H251   H     0.82635   0.00568   0.11158   0.00000  Uiso   1.00
H252   H     0.83996   0.44317   0.10700   0.00000  Uiso   1.00
H253   H     0.91277   0.45622   0.15036   0.00000  Uiso   1.00
H254   H     0.90498   0.49509   0.09752   0.00000  Uiso   1.00
H255   H     0.90041   0.01866   0.15867   0.00000  Uiso   1.00
H256   H     0.82802   0.10214   0.33096   0.00000  Uiso   1.00
H257   H     0.87586   0.13827   0.32119   0.00000  Uiso   1.00
H258   H     0.82334   0.16626   0.32974   0.00000  Uiso   1.00
N259   N     0.75000   0.12934   0.16667   0.00000  Uiso   1.00
N260   N     0.75000   0.37066   0.16667   0.00000  Uiso   1.00
O261   O     0.68573   0.29072   0.16667   0.00000  Uiso   1.00
O262   O     0.67258   0.37317   0.14265   0.00000  Uiso   1.00
O263   O     0.71822   0.12741   0.08384   0.00000  Uiso   1.00
O264   O     0.82767   0.37328   0.19075   0.00000  Uiso   1.00
O265   O     0.61784   0.32906   0.20973   0.00000  Uiso   1.00
O266   O     0.88715   0.16405   0.17504   0.00000  Uiso   1.00
O267   O     0.88218   0.32902   0.12378   0.00000  Uiso   1.00
O268   O     0.61285   0.16404   0.15841   0.00000  Uiso   1.00
O269   O     0.80185   0.03171   0.23961   0.00000  Uiso   1.00
O270   O     0.67039   0.46972   0.15802   0.00000  Uiso   1.00
O271   O     0.70101   0.03076   0.09238   0.00000  Uiso   1.00
O272   O     0.81427   0.20928   0.16666   0.00000  Uiso   1.00
O273   O     0.83042   0.46882   0.17771   0.00000  Uiso   1.00
O274   O     0.81427   0.29072   0.16666   0.00000  Uiso   1.00
O275   O     0.68573   0.20929   0.16667   0.00000  Uiso   1.00
O276   O     0.75000   0.29071   0.09613   0.00000  Uiso   1.00
O277   O     0.75000   0.20929   0.23720   0.00000  Uiso   1.00
O278   O     0.75000   0.29071   0.23720   0.00000  Uiso   1.00
O279   O     0.75000   0.20929   0.09613   0.00000  Uiso   1.00
O280   O     0.78177   0.12785   0.24951   0.00000  Uiso   1.00
C281   C     0.16518   0.74992   0.16888   0.00000  Uiso   1.00
C282   C     0.28977   0.94642   0.17335   0.00000  Uiso   1.00
C283   C     0.24974   0.74999   0.07358   0.00000  Uiso   1.00
C284   C     0.25022   0.75001   0.25975   0.00000  Uiso   1.00
C285   C     0.25061   0.52744   0.16676   0.00000  Uiso   1.00
C286   C     0.25042   0.97307   0.16704   0.00000  Uiso   1.00
C287   C     0.24989   0.75000   0.02184   0.00000  Uiso   1.00
C288   C     0.25006   0.75002   0.31149   0.00000  Uiso   1.00
C289   C     0.04868   0.79189   0.18509   0.00000  Uiso   1.00
C290   C     0.45346   0.71021   0.17735   0.00000  Uiso   1.00
C291   C     0.45134   0.79192   0.14867   0.00000  Uiso   1.00
C292   C     0.33483   0.74992   0.16453   0.00000  Uiso   1.00
C293   C     0.04655   0.71021   0.15625   0.00000  Uiso   1.00
C294   C     0.09486   0.79062   0.18874   0.00000  Uiso   1.00
C295   C     0.40767   0.70781   0.17166   0.00000  Uiso   1.00
C296   C     0.40516   0.79066   0.14494   0.00000  Uiso   1.00
C297   C     0.09235   0.70781   0.16186   0.00000  Uiso   1.00
C298   C     0.11699   0.74959   0.17278   0.00000  Uiso   1.00
C299   C     0.38302   0.74961   0.16077   0.00000  Uiso   1.00
C300   C     0.02430   0.75194   0.16803   0.00000  Uiso   1.00
C301   C     0.47571   0.75195   0.16568   0.00000  Uiso   1.00
C302   C     0.32792   0.63339   0.25826   0.00000  Uiso   1.00
C303   C     0.27062   0.60458   0.20560   0.00000  Uiso   1.00
C304   C     0.33953   0.63506   0.31349   0.00000  Uiso   1.00
C305   C     0.16165   0.87872   0.09177   0.00000  Uiso   1.00
C306   C     0.12320   0.84592   0.07598   0.00000  Uiso   1.00
C307   C     0.17195   0.63225   0.07561   0.00000  Uiso   1.00
C308   C     0.15968   0.63286   0.02051   0.00000  Uiso   1.00
C309   C     0.33494   0.87131   0.24251   0.00000  Uiso   1.00
C310   C     0.38421   0.87616   0.25648   0.00000  Uiso   1.00
C311   C     0.13146   0.81738   0.25904   0.00000  Uiso   1.00
C312   C     0.16183   0.85618   0.28116   0.00000  Uiso   1.00
C313   C     0.39488   0.63616   0.13317   0.00000  Uiso   1.00
C314   C     0.21177   0.89637   0.15544   0.00000  Uiso   1.00
C315   C     0.35385   0.60705   0.11807   0.00000  Uiso   1.00
C316   C     0.36920   0.81738   0.07427   0.00000  Uiso   1.00
C317   C     0.33937   0.85638   0.05160   0.00000  Uiso   1.00
C318   C     0.10534   0.63626   0.20038   0.00000  Uiso   1.00
C319   C     0.14672   0.60785   0.21582   0.00000  Uiso   1.00
C320   C     0.27852   0.51262   0.27753   0.00000  Uiso   1.00
C321   C     0.31168   0.99119   0.31631   0.00000  Uiso   1.00
C322   C     0.15800   0.97713   0.20626   0.00000  Uiso   1.00
C323   C     0.10869   0.98722   0.20441   0.00000  Uiso   1.00
C324   C     0.22633   0.51100   0.05637   0.00000  Uiso   1.00
C325   C     0.22989   0.60425   0.12765   0.00000  Uiso   1.00
C326   C     0.19514   0.99069   0.01497   0.00000  Uiso   1.00
C327   C     0.34473   0.97565   0.13022   0.00000  Uiso   1.00
C328   C     0.39381   0.98719   0.13449   0.00000  Uiso   1.00
C329   C     0.28838   0.89611   0.17792   0.00000  Uiso   1.00
C330   C     0.27309   0.55396   0.20507   0.00000  Uiso   1.00
C331   C     0.21081   0.94681   0.16064   0.00000  Uiso   1.00
C332   C     0.22818   0.55358   0.12811   0.00000  Uiso   1.00
Cu333  Cu    0.25000   0.79822   0.16667   0.00000  Uiso   1.00
Cu334  Cu    0.25000   0.70178   0.16667   0.00000  Uiso   1.00
H335   H     0.03203   0.82351   0.19714   0.00000  Uiso   1.00
H336   H     0.19003   0.86956   0.06985   0.00000  Uiso   1.00
H337   H     0.15086   0.91588   0.08362   0.00000  Uiso   1.00
H338   H     0.09521   0.85248   0.09907   0.00000  Uiso   1.00
H339   H     0.11180   0.85293   0.03705   0.00000  Uiso   1.00
H340   H     0.13363   0.80804   0.07965   0.00000  Uiso   1.00
H341   H     0.16198   0.66714   0.09007   0.00000  Uiso   1.00
H342   H     0.15279   0.60346   0.09246   0.00000  Uiso   1.00
H343   H     0.17035   0.59923   0.00368   0.00000  Uiso   1.00
H344   H     0.12335   0.63666   0.01330   0.00000  Uiso   1.00
H345   H     0.17614   0.66329   0.00325   0.00000  Uiso   1.00
H346   H     0.47136   0.67854   0.18991   0.00000  Uiso   1.00
H347   H     0.32387   0.83613   0.25559   0.00000  Uiso   1.00
H348   H     0.31738   0.89958   0.26222   0.00000  Uiso   1.00
H349   H     0.39620   0.91112   0.24372   0.00000  Uiso   1.00
H350   H     0.39077   0.87394   0.29698   0.00000  Uiso   1.00
H351   H     0.40253   0.84707   0.23926   0.00000  Uiso   1.00
H352   H     0.15019   0.78316   0.26179   0.00000  Uiso   1.00
H353   H     0.10229   0.81447   0.28127   0.00000  Uiso   1.00
H354   H     0.14261   0.88919   0.28670   0.00000  Uiso   1.00
H355   H     0.17722   0.84416   0.31724   0.00000  Uiso   1.00
H356   H     0.18856   0.86371   0.25665   0.00000  Uiso   1.00
H357   H     0.46800   0.82353   0.13667   0.00000  Uiso   1.00
H358   H     0.42287   0.61143   0.14262   0.00000  Uiso   1.00
H359   H     0.40271   0.65762   0.10038   0.00000  Uiso   1.00
H360   H     0.32590   0.63111   0.10655   0.00000  Uiso   1.00
H361   H     0.36037   0.58348   0.08671   0.00000  Uiso   1.00
H362   H     0.34482   0.58478   0.14931   0.00000  Uiso   1.00
H363   H     0.35028   0.78329   0.07125   0.00000  Uiso   1.00
H364   H     0.39869   0.81422   0.05255   0.00000  Uiso   1.00
H365   H     0.35875   0.88946   0.04719   0.00000  Uiso   1.00
H366   H     0.32507   0.84479   0.01488   0.00000  Uiso   1.00
H367   H     0.31188   0.86364   0.07518   0.00000  Uiso   1.00
H368   H     0.02866   0.67854   0.14367   0.00000  Uiso   1.00
H369   H     0.07772   0.61106   0.19090   0.00000  Uiso   1.00
H370   H     0.09704   0.65772   0.23303   0.00000  Uiso   1.00
H371   H     0.17432   0.63238   0.22725   0.00000  Uiso   1.00
H372   H     0.14041   0.58445   0.24733   0.00000  Uiso   1.00
H373   H     0.15611   0.58548   0.18477   0.00000  Uiso   1.00
H374   H     0.25593   0.98375   0.26341   0.00000  Uiso   1.00
H375   H     0.25914   0.54101   0.29450   0.00000  Uiso   1.00
H376   H     0.29513   0.96523   0.00612   0.00000  Uiso   1.00
H377   H     0.32696   0.51957   0.00696   0.00000  Uiso   1.00
H378   H     0.33836   0.97227   0.29854   0.00000  Uiso   1.00
H379   H     0.33771   0.66813   0.24339   0.00000  Uiso   1.00
H380   H     0.17630   0.50804   0.22323   0.00000  Uiso   1.00
H381   H     0.16465   0.94541   0.23018   0.00000  Uiso   1.00
H382   H     0.08997   0.95543   0.19015   0.00000  Uiso   1.00
H383   H     0.09897   0.99551   0.24191   0.00000  Uiso   1.00
H384   H     0.10025   0.51804   0.17992   0.00000  Uiso   1.00
H385   H     0.24725   0.98132   0.07181   0.00000  Uiso   1.00
H386   H     0.24789   0.53861   0.04138   0.00000  Uiso   1.00
H387   H     0.21187   0.96222   0.32841   0.00000  Uiso   1.00
H388   H     0.18421   0.51913   0.32187   0.00000  Uiso   1.00
H389   H     0.16542   0.97498   0.02978   0.00000  Uiso   1.00
H390   H     0.34763   0.60462   0.24215   0.00000  Uiso   1.00
H391   H     0.32635   0.50568   0.11158   0.00000  Uiso   1.00
H392   H     0.33996   0.94317   0.10700   0.00000  Uiso   1.00
H393   H     0.41277   0.95622   0.15036   0.00000  Uiso   1.00
H394   H     0.40498   0.99509   0.09752   0.00000  Uiso   1.00
H395   H     0.40041   0.51866   0.15867   0.00000  Uiso   1.00
H396   H     0.32802   0.60214   0.33096   0.00000  Uiso   1.00
H397   H     0.37586   0.63827   0.32119   0.00000  Uiso   1.00
H398   H     0.32334   0.66626   0.32974   0.00000  Uiso   1.00
N399   N     0.25000   0.62934   0.16667   0.00000  Uiso   1.00
N400   N     0.25000   0.87066   0.16667   0.00000  Uiso   1.00
O401   O     0.18573   0.79072   0.16667   0.00000  Uiso   1.00
O402   O     0.17258   0.87317   0.14265   0.00000  Uiso   1.00
O403   O     0.21822   0.62741   0.08384   0.00000  Uiso   1.00
O404   O     0.32767   0.87328   0.19075   0.00000  Uiso   1.00
O405   O     0.11784   0.82906   0.20973   0.00000  Uiso   1.00
O406   O     0.38715   0.66405   0.17504   0.00000  Uiso   1.00
O407   O     0.38218   0.82902   0.12378   0.00000  Uiso   1.00
O408   O     0.11285   0.66404   0.15841   0.00000  Uiso   1.00
O409   O     0.30185   0.53171   0.23961   0.00000  Uiso   1.00
O410   O     0.17039   0.96972   0.15802   0.00000  Uiso   1.00
O411   O     0.20101   0.53076   0.09238   0.00000  Uiso   1.00
O412   O     0.31427   0.70928   0.16666   0.00000  Uiso   1.00
O413   O     0.33042   0.96882   0.17771   0.00000  Uiso   1.00
O414   O     0.31427   0.79072   0.16666   0.00000  Uiso   1.00
O415   O     0.18573   0.70929   0.16667   0.00000  Uiso   1.00
O416   O     0.25000   0.79071   0.09613   0.00000  Uiso   1.00
O417   O     0.25000   0.70929   0.23720   0.00000  Uiso   1.00
O418   O     0.25000   0.79071   0.23720   0.00000  Uiso   1.00
O419   O     0.25000   0.70929   0.09613   0.00000  Uiso   1.00
O420   O     0.28177   0.62785   0.24951   0.00000  Uiso   1.00
C421   C     0.66518   0.74992   0.16888   0.00000  Uiso   1.00
C422   C     0.78977   0.94642   0.17335   0.00000  Uiso   1.00
C423   C     0.74974   0.74999   0.07358   0.00000  Uiso   1.00
C424   C     0.75022   0.75001   0.25975   0.00000  Uiso   1.00
C425   C     0.75061   0.52744   0.16676   0.00000  Uiso   1.00
C426   C     0.75042   0.97307   0.16704   0.00000  Uiso   1.00
C427   C     0.74989   0.75000   0.02184   0.00000  Uiso   1.00
C428   C     0.75006   0.75002   0.31149   0.00000  Uiso   1.00
C429   C     0.54868   0.79189   0.18509   0.00000  Uiso   1.00
C430   C     0.95346   0.71021   0.17735   0.00000  Uiso   1.00
C431   C     0.95134   0.79192   0.14867   0.00000  Uiso   1.00
C432   C     0.83483   0.74992   0.16453   0.00000  Uiso   1.00
C433   C     0.54655   0.71021   0.15625   0.00000  Uiso   1.00
C434   C     0.59486   0.79062   0.18874   0.00000  Uiso   1.00
C435   C     0.90767   0.70781   0.17166   0.00000  Uiso   1.00
C436   C     0.90516   0.79066   0.14494   0.00000  Uiso   1.00
C437   C     0.59235   0.70781   0.16186   0.00000  Uiso   1.00
C438   C     0.61699   0.74959   0.17278   0.00000  Uiso   1.00
C439   C     0.88302   0.74961   0.16077   0.00000  Uiso   1.00
C440   C     0.52430   0.75194   0.16803   0.00000  Uiso   1.00
C441   C     0.97571   0.75195   0.16568   0.00000  Uiso   1.00
C442   C     0.82792   0.63339   0.25826   0.00000  Uiso   1.00
C443   C     0.77062   0.60458   0.20560   0.00000  Uiso   1.00
C444   C     0.83953   0.63506   0.31349   0.00000  Uiso   1.00
C445   C     0.66165   0.87872   0.09177   0.00000  Uiso   1.00
C446   C     0.62320   0.84592   0.07598   0.00000  Uiso   1.00
C447   C     0.67195   0.63225   0.07561   0.00000  Uiso   1.00
C448   C     0.65968   0.63286   0.02051   0.00000  Uiso   1.00
C449   C     0.83494   0.87131   0.24251   0.00000  Uiso   1.00
C450   C     0.88421   0.87616   0.25648   0.00000  Uiso   1.00
C451   C     0.63146   0.81738   0.25904   0.00000  Uiso   1.00
C452   C     0.66183   0.85618   0.28116   0.00000  Uiso   1.00
C453   C     0.89488   0.63616   0.13317   0.00000  Uiso   1.00
C454   C     0.71177   0.89637   0.15544   0.00000  Uiso   1.00
C455   C     0.85385   0.60705   0.11807   0.00000  Uiso   1.00
C456   C     0.86920   0.81738   0.07427   0.00000  Uiso   1.00
C457   C     0.83937   0.85638   0.05160   0.00000  Uiso   1.00
C458   C     0.60534   0.63626   0.20038   0.00000  Uiso   1.00
C459   C     0.64672   0.60785   0.21582   0.00000  Uiso   1.00
C460   C     0.77852   0.51262   0.27753   0.00000  Uiso   1.00
C461   C     0.81168   0.99119   0.31631   0.00000  Uiso   1.00
C462   C     0.65800   0.97713   0.20626   0.00000  Uiso   1.00
C463   C     0.60869   0.98722   0.20441   0.00000  Uiso   1.00
C464   C     0.72633   0.51100   0.05637   0.00000  Uiso   1.00
C465   C     0.72989   0.60425   0.12765   0.00000  Uiso   1.00
C466   C     0.69514   0.99069   0.01497   0.00000  Uiso   1.00
C467   C     0.84473   0.97565   0.13022   0.00000  Uiso   1.00
C468   C     0.89381   0.98719   0.13449   0.00000  Uiso   1.00
C469   C     0.78838   0.89611   0.17792   0.00000  Uiso   1.00
C470   C     0.77309   0.55396   0.20507   0.00000  Uiso   1.00
C471   C     0.71081   0.94681   0.16064   0.00000  Uiso   1.00
C472   C     0.72818   0.55358   0.12811   0.00000  Uiso   1.00
Cu473  Cu    0.75000   0.79822   0.16667   0.00000  Uiso   1.00
Cu474  Cu    0.75000   0.70178   0.16667   0.00000  Uiso   1.00
H475   H     0.53203   0.82351   0.19714   0.00000  Uiso   1.00
H476   H     0.69003   0.86956   0.06985   0.00000  Uiso   1.00
H477   H     0.65086   0.91588   0.08362   0.00000  Uiso   1.00
H478   H     0.59521   0.85248   0.09907   0.00000  Uiso   1.00
H479   H     0.61180   0.85293   0.03705   0.00000  Uiso   1.00
H480   H     0.63363   0.80804   0.07965   0.00000  Uiso   1.00
H481   H     0.66198   0.66714   0.09007   0.00000  Uiso   1.00
H482   H     0.65279   0.60346   0.09246   0.00000  Uiso   1.00
H483   H     0.67035   0.59923   0.00368   0.00000  Uiso   1.00
H484   H     0.62335   0.63666   0.01330   0.00000  Uiso   1.00
H485   H     0.67614   0.66329   0.00325   0.00000  Uiso   1.00
H486   H     0.97136   0.67854   0.18991   0.00000  Uiso   1.00
H487   H     0.82387   0.83613   0.25559   0.00000  Uiso   1.00
H488   H     0.81738   0.89958   0.26222   0.00000  Uiso   1.00
H489   H     0.89620   0.91112   0.24372   0.00000  Uiso   1.00
H490   H     0.89077   0.87394   0.29698   0.00000  Uiso   1.00
H491   H     0.90253   0.84707   0.23926   0.00000  Uiso   1.00
H492   H     0.65019   0.78316   0.26179   0.00000  Uiso   1.00
H493   H     0.60229   0.81447   0.28127   0.00000  Uiso   1.00
H494   H     0.64261   0.88919   0.28670   0.00000  Uiso   1.00
H495   H     0.67722   0.84416   0.31724   0.00000  Uiso   1.00
H496   H     0.68856   0.86371   0.25665   0.00000  Uiso   1.00
H497   H     0.96800   0.82353   0.13667   0.00000  Uiso   1.00
H498   H     0.92287   0.61143   0.14262   0.00000  Uiso   1.00
H499   H     0.90271   0.65762   0.10038   0.00000  Uiso   1.00
H500   H     0.82590   0.63111   0.10655   0.00000  Uiso   1.00
H501   H     0.86037   0.58348   0.08671   0.00000  Uiso   1.00
H502   H     0.84482   0.58478   0.14931   0.00000  Uiso   1.00
H503   H     0.85028   0.78329   0.07125   0.00000  Uiso   1.00
H504   H     0.89869   0.81422   0.05255   0.00000  Uiso   1.00
H505   H     0.85875   0.88946   0.04719   0.00000  Uiso   1.00
H506   H     0.82507   0.84479   0.01488   0.00000  Uiso   1.00
H507   H     0.81188   0.86364   0.07518   0.00000  Uiso   1.00
H508   H     0.52866   0.67854   0.14367   0.00000  Uiso   1.00
H509   H     0.57772   0.61106   0.19090   0.00000  Uiso   1.00
H510   H     0.59704   0.65772   0.23303   0.00000  Uiso   1.00
H511   H     0.67432   0.63238   0.22725   0.00000  Uiso   1.00
H512   H     0.64041   0.58445   0.24733   0.00000  Uiso   1.00
H513   H     0.65611   0.58548   0.18477   0.00000  Uiso   1.00
H514   H     0.75593   0.98375   0.26341   0.00000  Uiso   1.00
H515   H     0.75914   0.54101   0.29450   0.00000  Uiso   1.00
H516   H     0.79513   0.96523   0.00612   0.00000  Uiso   1.00
H517   H     0.82696   0.51957   0.00696   0.00000  Uiso   1.00
H518   H     0.83836   0.97227   0.29854   0.00000  Uiso   1.00
H519   H     0.83771   0.66813   0.24339   0.00000  Uiso   1.00
H520   H     0.67630   0.50804   0.22323   0.00000  Uiso   1.00
H521   H     0.66465   0.94541   0.23018   0.00000  Uiso   1.00
H522   H     0.58997   0.95543   0.19015   0.00000  Uiso   1.00
H523   H     0.59897   0.99551   0.24191   0.00000  Uiso   1.00
H524   H     0.60025   0.51804   0.17992   0.00000  Uiso   1.00
H525   H     0.74725   0.98132   0.07181   0.00000  Uiso   1.00
H526   H     0.74789   0.53861   0.04138   0.00000  Uiso   1.00
H527   H     0.71187   0.96222   0.32841   0.00000  Uiso   1.00
H528   H     0.68421   0.51913   0.32187   0.00000  Uiso   1.00
H529   H     0.66542   0.97498   0.02978   0.00000  Uiso   1.00
H530   H     0.84763   0.60462   0.24215   0.00000  Uiso   1.00
H531   H     0.82635   0.50568   0.11158   0.00000  Uiso   1.00
H532   H     0.83996   0.94317   0.10700   0.00000  Uiso   1.00
H533   H     0.91277   0.95622   0.15036   0.00000  Uiso   1.00
H534   H     0.90498   0.99509   0.09752   0.00000  Uiso   1.00
H535   H     0.90041   0.51866   0.15867   0.00000  Uiso   1.00
H536   H     0.82802   0.60214   0.33096   0.00000  Uiso   1.00
H537   H     0.87586   0.63827   0.32119   0.00000  Uiso   1.00
H538   H     0.82334   0.66626   0.32974   0.00000  Uiso   1.00
N539   N     0.75000   0.62934   0.16667   0.00000  Uiso   1.00
N540   N     0.75000   0.87066   0.16667   0.00000  Uiso   1.00
O541   O     0.68573   0.79072   0.16667   0.00000  Uiso   1.00
O542   O     0.67258   0.87317   0.14265   0.00000  Uiso   1.00
O543   O     0.71822   0.62741   0.08384   0.00000  Uiso   1.00
O544   O     0.82767   0.87328   0.19075   0.00000  Uiso   1.00
O545   O     0.61784   0.82906   0.20973   0.00000  Uiso   1.00
O546   O     0.88715   0.66405   0.17504   0.00000  Uiso   1.00
O547   O     0.88218   0.82902   0.12378   0.00000  Uiso   1.00
O548   O     0.61285   0.66404   0.15841   0.00000  Uiso   1.00
O549   O     0.80185   0.53171   0.23961   0.00000  Uiso   1.00
O550   O     0.67039   0.96972   0.15802   0.00000  Uiso   1.00
O551   O     0.70101   0.53076   0.09238   0.00000  Uiso   1.00
O552   O     0.81427   0.70928   0.16666   0.00000  Uiso   1.00
O553   O     0.83042   0.96882   0.17771   0.00000  Uiso   1.00
O554   O     0.81427   0.79072   0.16666   0.00000  Uiso   1.00
O555   O     0.68573   0.70929   0.16667   0.00000  Uiso   1.00
O556   O     0.75000   0.79071   0.09613   0.00000  Uiso   1.00
O557   O     0.75000   0.70929   0.23720   0.00000  Uiso   1.00
O558   O     0.75000   0.79071   0.23720   0.00000  Uiso   1.00
O559   O     0.75000   0.70929   0.09613   0.00000  Uiso   1.00
O560   O     0.78177   0.62785   0.24951   0.00000  Uiso   1.00
C561   C     0.16518   0.24992   0.50222   0.00000  Uiso   1.00
C562   C     0.28977   0.44642   0.50669   0.00000  Uiso   1.00
C563   C     0.24974   0.24999   0.40692   0.00000  Uiso   1.00
C564   C     0.25022   0.25001   0.59308   0.00000  Uiso   1.00
C565   C     0.25061   0.02744   0.50009   0.00000  Uiso   1.00
C566   C     0.25042   0.47307   0.50037   0.00000  Uiso   1.00
C567   C     0.24989   0.25000   0.35517   0.00000  Uiso   1.00
C568   C     0.25006   0.25002   0.64482   0.00000  Uiso   1.00
C569   C     0.04868   0.29189   0.51842   0.00000  Uiso   1.00
C570   C     0.45346   0.21021   0.51068   0.00000  Uiso   1.00
C571   C     0.45134   0.29192   0.48200   0.00000  Uiso   1.00
C572   C     0.33483   0.24992   0.49786   0.00000  Uiso   1.00
C573   C     0.04655   0.21021   0.48958   0.00000  Uiso   1.00
C574   C     0.09486   0.29062   0.52207   0.00000  Uiso   1.00
C575   C     0.40767   0.20781   0.50499   0.00000  Uiso   1.00
C576   C     0.40516   0.29066   0.47828   0.00000  Uiso   1.00
C577   C     0.09235   0.20781   0.49519   0.00000  Uiso   1.00
C578   C     0.11699   0.24959   0.50611   0.00000  Uiso   1.00
C579   C     0.38302   0.24961   0.49411   0.00000  Uiso   1.00
C580   C     0.02430   0.25194   0.50136   0.00000  Uiso   1.00
C581   C     0.47571   0.25195   0.49902   0.00000  Uiso   1.00
C582   C     0.32792   0.13339   0.59160   0.00000  Uiso   1.00
C583   C     0.27062   0.10458   0.53893   0.00000  Uiso   1.00
C584   C     0.33953   0.13506   0.64682   0.00000  Uiso   1.00
C585   C     0.16165   0.37872   0.42510   0.00000  Uiso   1.00
C586   C     0.12320   0.34592   0.40932   0.00000  Uiso   1.00
C587   C     0.17195   0.13225   0.40895   0.00000  Uiso   1.00
C588   C     0.15968   0.13286   0.35384   0.00000  Uiso   1.00
C589   C     0.33494   0.37131   0.57584   0.00000  Uiso   1.00
C590   C     0.38421   0.37616   0.58982   0.00000  Uiso   1.00
C591   C     0.13146   0.31738   0.59238   0.00000  Uiso   1.00
C592   C     0.16183   0.35618   0.61449   0.00000  Uiso   1.00
C593   C     0.39488   0.13616   0.46650   0.00000  Uiso   1.00
C594   C     0.21177   0.39637   0.48877   0.00000  Uiso   1.00
C595   C     0.35385   0.10705   0.45140   0.00000  Uiso   1.00
C596   C     0.36920   0.31738   0.40760   0.00000  Uiso   1.00
C597   C     0.33937   0.35638   0.38494   0.00000  Uiso   1.00
C598   C     0.10534   0.13626   0.53372   0.00000  Uiso   1.00
C599   C     0.14672   0.10785   0.54915   0.00000  Uiso   1.00
C600   C     0.27852   0.01262   0.61086   0.00000  Uiso   1.00
C601   C     0.31168   0.49119   0.64965   0.00000  Uiso   1.00
C602   C     0.15800   0.47713   0.53960   0.00000  Uiso   1.00
C603   C     0.10869   0.48722   0.53774   0.00000  Uiso   1.00
C604   C     0.22633   0.01100   0.38970   0.00000  Uiso   1.00
C605   C     0.22989   0.10425   0.46098   0.00000  Uiso   1.00
C606   C     0.19514   0.49069   0.34830   0.00000  Uiso   1.00
C607   C     0.34473   0.47565   0.46355   0.00000  Uiso   1.00
C608   C     0.39381   0.48719   0.46782   0.00000  Uiso   1.00
C609   C     0.28838   0.39611   0.51126   0.00000  Uiso   1.00
C610   C     0.27309   0.05396   0.53841   0.00000  Uiso   1.00
C611   C     0.21081   0.44681   0.49397   0.00000  Uiso   1.00
C612   C     0.22818   0.05358   0.46145   0.00000  Uiso   1.00
Cu613  Cu    0.25000   0.29822   0.50000   0.00000  Uiso   1.00
Cu614  Cu    0.25000   0.20178   0.50000   0.00000  Uiso   1.00
H615   H     0.03203   0.32351   0.53047   0.00000  Uiso   1.00
H616   H     0.19003   0.36956   0.40318   0.00000  Uiso   1.00
H617   H     0.15086   0.41588   0.41696   0.00000  Uiso   1.00
H618   H     0.09521   0.35248   0.43240   0.00000  Uiso   1.00
H619   H     0.11180   0.35293   0.37039   0.00000  Uiso   1.00
H620   H     0.13363   0.30804   0.41299   0.00000  Uiso   1.00
H621   H     0.16198   0.16714   0.42340   0.00000  Uiso   1.00
H622   H     0.15279   0.10346   0.42579   0.00000  Uiso   1.00
H623   H     0.17035   0.09923   0.33701   0.00000  Uiso   1.00
H624   H     0.12335   0.13666   0.34664   0.00000  Uiso   1.00
H625   H     0.17614   0.16329   0.33659   0.00000  Uiso   1.00
H626   H     0.47136   0.17854   0.52324   0.00000  Uiso   1.00
H627   H     0.32387   0.33613   0.58892   0.00000  Uiso   1.00
H628   H     0.31738   0.39958   0.59555   0.00000  Uiso   1.00
H629   H     0.39620   0.41112   0.57706   0.00000  Uiso   1.00
H630   H     0.39077   0.37394   0.63032   0.00000  Uiso   1.00
H631   H     0.40253   0.34707   0.57259   0.00000  Uiso   1.00
H632   H     0.15019   0.28316   0.59512   0.00000  Uiso   1.00
H633   H     0.10229   0.31447   0.61461   0.00000  Uiso   1.00
H634   H     0.14261   0.38919   0.62004   0.00000  Uiso   1.00
H635   H     0.17722   0.34416   0.65057   0.00000  Uiso   1.00
H636   H     0.18856   0.36371   0.58998   0.00000  Uiso   1.00
H637   H     0.46800   0.32353   0.47000   0.00000  Uiso   1.00
H638   H     0.42287   0.11143   0.47596   0.00000  Uiso   1.00
H639   H     0.40271   0.15762   0.43372   0.00000  Uiso   1.00
H640   H     0.32590   0.13111   0.43989   0.00000  Uiso   1.00
H641   H     0.36037   0.08348   0.42004   0.00000  Uiso   1.00
H642   H     0.34482   0.08478   0.48264   0.00000  Uiso   1.00
H643   H     0.35028   0.28329   0.40459   0.00000  Uiso   1.00
H644   H     0.39869   0.31422   0.38588   0.00000  Uiso   1.00
H645   H     0.35875   0.38946   0.38053   0.00000  Uiso   1.00
H646   H     0.32507   0.34479   0.34821   0.00000  Uiso   1.00
H647   H     0.31188   0.36364   0.40852   0.00000  Uiso   1.00
H648   H     0.02866   0.17854   0.47700   0.00000  Uiso   1.00
H649   H     0.07772   0.11106   0.52423   0.00000  Uiso   1.00
H650   H     0.09704   0.15772   0.56636   0.00000  Uiso   1.00
H651   H     0.17432   0.13238   0.56058   0.00000  Uiso   1.00
H652   H     0.14041   0.08445   0.58066   0.00000  Uiso   1.00
H653   H     0.15611   0.08548   0.51811   0.00000  Uiso   1.00
H654   H     0.25593   0.48375   0.59675   0.00000  Uiso   1.00
H655   H     0.25914   0.04101   0.62783   0.00000  Uiso   1.00
H656   H     0.29513   0.46523   0.33945   0.00000  Uiso   1.00
H657   H     0.32696   0.01957   0.34029   0.00000  Uiso   1.00
H658   H     0.33836   0.47227   0.63187   0.00000  Uiso   1.00
H659   H     0.33771   0.16813   0.57672   0.00000  Uiso   1.00
H660   H     0.17630   0.00804   0.55656   0.00000  Uiso   1.00
H661   H     0.16465   0.44541   0.56351   0.00000  Uiso   1.00
H662   H     0.08997   0.45543   0.52348   0.00000  Uiso   1.00
H663   H     0.09897   0.49551   0.57525   0.00000  Uiso   1.00
H664   H     0.10025   0.01804   0.51325   0.00000  Uiso   1.00
H665   H     0.24725   0.48132   0.40514   0.00000  Uiso   1.00
H666   H     0.24789   0.03861   0.37472   0.00000  Uiso   1.00
H667   H     0.21187   0.46222   0.66174   0.00000  Uiso   1.00
H668   H     0.18421   0.01913   0.65521   0.00000  Uiso   1.00
H669   H     0.16542   0.47498   0.36312   0.00000  Uiso   1.00
H670   H     0.34763   0.10462   0.57549   0.00000  Uiso   1.00
H671   H     0.32635   0.00568   0.44491   0.00000  Uiso   1.00
H672   H     0.33996   0.44317   0.44034   0.00000  Uiso   1.00
H673   H     0.41277   0.45622   0.48369   0.00000  Uiso   1.00
H674   H     0.40498   0.49509   0.43086   0.00000  Uiso   1.00
H675   H     0.40041   0.01866   0.49200   0.00000  Uiso   1.00
H676   H     0.32802   0.10214   0.66430   0.00000  Uiso   1.00
H677   H     0.37586   0.13827   0.65452   0.00000  Uiso   1.00
H678   H     0.32334   0.16626   0.66307   0.00000  Uiso   1.00
N679   N     0.25000   0.12934   0.50000   0.00000  Uiso   1.00
N680   N     0.25000   0.37066   0.50000   0.00000  Uiso   1.00
O681   O     0.18573   0.29072   0.50000   0.00000  Uiso   1.00
O682   O     0.17258   0.37317   0.47598   0.00000  Uiso   1.00
O683   O     0.21822   0.12741   0.41717   0.00000  Uiso   1.00
O684   O     0.32767   0.37328   0.52408   0.00000  Uiso   1.00
O685   O     0.11784   0.32906   0.54306   0.00000  Uiso   1.00
O686   O     0.38715   0.16405   0.50837   0.00000  Uiso   1.00
O687   O     0.38218   0.32902   0.45711   0.00000  Uiso   1.00
O688   O     0.11285   0.16404   0.49175   0.00000  Uiso   1.00
O689   O     0.30185   0.03171   0.57294   0.00000  Uiso   1.00
O690   O     0.17039   0.46972   0.49135   0.00000  Uiso   1.00
O691   O     0.20101   0.03076   0.42572   0.00000  Uiso   1.00
O692   O     0.31427   0.20928   0.50000   0.00000  Uiso   1.00
O693   O     0.33042   0.46882   0.51104   0.00000  Uiso   1.00
O694   O     0.31427   0.29072   0.50000   0.00000  Uiso   1.00
O695   O     0.18573   0.20929   0.50000   0.00000  Uiso   1.00
O696   O     0.25000   0.29071   0.42946   0.00000  Uiso   1.00
O697   O     0.25000   0.20929   0.57054   0.00000  Uiso   1.00
O698   O     0.25000   0.29071   0.57054   0.00000  Uiso   1.00
O699   O     0.25000   0.20929   0.42946   0.00000  Uiso   1.00
O700   O     0.28177   0.12785   0.58285   0.00000  Uiso   1.00
C701   C     0.66518   0.24992   0.50222   0.00000  Uiso   1.00
C702   C     0.78977   0.44642   0.50669   0.00000  Uiso   1.00
C703   C     0.74974   0.24999   0.40692   0.00000  Uiso   1.00
C704   C     0.75022   0.25001   0.59308   0.00000  Uiso   1.00
C705   C     0.75061   0.02744   0.50009   0.00000  Uiso   1.00
C706   C     0.75042   0.47307   0.50037   0.00000  Uiso   1.00
C707   C     0.74989   0.25000   0.35517   0.00000  Uiso   1.00
C708   C     0.75006   0.25002   0.64482   0.00000  Uiso   1.00
C709   C     0.54868   0.29189   0.51842   0.00000  Uiso   1.00
C710   C     0.95346   0.21021   0.51068   0.00000  Uiso   1.00
C711   C     0.95134   0.29192   0.48200   0.00000  Uiso   1.00
C712   C     0.83483   0.24992   0.49786   0.00000  Uiso   1.00
C713   C     0.54655   0.21021   0.48958   0.00000  Uiso   1.00
C714   C     0.59486   0.29062   0.52207   0.00000  Uiso   1.00
C715   C     0.90767   0.20781   0.50499   0.00000  Uiso   1.00
C716   C     0.90516   0.29066   0.47828   0.00000  Uiso   1.00
C717   C     0.59235   0.20781   0.49519   0.00000  Uiso   1.00
C718   C     0.61699   0.24959   0.50611   0.00000  Uiso   1.00
C719   C     0.88302   0.24961   0.49411   0.00000  Uiso   1.00
C720   C     0.52430   0.25194   0.50136   0.00000  Uiso   1.00
C721   C     0.97571   0.25195   0.49902   0.00000  Uiso   1.00
C722   C     0.82792   0.13339   0.59160   0.00000  Uiso   1.00
C723   C     0.77062   0.10458   0.53893   0.00000  Uiso   1.00
C724   C     0.83953   0.13506   0.64682   0.00000  Uiso   1.00
C725   C     0.66165   0.37872   0.42510   0.00000  Uiso   1.00
C726   C     0.62320   0.34592   0.40932   0.00000  Uiso   1.00
C727   C     0.67195   0.13225   0.40895   0.00000  Uiso   1.00
C728   C     0.65968   0.13286   0.35384   0.00000  Uiso   1.00
C729   C     0.83494   0.37131   0.57584   0.00000  Uiso   1.00
C730   C     0.88421   0.37616   0.58982   0.00000  Uiso   1.00
C731   C     0.63146   0.31738   0.59238   0.00000  Uiso   1.00
C732   C     0.66183   0.35618   0.61449   0.00000  Uiso   1.00
C733   C     0.89488   0.13616   0.46650   0.00000  Uiso   1.00
C734   C     0.71177   0.39637   0.48877   0.00000  Uiso   1.00
C735   C     0.85385   0.10705   0.45140   0.00000  Uiso   1.00
C736   C     0.86920   0.31738   0.40760   0.00000  Uiso   1.00
C737   C     0.83937   0.35638   0.38494   0.00000  Uiso   1.00
C738   C     0.60534   0.13626   0.53372   0.00000  Uiso   1.00
C739   C     0.64672   0.10785   0.54915   0.00000  Uiso   1.00
C740   C     0.77852   0.01262   0.61086   0.00000  Uiso   1.00
C741   C     0.81168   0.49119   0.64965   0.00000  Uiso   1.00
C742   C     0.65800   0.47713   0.53960   0.00000  Uiso   1.00
C743   C     0.60869   0.48722   0.53774   0.00000  Uiso   1.00
C744   C     0.72633   0.01100   0.38970   0.00000  Uiso   1.00
C745   C     0.72989   0.10425   0.46098   0.00000  Uiso   1.00
C746   C     0.69514   0.49069   0.34830   0.00000  Uiso   1.00
C747   C     0.84473   0.47565   0.46355   0.00000  Uiso   1.00
C748   C     0.89381   0.48719   0.46782   0.00000  Uiso   1.00
C749   C     0.78838   0.39611   0.51126   0.00000  Uiso   1.00
C750   C     0.77309   0.05396   0.53841   0.00000  Uiso   1.00
C751   C     0.71081   0.44681   0.49397   0.00000  Uiso   1.00
C752   C     0.72818   0.05358   0.46145   0.00000  Uiso   1.00
Cu753  Cu    0.75000   0.29822   0.50000   0.00000  Uiso   1.00
Cu754  Cu    0.75000   0.20178   0.50000   0.00000  Uiso   1.00
H755   H     0.53203   0.32351   0.53047   0.00000  Uiso   1.00
H756   H     0.69003   0.36956   0.40318   0.00000  Uiso   1.00
H757   H     0.65086   0.41588   0.41696   0.00000  Uiso   1.00
H758   H     0.59521   0.35248   0.43240   0.00000  Uiso   1.00
H759   H     0.61180   0.35293   0.37039   0.00000  Uiso   1.00
H760   H     0.63363   0.30804   0.41299   0.00000  Uiso   1.00
H761   H     0.66198   0.16714   0.42340   0.00000  Uiso   1.00
H762   H     0.65279   0.10346   0.42579   0.00000  Uiso   1.00
H763   H     0.67035   0.09923   0.33701   0.00000  Uiso   1.00
H764   H     0.62335   0.13666   0.34664   0.00000  Uiso   1.00
H765   H     0.67614   0.16329   0.33659   0.00000  Uiso   1.00
H766   H     0.97136   0.17854   0.52324   0.00000  Uiso   1.00
H767   H     0.82387   0.33613   0.58892   0.00000  Uiso   1.00
H768   H     0.81738   0.39958   0.59555   0.00000  Uiso   1.00
H769   H     0.89620   0.41112   0.57706   0.00000  Uiso   1.00
H770   H     0.89077   0.37394   0.63032   0.00000  Uiso   1.00
H771   H     0.90253   0.34707   0.57259   0.00000  Uiso   1.00
H772   H     0.65019   0.28316   0.59512   0.00000  Uiso   1.00
H773   H     0.60229   0.31447   0.61461   0.00000  Uiso   1.00
H774   H     0.64261   0.38919   0.62004   0.00000  Uiso   1.00
H775   H     0.67722   0.34416   0.65057   0.00000  Uiso   1.00
H776   H     0.68856   0.36371   0.58998   0.00000  Uiso   1.00
H777   H     0.96800   0.32353   0.47000   0.00000  Uiso   1.00
H778   H     0.92287   0.11143   0.47596   0.00000  Uiso   1.00
H779   H     0.90271   0.15762   0.43372   0.00000  Uiso   1.00
H780   H     0.82590   0.13111   0.43989   0.00000  Uiso   1.00
H781   H     0.86037   0.08348   0.42004   0.00000  Uiso   1.00
H782   H     0.84482   0.08478   0.48264   0.00000  Uiso   1.00
H783   H     0.85028   0.28329   0.40459   0.00000  Uiso   1.00
H784   H     0.89869   0.31422   0.38588   0.00000  Uiso   1.00
H785   H     0.85875   0.38946   0.38053   0.00000  Uiso   1.00
H786   H     0.82507   0.34479   0.34821   0.00000  Uiso   1.00
H787   H     0.81188   0.36364   0.40852   0.00000  Uiso   1.00
H788   H     0.52866   0.17854   0.47700   0.00000  Uiso   1.00
H789   H     0.57772   0.11106   0.52423   0.00000  Uiso   1.00
H790   H     0.59704   0.15772   0.56636   0.00000  Uiso   1.00
H791   H     0.67432   0.13238   0.56058   0.00000  Uiso   1.00
H792   H     0.64041   0.08445   0.58066   0.00000  Uiso   1.00
H793   H     0.65611   0.08548   0.51811   0.00000  Uiso   1.00
H794   H     0.75593   0.48375   0.59675   0.00000  Uiso   1.00
H795   H     0.75914   0.04101   0.62783   0.00000  Uiso   1.00
H796   H     0.79513   0.46523   0.33945   0.00000  Uiso   1.00
H797   H     0.82696   0.01957   0.34029   0.00000  Uiso   1.00
H798   H     0.83836   0.47227   0.63187   0.00000  Uiso   1.00
H799   H     0.83771   0.16813   0.57672   0.00000  Uiso   1.00
H800   H     0.67630   0.00804   0.55656   0.00000  Uiso   1.00
H801   H     0.66465   0.44541   0.56351   0.00000  Uiso   1.00
H802   H     0.58997   0.45543   0.52348   0.00000  Uiso   1.00
H803   H     0.59897   0.49551   0.57525   0.00000  Uiso   1.00
H804   H     0.60025   0.01804   0.51325   0.00000  Uiso   1.00
H805   H     0.74725   0.48132   0.40514   0.00000  Uiso   1.00
H806   H     0.74789   0.03861   0.37472   0.00000  Uiso   1.00
H807   H     0.71187   0.46222   0.66174   0.00000  Uiso   1.00
H808   H     0.68421   0.01913   0.65521   0.00000  Uiso   1.00
H809   H     0.66542   0.47498   0.36312   0.00000  Uiso   1.00
H810   H     0.84763   0.10462   0.57549   0.00000  Uiso   1.00
H811   H     0.82635   0.00568   0.44491   0.00000  Uiso   1.00
H812   H     0.83996   0.44317   0.44034   0.00000  Uiso   1.00
H813   H     0.91277   0.45622   0.48369   0.00000  Uiso   1.00
H814   H     0.90498   0.49509   0.43086   0.00000  Uiso   1.00
H815   H     0.90041   0.01866   0.49200   0.00000  Uiso   1.00
H816   H     0.82802   0.10214   0.66430   0.00000  Uiso   1.00
H817   H     0.87586   0.13827   0.65452   0.00000  Uiso   1.00
H818   H     0.82334   0.16626   0.66307   0.00000  Uiso   1.00
N819   N     0.75000   0.12934   0.50000   0.00000  Uiso   1.00
N820   N     0.75000   0.37066   0.50000   0.00000  Uiso   1.00
O821   O     0.68573   0.29072   0.50000   0.00000  Uiso   1.00
O822   O     0.67258   0.37317   0.47598   0.00000  Uiso   1.00
O823   O     0.71822   0.12741   0.41717   0.00000  Uiso   1.00
O824   O     0.82767   0.37328   0.52408   0.00000  Uiso   1.00
O825   O     0.61784   0.32906   0.54306   0.00000  Uiso   1.00
O826   O     0.88715   0.16405   0.50837   0.00000  Uiso   1.00
O827   O     0.88218   0.32902   0.45711   0.00000  Uiso   1.00
O828   O     0.61285   0.16404   0.49175   0.00000  Uiso   1.00
O829   O     0.80185   0.03171   0.57294   0.00000  Uiso   1.00
O830   O     0.67039   0.46972   0.49135   0.00000  Uiso   1.00
O831   O     0.70101   0.03076   0.42572   0.00000  Uiso   1.00
O832   O     0.81427   0.20928   0.50000   0.00000  Uiso   1.00
O833   O     0.83042   0.46882   0.51104   0.00000  Uiso   1.00
O834   O     0.81427   0.29072   0.50000   0.00000  Uiso   1.00
O835   O     0.68573   0.20929   0.50000   0.00000  Uiso   1.00
O836   O     0.75000   0.29071   0.42946   0.00000  Uiso   1.00
O837   O     0.75000   0.20929   0.57054   0.00000  Uiso   1.00
O838   O     0.75000   0.29071   0.57054   0.00000  Uiso   1.00
O839   O     0.75000   0.20929   0.42946   0.00000  Uiso   1.00
O840   O     0.78177   0.12785   0.58285   0.00000  Uiso   1.00
C841   C     0.16518   0.74992   0.50222   0.00000  Uiso   1.00
C842   C     0.28977   0.94642   0.50669   0.00000  Uiso   1.00
C843   C     0.24974   0.74999   0.40692   0.00000  Uiso   1.00
C844   C     0.25022   0.75001   0.59308   0.00000  Uiso   1.00
C845   C     0.25061   0.52744   0.50009   0.00000  Uiso   1.00
C846   C     0.25042   0.97307   0.50037   0.00000  Uiso   1.00
C847   C     0.24989   0.75000   0.35517   0.00000  Uiso   1.00
C848   C     0.25006   0.75002   0.64482   0.00000  Uiso   1.00
C849   C     0.04868   0.79189   0.51842   0.00000  Uiso   1.00
C850   C     0.45346   0.71021   0.51068   0.00000  Uiso   1.00
C851   C     0.45134   0.79192   0.48200   0.00000  Uiso   1.00
C852   C     0.33483   0.74992   0.49786   0.00000  Uiso   1.00
C853   C     0.04655   0.71021   0.48958   0.00000  Uiso   1.00
C854   C     0.09486   0.79062   0.52207   0.00000  Uiso   1.00
C855   C     0.40767   0.70781   0.50499   0.00000  Uiso   1.00
C856   C     0.40516   0.79066   0.47828   0.00000  Uiso   1.00
C857   C     0.09235   0.70781   0.49519   0.00000  Uiso   1.00
C858   C     0.11699   0.74959   0.50611   0.00000  Uiso   1.00
C859   C     0.38302   0.74961   0.49411   0.00000  Uiso   1.00
C860   C     0.02430   0.75194   0.50136   0.00000  Uiso   1.00
C861   C     0.47571   0.75195   0.49902   0.00000  Uiso   1.00
C862   C     0.32792   0.63339   0.59160   0.00000  Uiso   1.00
C863   C     0.27062   0.60458   0.53893   0.00000  Uiso   1.00
C864   C     0.33953   0.63506   0.64682   0.00000  Uiso   1.00
C865   C     0.16165   0.87872   0.42510   0.00000  Uiso   1.00
C866   C     0.12320   0.84592   0.40932   0.00000  Uiso   1.00
C867   C     0.17195   0.63225   0.40895   0.00000  Uiso   1.00
C868   C     0.15968   0.63286   0.35384   0.00000  Uiso   1.00
C869   C     0.33494   0.87131   0.57584   0.00000  Uiso   1.00
C870   C     0.38421   0.87616   0.58982   0.00000  Uiso   1.00
C871   C     0.13146   0.81738   0.59238   0.00000  Uiso   1.00
C872   C     0.16183   0.85618   0.61449   0.00000  Uiso   1.00
C873   C     0.39488   0.63616   0.46650   0.00000  Uiso   1.00
C874   C     0.21177   0.89637   0.48877   0.00000  Uiso   1.00
C875   C     0.35385   0.60705   0.45140   0.00000  Uiso   1.00
C876   C     0.36920   0.81738   0.40760   0.00000  Uiso   1.00
C877   C     0.33937   0.85638   0.38494   0.00000  Uiso   1.00
C878   C     0.10534   0.63626   0.53372   0.00000  Uiso   1.00
C879   C     0.14672   0.60785   0.54915   0.00000  Uiso   1.00
C880   C     0.27852   0.51262   0.61086   0.00000  Uiso   1.00
C881   C     0.31168   0.99119   0.64965   0.00000  Uiso   1.00
C882   C     0.15800   0.97713   0.53960   0.00000  Uiso   1.00
C883   C     0.10869   0.98722   0.53774   0.00000  Uiso   1.00
C884   C     0.22633   0.51100   0.38970   0.00000  Uiso   1.00
C885   C     0.22989   0.60425   0.46098   0.00000  Uiso   1.00
C886   C     0.19514   0.99069   0.34830   0.00000  Uiso   1.00
C887   C     0.34473   0.97565   0.46355   0.00000  Uiso   1.00
C888   C     0.39381   0.98719   0.46782   0.00000  Uiso   1.00
C889   C     0.28838   0.89611   0.51126   0.00000  Uiso   1.00
C890   C     0.27309   0.55396   0.53841   0.00000  Uiso   1.00
C891   C     0.21081   0.94681   0.49397   0.00000  Uiso   1.00
C892   C     0.22818   0.55358   0.46145   0.00000  Uiso   1.00
Cu893  Cu    0.25000   0.79822   0.50000   0.00000  Uiso   1.00
Cu894  Cu    0.25000   0.70178   0.50000   0.00000  Uiso   1.00
H895   H     0.03203   0.82351   0.53047   0.00000  Uiso   1.00
H896   H     0.19003   0.86956   0.40318   0.00000  Uiso   1.00
H897   H     0.15086   0.91588   0.41696   0.00000  Uiso   1.00
H898   H     0.09521   0.85248   0.43240   0.00000  Uiso   1.00
H899   H     0.11180   0.85293   0.37039   0.00000  Uiso   1.00
H900   H     0.13363   0.80804   0.41299   0.00000  Uiso   1.00
H901   H     0.16198   0.66714   0.42340   0.00000  Uiso   1.00
H902   H     0.15279   0.60346   0.42579   0.00000  Uiso   1.00
H903   H     0.17035   0.59923   0.33701   0.00000  Uiso   1.00
H904   H     0.12335   0.63666   0.34664   0.00000  Uiso   1.00
H905   H     0.17614   0.66329   0.33659   0.00000  Uiso   1.00
H906   H     0.47136   0.67854   0.52324   0.00000  Uiso   1.00
H907   H     0.32387   0.83613   0.58892   0.00000  Uiso   1.00
H908   H     0.31738   0.89958   0.59555   0.00000  Uiso   1.00
H909   H     0.39620   0.91112   0.57706   0.00000  Uiso   1.00
H910   H     0.39077   0.87394   0.63032   0.00000  Uiso   1.00
H911   H     0.40253   0.84707   0.57259   0.00000  Uiso   1.00
H912   H     0.15019   0.78316   0.59512   0.00000  Uiso   1.00
H913   H     0.10229   0.81447   0.61461   0.00000  Uiso   1.00
H914   H     0.14261   0.88919   0.62004   0.00000  Uiso   1.00
H915   H     0.17722   0.84416   0.65057   0.00000  Uiso   1.00
H916   H     0.18856   0.86371   0.58998   0.00000  Uiso   1.00
H917   H     0.46800   0.82353   0.47000   0.00000  Uiso   1.00
H918   H     0.42287   0.61143   0.47596   0.00000  Uiso   1.00
H919   H     0.40271   0.65762   0.43372   0.00000  Uiso   1.00
H920   H     0.32590   0.63111   0.43989   0.00000  Uiso   1.00
H921   H     0.36037   0.58348   0.42004   0.00000  Uiso   1.00
H922   H     0.34482   0.58478   0.48264   0.00000  Uiso   1.00
H923   H     0.35028   0.78329   0.40459   0.00000  Uiso   1.00
H924   H     0.39869   0.81422   0.38588   0.00000  Uiso   1.00
H925   H     0.35875   0.88946   0.38053   0.00000  Uiso   1.00
H926   H     0.32507   0.84479   0.34821   0.00000  Uiso   1.00
H927   H     0.31188   0.86364   0.40852   0.00000  Uiso   1.00
H928   H     0.02866   0.67854   0.47700   0.00000  Uiso   1.00
H929   H     0.07772   0.61106   0.52423   0.00000  Uiso   1.00
H930   H     0.09704   0.65772   0.56636   0.00000  Uiso   1.00
H931   H     0.17432   0.63238   0.56058   0.00000  Uiso   1.00
H932   H     0.14041   0.58445   0.58066   0.00000  Uiso   1.00
H933   H     0.15611   0.58548   0.51811   0.00000  Uiso   1.00
H934   H     0.25593   0.98375   0.59675   0.00000  Uiso   1.00
H935   H     0.25914   0.54101   0.62783   0.00000  Uiso   1.00
H936   H     0.29513   0.96523   0.33945   0.00000  Uiso   1.00
H937   H     0.32696   0.51957   0.34029   0.00000  Uiso   1.00
H938   H     0.33836   0.97227   0.63187   0.00000  Uiso   1.00
H939   H     0.33771   0.66813   0.57672   0.00000  Uiso   1.00
H940   H     0.17630   0.50804   0.55656   0.00000  Uiso   1.00
H941   H     0.16465   0.94541   0.56351   0.00000  Uiso   1.00
H942   H     0.08997   0.95543   0.52348   0.00000  Uiso   1.00
H943   H     0.09897   0.99551   0.57525   0.00000  Uiso   1.00
H944   H     0.10025   0.51804   0.51325   0.00000  Uiso   1.00
H945   H     0.24725   0.98132   0.40514   0.00000  Uiso   1.00
H946   H     0.24789   0.53861   0.37472   0.00000  Uiso   1.00
H947   H     0.21187   0.96222   0.66174   0.00000  Uiso   1.00
H948   H     0.18421   0.51913   0.65521   0.00000  Uiso   1.00
H949   H     0.16542   0.97498   0.36312   0.00000  Uiso   1.00
H950   H     0.34763   0.60462   0.57549   0.00000  Uiso   1.00
H951   H     0.32635   0.50568   0.44491   0.00000  Uiso   1.00
H952   H     0.33996   0.94317   0.44034   0.00000  Uiso   1.00
H953   H     0.41277   0.95622   0.48369   0.00000  Uiso   1.00
H954   H     0.40498   0.99509   0.43086   0.00000  Uiso   1.00
H955   H     0.40041   0.51866   0.49200   0.00000  Uiso   1.00
H956   H     0.32802   0.60214   0.66430   0.00000  Uiso   1.00
H957   H     0.37586   0.63827   0.65452   0.00000  Uiso   1.00
H958   H     0.32334   0.66626   0.66307   0.00000  Uiso   1.00
N959   N     0.25000   0.62934   0.50000   0.00000  Uiso   1.00
N960   N     0.25000   0.87066   0.50000   0.00000  Uiso   1.00
O961   O     0.18573   0.79072   0.50000   0.00000  Uiso   1.00
O962   O     0.17258   0.87317   0.47598   0.00000  Uiso   1.00
O963   O     0.21822   0.62741   0.41717   0.00000  Uiso   1.00
O964   O     0.32767   0.87328   0.52408   0.00000  Uiso   1.00
O965   O     0.11784   0.82906   0.54306   0.00000  Uiso   1.00
O966   O     0.38715   0.66405   0.50837   0.00000  Uiso   1.00
O967   O     0.38218   0.82902   0.45711   0.00000  Uiso   1.00
O968   O     0.11285   0.66404   0.49175   0.00000  Uiso   1.00
O969   O     0.30185   0.53171   0.57294   0.00000  Uiso   1.00
O970   O     0.17039   0.96972   0.49135   0.00000  Uiso   1.00
O971   O     0.20101   0.53076   0.42572   0.00000  Uiso   1.00
O972   O     0.31427   0.70928   0.50000   0.00000  Uiso   1.00
O973   O     0.33042   0.96882   0.51104   0.00000  Uiso   1.00
O974   O     0.31427   0.79072   0.50000   0.00000  Uiso   1.00
O975   O     0.18573   0.70929   0.50000   0.00000  Uiso   1.00
O976   O     0.25000   0.79071   0.42946   0.00000  Uiso   1.00
O977   O     0.25000   0.70929   0.57054   0.00000  Uiso   1.00
O978   O     0.25000   0.79071   0.57054   0.00000  Uiso   1.00
O979   O     0.25000   0.70929   0.42946   0.00000  Uiso   1.00
O980   O     0.28177   0.62785   0.58285   0.00000  Uiso   1.00
C981   C     0.66518   0.74992   0.50222   0.00000  Uiso   1.00
C982   C     0.78977   0.94642   0.50669   0.00000  Uiso   1.00
C983   C     0.74974   0.74999   0.40692   0.00000  Uiso   1.00
C984   C     0.75022   0.75001   0.59308   0.00000  Uiso   1.00
C985   C     0.75061   0.52744   0.50009   0.00000  Uiso   1.00
C986   C     0.75042   0.97307   0.50037   0.00000  Uiso   1.00
C987   C     0.74989   0.75000   0.35517   0.00000  Uiso   1.00
C988   C     0.75006   0.75002   0.64482   0.00000  Uiso   1.00
C989   C     0.54868   0.79189   0.51842   0.00000  Uiso   1.00
C990   C     0.95346   0.71021   0.51068   0.00000  Uiso   1.00
C991   C     0.95134   0.79192   0.48200   0.00000  Uiso   1.00
C992   C     0.83483   0.74992   0.49786   0.00000  Uiso   1.00
C993   C     0.54655   0.71021   0.48958   0.00000  Uiso   1.00
C994   C     0.59486   0.79062   0.52207   0.00000  Uiso   1.00
C995   C     0.90767   0.70781   0.50499   0.00000  Uiso   1.00
C996   C     0.90516   0.79066   0.47828   0.00000  Uiso   1.00
C997   C     0.59235   0.70781   0.49519   0.00000  Uiso   1.00
C998   C     0.61699   0.74959   0.50611   0.00000  Uiso   1.00
C999   C     0.88302   0.74961   0.49411   0.00000  Uiso   1.00
C1000  C     0.52430   0.75194   0.50136   0.00000  Uiso   1.00
C1001  C     0.97571   0.75195   0.49902   0.00000  Uiso   1.00
C1002  C     0.82792   0.63339   0.59160   0.00000  Uiso   1.00
C1003  C     0.77062   0.60458   0.53893   0.00000  Uiso   1.00
C1004  C     0.83953   0.63506   0.64682   0.00000  Uiso   1.00
C1005  C     0.66165   0.87872   0.42510   0.00000  Uiso   1.00
C1006  C     0.62320   0.84592   0.40932   0.00000  Uiso   1.00
C1007  C     0.67195   0.63225   0.40895   0.00000  Uiso   1.00
C1008  C     0.65968   0.63286   0.35384   0.00000  Uiso   1.00
C1009  C     0.83494   0.87131   0.57584   0.00000  Uiso   1.00
C1010  C     0.88421   0.87616   0.58982   0.00000  Uiso   1.00
C1011  C     0.63146   0.81738   0.59238   0.00000  Uiso   1.00
C1012  C     0.66183   0.85618   0.61449   0.00000  Uiso   1.00
C1013  C     0.89488   0.63616   0.46650   0.00000  Uiso   1.00
C1014  C     0.71177   0.89637   0.48877   0.00000  Uiso   1.00
C1015  C     0.85385   0.60705   0.45140   0.00000  Uiso   1.00
C1016  C     0.86920   0.81738   0.40760   0.00000  Uiso   1.00
C1017  C     0.83937   0.85638   0.38494   0.00000  Uiso   1.00
C1018  C     0.60534   0.63626   0.53372   0.00000  Uiso   1.00
C1019  C     0.64672   0.60785   0.54915   0.00000  Uiso   1.00
C1020  C     0.77852   0.51262   0.61086   0.00000  Uiso   1.00
C1021  C     0.81168   0.99119   0.64965   0.00000  Uiso   1.00
C1022  C     0.65800   0.97713   0.53960   0.00000  Uiso   1.00
C1023  C     0.60869   0.98722   0.53774   0.00000  Uiso   1.00
C1024  C     0.72633   0.51100   0.38970   0.00000  Uiso   1.00
C1025  C     0.72989   0.60425   0.46098   0.00000  Uiso   1.00
C1026  C     0.69514   0.99069   0.34830   0.00000  Uiso   1.00
C1027  C     0.84473   0.97565   0.46355   0.00000  Uiso   1.00
C1028  C     0.89381   0.98719   0.46782   0.00000  Uiso   1.00
C1029  C     0.78838   0.89611   0.51126   0.00000  Uiso   1.00
C1030  C     0.77309   0.55396   0.53841   0.00000  Uiso   1.00
C1031  C     0.71081   0.94681   0.49397   0.00000  Uiso   1.00
C1032  C     0.72818   0.55358   0.46145   0.00000  Uiso   1.00
Cu1033 Cu    0.75000   0.79822   0.50000   0.00000  Uiso   1.00
Cu1034 Cu    0.75000   0.70178   0.50000   0.00000  Uiso   1.00
H1035  H     0.53203   0.82351   0.53047   0.00000  Uiso   1.00
H1036  H     0.69003   0.86956   0.40318   0.00000  Uiso   1.00
H1037  H     0.65086   0.91588   0.41696   0.00000  Uiso   1.00
H1038  H     0.59521   0.85248   0.43240   0.00000  Uiso   1.00
H1039  H     0.61180   0.85293   0.37039   0.00000  Uiso   1.00
H1040  H     0.63363   0.80804   0.41299   0.00000  Uiso   1.00
H1041  H     0.66198   0.66714   0.42340   0.00000  Uiso   1.00
H1042  H     0.65279   0.60346   0.42579   0.00000  Uiso   1.00
H1043  H     0.67035   0.59923   0.33701   0.00000  Uiso   1.00
H1044  H     0.62335   0.63666   0.34664   0.00000  Uiso   1.00
H1045  H     0.67614   0.66329   0.33659   0.00000  Uiso   1.00
H1046  H     0.97136   0.67854   0.52324   0.00000  Uiso   1.00
H1047  H     0.82387   0.83613   0.58892   0.00000  Uiso   1.00
H1048  H     0.81738   0.89958   0.59555   0.00000  Uiso   1.00
H1049  H     0.89620   0.91112   0.57706   0.00000  Uiso   1.00
H1050  H     0.89077   0.87394   0.63032   0.00000  Uiso   1.00
H1051  H     0.90253   0.84707   0.57259   0.00000  Uiso   1.00
H1052  H     0.65019   0.78316   0.59512   0.00000  Uiso   1.00
H1053  H     0.60229   0.81447   0.61461   0.00000  Uiso   1.00
H1054  H     0.64261   0.88919   0.62004   0.00000  Uiso   1.00
H1055  H     0.67722   0.84416   0.65057   0.00000  Uiso   1.00
H1056  H     0.68856   0.86371   0.58998   0.00000  Uiso   1.00
H1057  H     0.96800   0.82353   0.47000   0.00000  Uiso   1.00
H1058  H     0.92287   0.61143   0.47596   0.00000  Uiso   1.00
H1059  H     0.90271   0.65762   0.43372   0.00000  Uiso   1.00
H1060  H     0.82590   0.63111   0.43989   0.00000  Uiso   1.00
H1061  H     0.86037   0.58348   0.42004   0.00000  Uiso   1.00
H1062  H     0.84482   0.58478   0.48264   0.00000  Uiso   1.00
H1063  H     0.85028   0.78329   0.40459   0.00000  Uiso   1.00
H1064  H     0.89869   0.81422   0.38588   0.00000  Uiso   1.00
H1065  H     0.85875   0.88946   0.38053   0.00000  Uiso   1.00
H1066  H     0.82507   0.84479   0.34821   0.00000  Uiso   1.00
H1067  H     0.81188   0.86364   0.40852   0.00000  Uiso   1.00
H1068  H     0.52866   0.67854   0.47700   0.00000  Uiso   1.00
H1069  H     0.57772   0.61106   0.52423   0.00000  Uiso   1.00
H1070  H     0.59704   0.65772   0.56636   0.00000  Uiso   1.00
H1071  H     0.67432   0.63238   0.56058   0.00000  Uiso   1.00
H1072  H     0.64041   0.58445   0.58066   0.00000  Uiso   1.00
H1073  H     0.65611   0.58548   0.51811   0.00000  Uiso   1.00
H1074  H     0.75593   0.98375   0.59675   0.00000  Uiso   1.00
H1075  H     0.75914   0.54101   0.62783   0.00000  Uiso   1.00
H1076  H     0.79513   0.96523   0.33945   0.00000  Uiso   1.00
H1077  H     0.82696   0.51957   0.34029   0.00000  Uiso   1.00
H1078  H     0.83836   0.97227   0.63187   0.00000  Uiso   1.00
H1079  H     0.83771   0.66813   0.57672   0.00000  Uiso   1.00
H1080  H     0.67630   0.50804   0.55656   0.00000  Uiso   1.00
H1081  H     0.66465   0.94541   0.56351   0.00000  Uiso   1.00
H1082  H     0.58997   0.95543   0.52348   0.00000  Uiso   1.00
H1083  H     0.59897   0.99551   0.57525   0.00000  Uiso   1.00
H1084  H     0.60025   0.51804   0.51325   0.00000  Uiso   1.00
H1085  H     0.74725   0.98132   0.40514   0.00000  Uiso   1.00
H1086  H     0.74789   0.53861   0.37472   0.00000  Uiso   1.00
H1087  H     0.71187   0.96222   0.66174   0.00000  Uiso   1.00
H1088  H     0.68421   0.51913   0.65521   0.00000  Uiso   1.00
H1089  H     0.66542   0.97498   0.36312   0.00000  Uiso   1.00
H1090  H     0.84763   0.60462   0.57549   0.00000  Uiso   1.00
H1091  H     0.82635   0.50568   0.44491   0.00000  Uiso   1.00
H1092  H     0.83996   0.94317   0.44034   0.00000  Uiso   1.00
H1093  H     0.91277   0.95622   0.48369   0.00000  Uiso   1.00
H1094  H     0.90498   0.99509   0.43086   0.00000  Uiso   1.00
H1095  H     0.90041   0.51866   0.49200   0.00000  Uiso   1.00
H1096  H     0.82802   0.60214   0.66430   0.00000  Uiso   1.00
H1097  H     0.87586   0.63827   0.65452   0.00000  Uiso   1.00
H1098  H     0.82334   0.66626   0.66307   0.00000  Uiso   1.00
N1099  N     0.75000   0.62934   0.50000   0.00000  Uiso   1.00
N1100  N     0.75000   0.87066   0.50000   0.00000  Uiso   1.00
O1101  O     0.68573   0.79072   0.50000   0.00000  Uiso   1.00
O1102  O     0.67258   0.87317   0.47598   0.00000  Uiso   1.00
O1103  O     0.71822   0.62741   0.41717   0.00000  Uiso   1.00
O1104  O     0.82767   0.87328   0.52408   0.00000  Uiso   1.00
O1105  O     0.61784   0.82906   0.54306   0.00000  Uiso   1.00
O1106  O     0.88715   0.66405   0.50837   0.00000  Uiso   1.00
O1107  O     0.88218   0.82902   0.45711   0.00000  Uiso   1.00
O1108  O     0.61285   0.66404   0.49175   0.00000  Uiso   1.00
O1109  O     0.80185   0.53171   0.57294   0.00000  Uiso   1.00
O1110  O     0.67039   0.96972   0.49135   0.00000  Uiso   1.00
O1111  O     0.70101   0.53076   0.42572   0.00000  Uiso   1.00
O1112  O     0.81427   0.70928   0.50000   0.00000  Uiso   1.00
O1113  O     0.83042   0.96882   0.51104   0.00000  Uiso   1.00
O1114  O     0.81427   0.79072   0.50000   0.00000  Uiso   1.00
O1115  O     0.68573   0.70929   0.50000   0.00000  Uiso   1.00
O1116  O     0.75000   0.79071   0.42946   0.00000  Uiso   1.00
O1117  O     0.75000   0.70929   0.57054   0.00000  Uiso   1.00
O1118  O     0.75000   0.79071   0.57054   0.00000  Uiso   1.00
O1119  O     0.75000   0.70929   0.42946   0.00000  Uiso   1.00
O1120  O     0.78177   0.62785   0.58285   0.00000  Uiso   1.00
C1121  C     0.16518   0.24992   0.83555   0.00000  Uiso   1.00
C1122  C     0.28977   0.44642   0.84002   0.00000  Uiso   1.00
C1123  C     0.24974   0.24999   0.74025   0.00000  Uiso   1.00
C1124  C     0.25022   0.25001   0.92642   0.00000  Uiso   1.00
C1125  C     0.25061   0.02744   0.83342   0.00000  Uiso   1.00
C1126  C     0.25042   0.47307   0.83371   0.00000  Uiso   1.00
C1127  C     0.24989   0.25000   0.68851   0.00000  Uiso   1.00
C1128  C     0.25006   0.25002   0.97815   0.00000  Uiso   1.00
C1129  C     0.04868   0.29189   0.85176   0.00000  Uiso   1.00
C1130  C     0.45346   0.21021   0.84401   0.00000  Uiso   1.00
C1131  C     0.45134   0.29192   0.81533   0.00000  Uiso   1.00
C1132  C     0.33483   0.24992   0.83120   0.00000  Uiso   1.00
C1133  C     0.04655   0.21021   0.82292   0.00000  Uiso   1.00
C1134  C     0.09486   0.29062   0.85540   0.00000  Uiso   1.00
C1135  C     0.40767   0.20781   0.83832   0.00000  Uiso   1.00
C1136  C     0.40516   0.29066   0.81161   0.00000  Uiso   1.00
C1137  C     0.09235   0.20781   0.82852   0.00000  Uiso   1.00
C1138  C     0.11699   0.24959   0.83944   0.00000  Uiso   1.00
C1139  C     0.38302   0.24961   0.82744   0.00000  Uiso   1.00
C1140  C     0.02430   0.25194   0.83469   0.00000  Uiso   1.00
C1141  C     0.47571   0.25195   0.83235   0.00000  Uiso   1.00
C1142  C     0.32792   0.13339   0.92493   0.00000  Uiso   1.00
C1143  C     0.27062   0.10458   0.87227   0.00000  Uiso   1.00
C1144  C     0.33953   0.13506   0.98015   0.00000  Uiso   1.00
C1145  C     0.16165   0.37872   0.75844   0.00000  Uiso   1.00
C1146  C     0.12320   0.34592   0.74265   0.00000  Uiso   1.00
C1147  C     0.17195   0.13225   0.74228   0.00000  Uiso   1.00
C1148  C     0.15968   0.13286   0.68717   0.00000  Uiso   1.00
C1149  C     0.33494   0.37131   0.90918   0.00000  Uiso   1.00
C1150  C     0.38421   0.37616   0.92315   0.00000  Uiso   1.00
C1151  C     0.13146   0.31738   0.92571   0.00000  Uiso   1.00
C1152  C     0.16183   0.35618   0.94782   0.00000  Uiso   1.00
C1153  C     0.39488   0.13616   0.79984   0.00000  Uiso   1.00
C1154  C     0.21177   0.39637   0.82210   0.00000  Uiso   1.00
C1155  C     0.35385   0.10705   0.78473   0.00000  Uiso   1.00
C1156  C     0.36920   0.31738   0.74094   0.00000  Uiso   1.00
C1157  C     0.33937   0.35638   0.71827   0.00000  Uiso   1.00
C1158  C     0.10534   0.13626   0.86705   0.00000  Uiso   1.00
C1159  C     0.14672   0.10785   0.88248   0.00000  Uiso   1.00
C1160  C     0.27852   0.01262   0.94419   0.00000  Uiso   1.00
C1161  C     0.31168   0.49119   0.98298   0.00000  Uiso   1.00
C1162  C     0.15800   0.47713   0.87293   0.00000  Uiso   1.00
C1163  C     0.10869   0.48722   0.87108   0.00000  Uiso   1.00
C1164  C     0.22633   0.01100   0.72303   0.00000  Uiso   1.00
C1165  C     0.22989   0.10425   0.79431   0.00000  Uiso   1.00
C1166  C     0.19514   0.49069   0.68163   0.00000  Uiso   1.00
C1167  C     0.34473   0.47565   0.79688   0.00000  Uiso   1.00
C1168  C     0.39381   0.48719   0.80116   0.00000  Uiso   1.00
C1169  C     0.28838   0.39611   0.84459   0.00000  Uiso   1.00
C1170  C     0.27309   0.05396   0.87174   0.00000  Uiso   1.00
C1171  C     0.21081   0.44681   0.82730   0.00000  Uiso   1.00
C1172  C     0.22818   0.05358   0.79478   0.00000  Uiso   1.00
Cu1173 Cu    0.25000   0.29822   0.83333   0.00000  Uiso   1.00
Cu1174 Cu    0.25000   0.20178   0.83333   0.00000  Uiso   1.00
H1175  H     0.03203   0.32351   0.86380   0.00000  Uiso   1.00
H1176  H     0.19003   0.36956   0.73651   0.00000  Uiso   1.00
H1177  H     0.15086   0.41588   0.75029   0.00000  Uiso   1.00
H1178  H     0.09521   0.35248   0.76573   0.00000  Uiso   1.00
H1179  H     0.11180   0.35293   0.70372   0.00000  Uiso   1.00
H1180  H     0.13363   0.30804   0.74632   0.00000  Uiso   1.00
H1181  H     0.16198   0.16714   0.75674   0.00000  Uiso   1.00
H1182  H     0.15279   0.10346   0.75912   0.00000  Uiso   1.00
H1183  H     0.17035   0.09923   0.67035   0.00000  Uiso   1.00
H1184  H     0.12335   0.13666   0.67997   0.00000  Uiso   1.00
H1185  H     0.17614   0.16329   0.66992   0.00000  Uiso   1.00
H1186  H     0.47136   0.17854   0.85657   0.00000  Uiso   1.00
H1187  H     0.32387   0.33613   0.92225   0.00000  Uiso   1.00
H1188  H     0.31738   0.39958   0.92888   0.00000  Uiso   1.00
H1189  H     0.39620   0.41112   0.91039   0.00000  Uiso   1.00
H1190  H     0.39077   0.37394   0.96365   0.00000  Uiso   1.00
H1191  H     0.40253   0.34707   0.90592   0.00000  Uiso   1.00
H1192  H     0.15019   0.28316   0.92846   0.00000  Uiso   1.00
H1193  H     0.10229   0.31447   0.94794   0.00000  Uiso   1.00
H1194  H     0.14261   0.38919   0.95337   0.00000  Uiso   1.00
H1195  H     0.17722   0.34416   0.98390   0.00000  Uiso   1.00
H1196  H     0.18856   0.36371   0.92332   0.00000  Uiso   1.00
H1197  H     0.46800   0.32353   0.80333   0.00000  Uiso   1.00
H1198  H     0.42287   0.11143   0.80929   0.00000  Uiso   1.00
H1199  H     0.40271   0.15762   0.76705   0.00000  Uiso   1.00
H1200  H     0.32590   0.13111   0.77322   0.00000  Uiso   1.00
H1201  H     0.36037   0.08348   0.75338   0.00000  Uiso   1.00
H1202  H     0.34482   0.08478   0.81598   0.00000  Uiso   1.00
H1203  H     0.35028   0.28329   0.73792   0.00000  Uiso   1.00
H1204  H     0.39869   0.31422   0.71922   0.00000  Uiso   1.00
H1205  H     0.35875   0.38946   0.71386   0.00000  Uiso   1.00
H1206  H     0.32507   0.34479   0.68154   0.00000  Uiso   1.00
H1207  H     0.31188   0.36364   0.74185   0.00000  Uiso   1.00
H1208  H     0.02866   0.17854   0.81033   0.00000  Uiso   1.00
H1209  H     0.07772   0.11106   0.85757   0.00000  Uiso   1.00
H1210  H     0.09704   0.15772   0.89970   0.00000  Uiso   1.00
H1211  H     0.17432   0.13238   0.89391   0.00000  Uiso   1.00
H1212  H     0.14041   0.08445   0.91400   0.00000  Uiso   1.00
H1213  H     0.15611   0.08548   0.85144   0.00000  Uiso   1.00
H1214  H     0.25593   0.48375   0.93008   0.00000  Uiso   1.00
H1215  H     0.25914   0.04101   0.96116   0.00000  Uiso   1.00
H1216  H     0.29513   0.46523   0.67279   0.00000  Uiso   1.00
H1217  H     0.32696   0.01957   0.67362   0.00000  Uiso   1.00
H1218  H     0.33836   0.47227   0.96521   0.00000  Uiso   1.00
H1219  H     0.33771   0.16813   0.91005   0.00000  Uiso   1.00
H1220  H     0.17630   0.00804   0.88989   0.00000  Uiso   1.00
H1221  H     0.16465   0.44541   0.89684   0.00000  Uiso   1.00
H1222  H     0.08997   0.45543   0.85681   0.00000  Uiso   1.00
H1223  H     0.09897   0.49551   0.90858   0.00000  Uiso   1.00
H1224  H     0.10025   0.01804   0.84659   0.00000  Uiso   1.00
H1225  H     0.24725   0.48132   0.73847   0.00000  Uiso   1.00
H1226  H     0.24789   0.03861   0.70805   0.00000  Uiso   1.00
H1227  H     0.21187   0.46222   0.99508   0.00000  Uiso   1.00
H1228  H     0.18421   0.01913   0.98854   0.00000  Uiso   1.00
H1229  H     0.16542   0.47498   0.69645   0.00000  Uiso   1.00
H1230  H     0.34763   0.10462   0.90882   0.00000  Uiso   1.00
H1231  H     0.32635   0.00568   0.77825   0.00000  Uiso   1.00
H1232  H     0.33996   0.44317   0.77367   0.00000  Uiso   1.00
H1233  H     0.41277   0.45622   0.81702   0.00000  Uiso   1.00
H1234  H     0.40498   0.49509   0.76419   0.00000  Uiso   1.00
H1235  H     0.40041   0.01866   0.82533   0.00000  Uiso   1.00
H1236  H     0.32802   0.10214   0.99763   0.00000  Uiso   1.00
H1237  H     0.37586   0.13827   0.98786   0.00000  Uiso   1.00
H1238  H     0.32334   0.16626   0.99641   0.00000  Uiso   1.00
N1239  N     0.25000   0.12934   0.83333   0.00000  Uiso   1.00
N1240  N     0.25000   0.37066   0.83333   0.00000  Uiso   1.00
O1241  O     0.18573   0.29072   0.83334   0.00000  Uiso   1.00
O1242  O     0.17258   0.37317   0.80932   0.00000  Uiso   1.00
O1243  O     0.21822   0.12741   0.75051   0.00000  Uiso   1.00
O1244  O     0.32767   0.37328   0.85742   0.00000  Uiso   1.00
O1245  O     0.11784   0.32906   0.87639   0.00000  Uiso   1.00
O1246  O     0.38715   0.16405   0.84171   0.00000  Uiso   1.00
O1247  O     0.38218   0.32902   0.79045   0.00000  Uiso   1.00
O1248  O     0.11285   0.16404   0.82508   0.00000  Uiso   1.00
O1249  O     0.30185   0.03171   0.90627   0.00000  Uiso   1.00
O1250  O     0.17039   0.46972   0.82468   0.00000  Uiso   1.00
O1251  O     0.20101   0.03076   0.75905   0.00000  Uiso   1.00
O1252  O     0.31427   0.20928   0.83333   0.00000  Uiso   1.00
O1253  O     0.33042   0.46882   0.84437   0.00000  Uiso   1.00
O1254  O     0.31427   0.29072   0.83333   0.00000  Uiso   1.00
O1255  O     0.18573   0.20929   0.83334   0.00000  Uiso   1.00
O1256  O     0.25000   0.29071   0.76280   0.00000  Uiso   1.00
O1257  O     0.25000   0.20929   0.90387   0.00000  Uiso   1.00
O1258  O     0.25000   0.29071   0.90387   0.00000  Uiso   1.00
O1259  O     0.25000   0.20929   0.76280   0.00000  Uiso   1.00
O1260  O     0.28177   0.12785   0.91618   0.00000  Uiso   1.00
C1261  C     0.66518   0.24992   0.83555   0.00000  Uiso   1.00
C1262  C     0.78977   0.44642   0.84002   0.00000  Uiso   1.00
C1263  C     0.74974   0.24999   0.74025   0.00000  Uiso   1.00
C1264  C     0.75022   0.25001   0.92642   0.00000  Uiso   1.00
C1265  C     0.75061   0.02744   0.83342   0.00000  Uiso   1.00
C1266  C     0.75042   0.47307   0.83371   0.00000  Uiso   1.00
C1267  C     0.74989   0.25000   0.68851   0.00000  Uiso   1.00
C1268  C     0.75006   0.25002   0.97815   0.00000  Uiso   1.00
C1269  C     0.54868   0.29189   0.85176   0.00000  Uiso   1.00
C1270  C     0.95346   0.21021   0.84401   0.00000  Uiso   1.00
C1271  C     0.95134   0.29192   0.81533   0.00000  Uiso   1.00
C1272  C     0.83483   0.24992   0.83120   0.00000  Uiso   1.00
C1273  C     0.54655   0.21021   0.82292   0.00000  Uiso   1.00
C1274  C     0.59486   0.29062   0.85540   0.00000  Uiso   1.00
C1275  C     0.90767   0.20781   0.83832   0.00000  Uiso   1.00
C1276  C     0.90516   0.29066   0.81161   0.00000  Uiso   1.00
C1277  C     0.59235   0.20781   0.82852   0.00000  Uiso   1.00
C1278  C     0.61699   0.24959   0.83944   0.00000  Uiso   1.00
C1279  C     0.88302   0.24961   0.82744   0.00000  Uiso   1.00
C1280  C     0.52430   0.25194   0.83469   0.00000  Uiso   1.00
C1281  C     0.97571   0.25195   0.83235   0.00000  Uiso   1.00
C1282  C     0.82792   0.13339   0.92493   0.00000  Uiso   1.00
C1283  C     0.77062   0.10458   0.87227   0.00000  Uiso   1.00
C1284  C     0.83953   0.13506   0.98015   0.00000  Uiso   1.00
C1285  C     0.66165   0.37872   0.75844   0.00000  Uiso   1.00
C1286  C     0.62320   0.34592   0.74265   0.00000  Uiso   1.00
C1287  C     0.67195   0.13225   0.74228   0.00000  Uiso   1.00
C1288  C     0.65968   0.13286   0.68717   0.00000  Uiso   1.00
C1289  C     0.83494   0.37131   0.90918   0.00000  Uiso   1.00
C1290  C     0.88421   0.37616   0.92315   0.00000  Uiso   1.00
C1291  C     0.63146   0.31738   0.92571   0.00000  Uiso   1.00
C1292  C     0.66183   0.35618   0.94782   0.00000  Uiso   1.00
C1293  C     0.89488   0.13616   0.79984   0.00000  Uiso   1.00
C1294  C     0.71177   0.39637   0.82210   0.00000  Uiso   1.00
C1295  C     0.85385   0.10705   0.78473   0.00000  Uiso   1.00
C1296  C     0.86920   0.31738   0.74094   0.00000  Uiso   1.00
C1297  C     0.83937   0.35638   0.71827   0.00000  Uiso   1.00
C1298  C     0.60534   0.13626   0.86705   0.00000  Uiso   1.00
C1299  C     0.64672   0.10785   0.88248   0.00000  Uiso   1.00
C1300  C     0.77852   0.01262   0.94419   0.00000  Uiso   1.00
C1301  C     0.81168   0.49119   0.98298   0.00000  Uiso   1.00
C1302  C     0.65800   0.47713   0.87293   0.00000  Uiso   1.00
C1303  C     0.60869   0.48722   0.87108   0.00000  Uiso   1.00
C1304  C     0.72633   0.01100   0.72303   0.00000  Uiso   1.00
C1305  C     0.72989   0.10425   0.79431   0.00000  Uiso   1.00
C1306  C     0.69514   0.49069   0.68163   0.00000  Uiso   1.00
C1307  C     0.84473   0.47565   0.79688   0.00000  Uiso   1.00
C1308  C     0.89381   0.48719   0.80116   0.00000  Uiso   1.00
C1309  C     0.78838   0.39611   0.84459   0.00000  Uiso   1.00
C1310  C     0.77309   0.05396   0.87174   0.00000  Uiso   1.00
C1311  C     0.71081   0.44681   0.82730   0.00000  Uiso   1.00
C1312  C     0.72818   0.05358   0.79478   0.00000  Uiso   1.00
Cu1313 Cu    0.75000   0.29822   0.83333   0.00000  Uiso   1.00
Cu1314 Cu    0.75000   0.20178   0.83333   0.00000  Uiso   1.00
H1315  H     0.53203   0.32351   0.86380   0.00000  Uiso   1.00
H1316  H     0.69003   0.36956   0.73651   0.00000  Uiso   1.00
H1317  H     0.65086   0.41588   0.75029   0.00000  Uiso   1.00
H1318  H     0.59521   0.35248   0.76573   0.00000  Uiso   1.00
H1319  H     0.61180   0.35293   0.70372   0.00000  Uiso   1.00
H1320  H     0.63363   0.30804   0.74632   0.00000  Uiso   1.00
H1321  H     0.66198   0.16714   0.75674   0.00000  Uiso   1.00
H1322  H     0.65279   0.10346   0.75912   0.00000  Uiso   1.00
H1323  H     0.67035   0.09923   0.67035   0.00000  Uiso   1.00
H1324  H     0.62335   0.13666   0.67997   0.00000  Uiso   1.00
H1325  H     0.67614   0.16329   0.66992   0.00000  Uiso   1.00
H1326  H     0.97136   0.17854   0.85657   0.00000  Uiso   1.00
H1327  H     0.82387   0.33613   0.92225   0.00000  Uiso   1.00
H1328  H     0.81738   0.39958   0.92888   0.00000  Uiso   1.00
H1329  H     0.89620   0.41112   0.91039   0.00000  Uiso   1.00
H1330  H     0.89077   0.37394   0.96365   0.00000  Uiso   1.00
H1331  H     0.90253   0.34707   0.90592   0.00000  Uiso   1.00
H1332  H     0.65019   0.28316   0.92846   0.00000  Uiso   1.00
H1333  H     0.60229   0.31447   0.94794   0.00000  Uiso   1.00
H1334  H     0.64261   0.38919   0.95337   0.00000  Uiso   1.00
H1335  H     0.67722   0.34416   0.98390   0.00000  Uiso   1.00
H1336  H     0.68856   0.36371   0.92332   0.00000  Uiso   1.00
H1337  H     0.96800   0.32353   0.80333   0.00000  Uiso   1.00
H1338  H     0.92287   0.11143   0.80929   0.00000  Uiso   1.00
H1339  H     0.90271   0.15762   0.76705   0.00000  Uiso   1.00
H1340  H     0.82590   0.13111   0.77322   0.00000  Uiso   1.00
H1341  H     0.86037   0.08348   0.75338   0.00000  Uiso   1.00
H1342  H     0.84482   0.08478   0.81598   0.00000  Uiso   1.00
H1343  H     0.85028   0.28329   0.73792   0.00000  Uiso   1.00
H1344  H     0.89869   0.31422   0.71922   0.00000  Uiso   1.00
H1345  H     0.85875   0.38946   0.71386   0.00000  Uiso   1.00
H1346  H     0.82507   0.34479   0.68154   0.00000  Uiso   1.00
H1347  H     0.81188   0.36364   0.74185   0.00000  Uiso   1.00
H1348  H     0.52866   0.17854   0.81033   0.00000  Uiso   1.00
H1349  H     0.57772   0.11106   0.85757   0.00000  Uiso   1.00
H1350  H     0.59704   0.15772   0.89970   0.00000  Uiso   1.00
H1351  H     0.67432   0.13238   0.89391   0.00000  Uiso   1.00
H1352  H     0.64041   0.08445   0.91400   0.00000  Uiso   1.00
H1353  H     0.65611   0.08548   0.85144   0.00000  Uiso   1.00
H1354  H     0.75593   0.48375   0.93008   0.00000  Uiso   1.00
H1355  H     0.75914   0.04101   0.96116   0.00000  Uiso   1.00
H1356  H     0.79513   0.46523   0.67279   0.00000  Uiso   1.00
H1357  H     0.82696   0.01957   0.67362   0.00000  Uiso   1.00
H1358  H     0.83836   0.47227   0.96521   0.00000  Uiso   1.00
H1359  H     0.83771   0.16813   0.91005   0.00000  Uiso   1.00
H1360  H     0.67630   0.00804   0.88989   0.00000  Uiso   1.00
H1361  H     0.66465   0.44541   0.89684   0.00000  Uiso   1.00
H1362  H     0.58997   0.45543   0.85681   0.00000  Uiso   1.00
H1363  H     0.59897   0.49551   0.90858   0.00000  Uiso   1.00
H1364  H     0.60025   0.01804   0.84659   0.00000  Uiso   1.00
H1365  H     0.74725   0.48132   0.73847   0.00000  Uiso   1.00
H1366  H     0.74789   0.03861   0.70805   0.00000  Uiso   1.00
H1367  H     0.71187   0.46222   0.99508   0.00000  Uiso   1.00
H1368  H     0.68421   0.01913   0.98854   0.00000  Uiso   1.00
H1369  H     0.66542   0.47498   0.69645   0.00000  Uiso   1.00
H1370  H     0.84763   0.10462   0.90882   0.00000  Uiso   1.00
H1371  H     0.82635   0.00568   0.77825   0.00000  Uiso   1.00
H1372  H     0.83996   0.44317   0.77367   0.00000  Uiso   1.00
H1373  H     0.91277   0.45622   0.81702   0.00000  Uiso   1.00
H1374  H     0.90498   0.49509   0.76419   0.00000  Uiso   1.00
H1375  H     0.90041   0.01866   0.82533   0.00000  Uiso   1.00
H1376  H     0.82802   0.10214   0.99763   0.00000  Uiso   1.00
H1377  H     0.87586   0.13827   0.98786   0.00000  Uiso   1.00
H1378  H     0.82334   0.16626   0.99641   0.00000  Uiso   1.00
N1379  N     0.75000   0.12934   0.83333   0.00000  Uiso   1.00
N1380  N     0.75000   0.37066   0.83333   0.00000  Uiso   1.00
O1381  O     0.68573   0.29072   0.83334   0.00000  Uiso   1.00
O1382  O     0.67258   0.37317   0.80932   0.00000  Uiso   1.00
O1383  O     0.71822   0.12741   0.75051   0.00000  Uiso   1.00
O1384  O     0.82767   0.37328   0.85742   0.00000  Uiso   1.00
O1385  O     0.61784   0.32906   0.87639   0.00000  Uiso   1.00
O1386  O     0.88715   0.16405   0.84171   0.00000  Uiso   1.00
O1387  O     0.88218   0.32902   0.79045   0.00000  Uiso   1.00
O1388  O     0.61285   0.16404   0.82508   0.00000  Uiso   1.00
O1389  O     0.80185   0.03171   0.90627   0.00000  Uiso   1.00
O1390  O     0.67039   0.46972   0.82468   0.00000  Uiso   1.00
O1391  O     0.70101   0.03076   0.75905   0.00000  Uiso   1.00
O1392  O     0.81427   0.20928   0.83333   0.00000  Uiso   1.00
O1393  O     0.83042   0.46882   0.84437   0.00000  Uiso   1.00
O1394  O     0.81427   0.29072   0.83333   0.00000  Uiso   1.00
O1395  O     0.68573   0.20929   0.83334   0.00000  Uiso   1.00
O1396  O     0.75000   0.29071   0.76280   0.00000  Uiso   1.00
O1397  O     0.75000   0.20929   0.90387   0.00000  Uiso   1.00
O1398  O     0.75000   0.29071   0.90387   0.00000  Uiso   1.00
O1399  O     0.75000   0.20929   0.76280   0.00000  Uiso   1.00
O1400  O     0.78177   0.12785   0.91618   0.00000  Uiso   1.00
C1401  C     0.16518   0.74992   0.83555   0.00000  Uiso   1.00
C1402  C     0.28977   0.94642   0.84002   0.00000  Uiso   1.00
C1403  C     0.24974   0.74999   0.74025   0.00000  Uiso   1.00
C1404  C     0.25022   0.75001   0.92642   0.00000  Uiso   1.00
C1405  C     0.25061   0.52744   0.83342   0.00000  Uiso   1.00
C1406  C     0.25042   0.97307   0.83371   0.00000  Uiso   1.00
C1407  C     0.24989   0.75000   0.68851   0.00000  Uiso   1.00
C1408  C     0.25006   0.75002   0.97815   0.00000  Uiso   1.00
C1409  C     0.04868   0.79189   0.85176   0.00000  Uiso   1.00
C1410  C     0.45346   0.71021   0.84401   0.00000  Uiso   1.00
C1411  C     0.45134   0.79192   0.81533   0.00000  Uiso   1.00
C1412  C     0.33483   0.74992   0.83120   0.00000  Uiso   1.00
C1413  C     0.04655   0.71021   0.82292   0.00000  Uiso   1.00
C1414  C     0.09486   0.79062   0.85540   0.00000  Uiso   1.00
C1415  C     0.40767   0.70781   0.83832   0.00000  Uiso   1.00
C1416  C     0.40516   0.79066   0.81161   0.00000  Uiso   1.00
C1417  C     0.09235   0.70781   0.82852   0.00000  Uiso   1.00
C1418  C     0.11699   0.74959   0.83944   0.00000  Uiso   1.00
C1419  C     0.38302   0.74961   0.82744   0.00000  Uiso   1.00
C1420  C     0.02430   0.75194   0.83469   0.00000  Uiso   1.00
C1421  C     0.47571   0.75195   0.83235   0.00000  Uiso   1.00
C1422  C     0.32792   0.63339   0.92493   0.00000  Uiso   1.00
C1423  C     0.27062   0.60458   0.87227   0.00000  Uiso   1.00
C1424  C     0.33953   0.63506   0.98015   0.00000  Uiso   1.00
C1425  C     0.16165   0.87872   0.75844   0.00000  Uiso   1.00
C1426  C     0.12320   0.84592   0.74265   0.00000  Uiso   1.00
C1427  C     0.17195   0.63225   0.74228   0.00000  Uiso   1.00
C1428  C     0.15968   0.63286   0.68717   0.00000  Uiso   1.00
C1429  C     0.33494   0.87131   0.90918   0.00000  Uiso   1.00
C1430  C     0.38421   0.87616   0.92315   0.00000  Uiso   1.00
C1431  C     0.13146   0.81738   0.92571   0.00000  Uiso   1.00
C1432  C     0.16183   0.85618   0.94782   0.00000  Uiso   1.00
C1433  C     0.39488   0.63616   0.79984   0.00000  Uiso   1.00
C1434  C     0.21177   0.89637   0.82210   0.00000  Uiso   1.00
C1435  C     0.35385   0.60705   0.78473   0.00000  Uiso   1.00
C1436  C     0.36920   0.81738   0.74094   0.00000  Uiso   1.00
C1437  C     0.33937   0.85638   0.71827   0.00000  Uiso   1.00
C1438  C     0.10534   0.63626   0.86705   0.00000  Uiso   1.00
C1439  C     0.14672   0.60785   0.88248   0.00000  Uiso   1.00
C1440  C     0.27852   0.51262   0.94419   0.00000  Uiso   1.00
C1441  C     0.31168   0.99119   0.98298   0.00000  Uiso   1.00
C1442  C     0.15800   0.97713   0.87293   0.00000  Uiso   1.00
C1443  C     0.10869   0.98722   0.87108   0.00000  Uiso   1.00
C1444  C     0.22633   0.51100   0.72303   0.00000  Uiso   1.00
C1445  C     0.22989   0.60425   0.79431   0.00000  Uiso   1.00
C1446  C     0.19514   0.99069   0.68163   0.00000  Uiso   1.00
C1447  C     0.34473   0.97565   0.79688   0.00000  Uiso   1.00
C1448  C     0.39381   0.98719   0.80116   0.00000  Uiso   1.00
C1449  C     0.28838   0.89611   0.84459   0.00000  Uiso   1.00
C1450  C     0.27309   0.55396   0.87174   0.00000  Uiso   1.00
C1451  C     0.21081   0.94681   0.82730   0.00000  Uiso   1.00
C1452  C     0.22818   0.55358   0.79478   0.00000  Uiso   1.00
Cu1453 Cu    0.25000   0.79822   0.83333   0.00000  Uiso   1.00
Cu1454 Cu    0.25000   0.70178   0.83333   0.00000  Uiso   1.00
H1455  H     0.03203   0.82351   0.86380   0.00000  Uiso   1.00
H1456  H     0.19003   0.86956   0.73651   0.00000  Uiso   1.00
H1457  H     0.15086   0.91588   0.75029   0.00000  Uiso   1.00
H1458  H     0.09521   0.85248   0.76573   0.00000  Uiso   1.00
H1459  H     0.11180   0.85293   0.70372   0.00000  Uiso   1.00
H1460  H     0.13363   0.80804   0.74632   0.00000  Uiso   1.00
H1461  H     0.16198   0.66714   0.75674   0.00000  Uiso   1.00
H1462  H     0.15279   0.60346   0.75912   0.00000  Uiso   1.00
H1463  H     0.17035   0.59923   0.67035   0.00000  Uiso   1.00
H1464  H     0.12335   0.63666   0.67997   0.00000  Uiso   1.00
H1465  H     0.17614   0.66329   0.66992   0.00000  Uiso   1.00
H1466  H     0.47136   0.67854   0.85657   0.00000  Uiso   1.00
H1467  H     0.32387   0.83613   0.92225   0.00000  Uiso   1.00
H1468  H     0.31738   0.89958   0.92888   0.00000  Uiso   1.00
H1469  H     0.39620   0.91112   0.91039   0.00000  Uiso   1.00
H1470  H     0.39077   0.87394   0.96365   0.00000  Uiso   1.00
H1471  H     0.40253   0.84707   0.90592   0.00000  Uiso   1.00
H1472  H     0.15019   0.78316   0.92846   0.00000  Uiso   1.00
H1473  H     0.10229   0.81447   0.94794   0.00000  Uiso   1.00
H1474  H     0.14261   0.88919   0.95337   0.00000  Uiso   1.00
H1475  H     0.17722   0.84416   0.98390   0.00000  Uiso   1.00
H1476  H     0.18856   0.86371   0.92332   0.00000  Uiso   1.00
H1477  H     0.46800   0.82353   0.80333   0.00000  Uiso   1.00
H1478  H     0.42287   0.61143   0.80929   0.00000  Uiso   1.00
H1479  H     0.40271   0.65762   0.76705   0.00000  Uiso   1.00
H1480  H     0.32590   0.63111   0.77322   0.00000  Uiso   1.00
H1481  H     0.36037   0.58348   0.75338   0.00000  Uiso   1.00
H1482  H     0.34482   0.58478   0.81598   0.00000  Uiso   1.00
H1483  H     0.35028   0.78329   0.73792   0.00000  Uiso   1.00
H1484  H     0.39869   0.81422   0.71922   0.00000  Uiso   1.00
H1485  H     0.35875   0.88946   0.71386   0.00000  Uiso   1.00
H1486  H     0.32507   0.84479   0.68154   0.00000  Uiso   1.00
H1487  H     0.31188   0.86364   0.74185   0.00000  Uiso   1.00
H1488  H     0.02866   0.67854   0.81033   0.00000  Uiso   1.00
H1489  H     0.07772   0.61106   0.85757   0.00000  Uiso   1.00
H1490  H     0.09704   0.65772   0.89970   0.00000  Uiso   1.00
H1491  H     0.17432   0.63238   0.89391   0.00000  Uiso   1.00
H1492  H     0.14041   0.58445   0.91400   0.00000  Uiso   1.00
H1493  H     0.15611   0.58548   0.85144   0.00000  Uiso   1.00
H1494  H     0.25593   0.98375   0.93008   0.00000  Uiso   1.00
H1495  H     0.25914   0.54101   0.96116   0.00000  Uiso   1.00
H1496  H     0.29513   0.96523   0.67279   0.00000  Uiso   1.00
H1497  H     0.32696   0.51957   0.67362   0.00000  Uiso   1.00
H1498  H     0.33836   0.97227   0.96521   0.00000  Uiso   1.00
H1499  H     0.33771   0.66813   0.91005   0.00000  Uiso   1.00
H1500  H     0.17630   0.50804   0.88989   0.00000  Uiso   1.00
H1501  H     0.16465   0.94541   0.89684   0.00000  Uiso   1.00
H1502  H     0.08997   0.95543   0.85681   0.00000  Uiso   1.00
H1503  H     0.09897   0.99551   0.90858   0.00000  Uiso   1.00
H1504  H     0.10025   0.51804   0.84659   0.00000  Uiso   1.00
H1505  H     0.24725   0.98132   0.73847   0.00000  Uiso   1.00
H1506  H     0.24789   0.53861   0.70805   0.00000  Uiso   1.00
H1507  H     0.21187   0.96222   0.99508   0.00000  Uiso   1.00
H1508  H     0.18421   0.51913   0.98854   0.00000  Uiso   1.00
H1509  H     0.16542   0.97498   0.69645   0.00000  Uiso   1.00
H1510  H     0.34763   0.60462   0.90882   0.00000  Uiso   1.00
H1511  H     0.32635   0.50568   0.77825   0.00000  Uiso   1.00
H1512  H     0.33996   0.94317   0.77367   0.00000  Uiso   1.00
H1513  H     0.41277   0.95622   0.81702   0.00000  Uiso   1.00
H1514  H     0.40498   0.99509   0.76419   0.00000  Uiso   1.00
H1515  H     0.40041   0.51866   0.82533   0.00000  Uiso   1.00
H1516  H     0.32802   0.60214   0.99763   0.00000  Uiso   1.00
H1517  H     0.37586   0.63827   0.98786   0.00000  Uiso   1.00
H1518  H     0.32334   0.66626   0.99641   0.00000  Uiso   1.00
N1519  N     0.25000   0.62934   0.83333   0.00000  Uiso   1.00
N1520  N     0.25000   0.87066   0.83333   0.00000  Uiso   1.00
O1521  O     0.18573   0.79072   0.83334   0.00000  Uiso   1.00
O1522  O     0.17258   0.87317   0.80932   0.00000  Uiso   1.00
O1523  O     0.21822   0.62741   0.75051   0.00000  Uiso   1.00
O1524  O     0.32767   0.87328   0.85742   0.00000  Uiso   1.00
O1525  O     0.11784   0.82906   0.87639   0.00000  Uiso   1.00
O1526  O     0.38715   0.66405   0.84171   0.00000  Uiso   1.00
O1527  O     0.38218   0.82902   0.79045   0.00000  Uiso   1.00
O1528  O     0.11285   0.66404   0.82508   0.00000  Uiso   1.00
O1529  O     0.30185   0.53171   0.90627   0.00000  Uiso   1.00
O1530  O     0.17039   0.96972   0.82468   0.00000  Uiso   1.00
O1531  O     0.20101   0.53076   0.75905   0.00000  Uiso   1.00
O1532  O     0.31427   0.70928   0.83333   0.00000  Uiso   1.00
O1533  O     0.33042   0.96882   0.84437   0.00000  Uiso   1.00
O1534  O     0.31427   0.79072   0.83333   0.00000  Uiso   1.00
O1535  O     0.18573   0.70929   0.83334   0.00000  Uiso   1.00
O1536  O     0.25000   0.79071   0.76280   0.00000  Uiso   1.00
O1537  O     0.25000   0.70929   0.90387   0.00000  Uiso   1.00
O1538  O     0.25000   0.79071   0.90387   0.00000  Uiso   1.00
O1539  O     0.25000   0.70929   0.76280   0.00000  Uiso   1.00
O1540  O     0.28177   0.62785   0.91618   0.00000  Uiso   1.00
C1541  C     0.66518   0.74992   0.83555   0.00000  Uiso   1.00
C1542  C     0.78977   0.94642   0.84002   0.00000  Uiso   1.00
C1543  C     0.74974   0.74999   0.74025   0.00000  Uiso   1.00
C1544  C     0.75022   0.75001   0.92642   0.00000  Uiso   1.00
C1545  C     0.75061   0.52744   0.83342   0.00000  Uiso   1.00
C1546  C     0.75042   0.97307   0.83371   0.00000  Uiso   1.00
C1547  C     0.74989   0.75000   0.68851   0.00000  Uiso   1.00
C1548  C     0.75006   0.75002   0.97815   0.00000  Uiso   1.00
C1549  C     0.54868   0.79189   0.85176   0.00000  Uiso   1.00
C1550  C     0.95346   0.71021   0.84401   0.00000  Uiso   1.00
C1551  C     0.95134   0.79192   0.81533   0.00000  Uiso   1.00
C1552  C     0.83483   0.74992   0.83120   0.00000  Uiso   1.00
C1553  C     0.54655   0.71021   0.82292   0.00000  Uiso   1.00
C1554  C     0.59486   0.79062   0.85540   0.00000  Uiso   1.00
C1555  C     0.90767   0.70781   0.83832   0.00000  Uiso   1.00
C1556  C     0.90516   0.79066   0.81161   0.00000  Uiso   1.00
C1557  C     0.59235   0.70781   0.82852   0.00000  Uiso   1.00
C1558  C     0.61699   0.74959   0.83944   0.00000  Uiso   1.00
C1559  C     0.88302   0.74961   0.82744   0.00000  Uiso   1.00
C1560  C     0.52430   0.75194   0.83469   0.00000  Uiso   1.00
C1561  C     0.97571   0.75195   0.83235   0.00000  Uiso   1.00
C1562  C     0.82792   0.63339   0.92493   0.00000  Uiso   1.00
C1563  C     0.77062   0.60458   0.87227   0.00000  Uiso   1.00
C1564  C     0.83953   0.63506   0.98015   0.00000  Uiso   1.00
C1565  C     0.66165   0.87872   0.75844   0.00000  Uiso   1.00
C1566  C     0.62320   0.84592   0.74265   0.00000  Uiso   1.00
C1567  C     0.67195   0.63225   0.74228   0.00000  Uiso   1.00
C1568  C     0.65968   0.63286   0.68717   0.00000  Uiso   1.00
C1569  C     0.83494   0.87131   0.90918   0.00000  Uiso   1.00
C1570  C     0.88421   0.87616   0.92315   0.00000  Uiso   1.00
C1571  C     0.63146   0.81738   0.92571   0.00000  Uiso   1.00
C1572  C     0.66183   0.85618   0.94782   0.00000  Uiso   1.00
C1573  C     0.89488   0.63616   0.79984   0.00000  Uiso   1.00
C1574  C     0.71177   0.89637   0.82210   0.00000  Uiso   1.00
C1575  C     0.85385   0.60705   0.78473   0.00000  Uiso   1.00
C1576  C     0.86920   0.81738   0.74094   0.00000  Uiso   1.00
C1577  C     0.83937   0.85638   0.71827   0.00000  Uiso   1.00
C1578  C     0.60534   0.63626   0.86705   0.00000  Uiso   1.00
C1579  C     0.64672   0.60785   0.88248   0.00000  Uiso   1.00
C1580  C     0.77852   0.51262   0.94419   0.00000  Uiso   1.00
C1581  C     0.81168   0.99119   0.98298   0.00000  Uiso   1.00
C1582  C     0.65800   0.97713   0.87293   0.00000  Uiso   1.00
C1583  C     0.60869   0.98722   0.87108   0.00000  Uiso   1.00
C1584  C     0.72633   0.51100   0.72303   0.00000  Uiso   1.00
C1585  C     0.72989   0.60425   0.79431   0.00000  Uiso   1.00
C1586  C     0.69514   0.99069   0.68163   0.00000  Uiso   1.00
C1587  C     0.84473   0.97565   0.79688   0.00000  Uiso   1.00
C1588  C     0.89381   0.98719   0.80116   0.00000  Uiso   1.00
C1589  C     0.78838   0.89611   0.84459   0.00000  Uiso   1.00
C1590  C     0.77309   0.55396   0.87174   0.00000  Uiso   1.00
C1591  C     0.71081   0.94681   0.82730   0.00000  Uiso   1.00
C1592  C     0.72818   0.55358   0.79478   0.00000  Uiso   1.00
Cu1593 Cu    0.75000   0.79822   0.83333   0.00000  Uiso   1.00
Cu1594 Cu    0.75000   0.70178   0.83333   0.00000  Uiso   1.00
H1595  H     0.53203   0.82351   0.86380   0.00000  Uiso   1.00
H1596  H     0.69003   0.86956   0.73651   0.00000  Uiso   1.00
H1597  H     0.65086   0.91588   0.75029   0.00000  Uiso   1.00
H1598  H     0.59521   0.85248   0.76573   0.00000  Uiso   1.00
H1599  H     0.61180   0.85293   0.70372   0.00000  Uiso   1.00
H1600  H     0.63363   0.80804   0.74632   0.00000  Uiso   1.00
H1601  H     0.66198   0.66714   0.75674   0.00000  Uiso   1.00
H1602  H     0.65279   0.60346   0.75912   0.00000  Uiso   1.00
H1603  H     0.67035   0.59923   0.67035   0.00000  Uiso   1.00
H1604  H     0.62335   0.63666   0.67997   0.00000  Uiso   1.00
H1605  H     0.67614   0.66329   0.66992   0.00000  Uiso   1.00
H1606  H     0.97136   0.67854   0.85657   0.00000  Uiso   1.00
H1607  H     0.82387   0.83613   0.92225   0.00000  Uiso   1.00
H1608  H     0.81738   0.89958   0.92888   0.00000  Uiso   1.00
H1609  H     0.89620   0.91112   0.91039   0.00000  Uiso   1.00
H1610  H     0.89077   0.87394   0.96365   0.00000  Uiso   1.00
H1611  H     0.90253   0.84707   0.90592   0.00000  Uiso   1.00
H1612  H     0.65019   0.78316   0.92846   0.00000  Uiso   1.00
H1613  H     0.60229   0.81447   0.94794   0.00000  Uiso   1.00
H1614  H     0.64261   0.88919   0.95337   0.00000  Uiso   1.00
H1615  H     0.67722   0.84416   0.98390   0.00000  Uiso   1.00
H1616  H     0.68856   0.86371   0.92332   0.00000  Uiso   1.00
H1617  H     0.96800   0.82353   0.80333   0.00000  Uiso   1.00
H1618  H     0.92287   0.61143   0.80929   0.00000  Uiso   1.00
H1619  H     0.90271   0.65762   0.76705   0.00000  Uiso   1.00
H1620  H     0.82590   0.63111   0.77322   0.00000  Uiso   1.00
H1621  H     0.86037   0.58348   0.75338   0.00000  Uiso   1.00
H1622  H     0.84482   0.58478   0.81598   0.00000  Uiso   1.00
H1623  H     0.85028   0.78329   0.73792   0.00000  Uiso   1.00
H1624  H     0.89869   0.81422   0.71922   0.00000  Uiso   1.00
H1625  H     0.85875   0.88946   0.71386   0.00000  Uiso   1.00
H1626  H     0.82507   0.84479   0.68154   0.00000  Uiso   1.00
H1627  H     0.81188   0.86364   0.74185   0.00000  Uiso   1.00
H1628  H     0.52866   0.67854   0.81033   0.00000  Uiso   1.00
H1629  H     0.57772   0.61106   0.85757   0.00000  Uiso   1.00
H1630  H     0.59704   0.65772   0.89970   0.00000  Uiso   1.00
H1631  H     0.67432   0.63238   0.89391   0.00000  Uiso   1.00
H1632  H     0.64041   0.58445   0.91400   0.00000  Uiso   1.00
H1633  H     0.65611   0.58548   0.85144   0.00000  Uiso   1.00
H1634  H     0.75593   0.98375   0.93008   0.00000  Uiso   1.00
H1635  H     0.75914   0.54101   0.96116   0.00000  Uiso   1.00
H1636  H     0.79513   0.96523   0.67279   0.00000  Uiso   1.00
H1637  H     0.82696   0.51957   0.67362   0.00000  Uiso   1.00
H1638  H     0.83836   0.97227   0.96521   0.00000  Uiso   1.00
H1639  H     0.83771   0.66813   0.91005   0.00000  Uiso   1.00
H1640  H     0.67630   0.50804   0.88989   0.00000  Uiso   1.00
H1641  H     0.66465   0.94541   0.89684   0.00000  Uiso   1.00
H1642  H     0.58997   0.95543   0.85681   0.00000  Uiso   1.00
H1643  H     0.59897   0.99551   0.90858   0.00000  Uiso   1.00
H1644  H     0.60025   0.51804   0.84659   0.00000  Uiso   1.00
H1645  H     0.74725   0.98132   0.73847   0.00000  Uiso   1.00
H1646  H     0.74789   0.53861   0.70805   0.00000  Uiso   1.00
H1647  H     0.71187   0.96222   0.99508   0.00000  Uiso   1.00
H1648  H     0.68421   0.51913   0.98854   0.00000  Uiso   1.00
H1649  H     0.66542   0.97498   0.69645   0.00000  Uiso   1.00
H1650  H     0.84763   0.60462   0.90882   0.00000  Uiso   1.00
H1651  H     0.82635   0.50568   0.77825   0.00000  Uiso   1.00
H1652  H     0.83996   0.94317   0.77367   0.00000  Uiso   1.00
H1653  H     0.91277   0.95622   0.81702   0.00000  Uiso   1.00
H1654  H     0.90498   0.99509   0.76419   0.00000  Uiso   1.00
H1655  H     0.90041   0.51866   0.82533   0.00000  Uiso   1.00
H1656  H     0.82802   0.60214   0.99763   0.00000  Uiso   1.00
H1657  H     0.87586   0.63827   0.98786   0.00000  Uiso   1.00
H1658  H     0.82334   0.66626   0.99641   0.00000  Uiso   1.00
N1659  N     0.75000   0.62934   0.83333   0.00000  Uiso   1.00
N1660  N     0.75000   0.87066   0.83333   0.00000  Uiso   1.00
O1661  O     0.68573   0.79072   0.83334   0.00000  Uiso   1.00
O1662  O     0.67258   0.87317   0.80932   0.00000  Uiso   1.00
O1663  O     0.71822   0.62741   0.75051   0.00000  Uiso   1.00
O1664  O     0.82767   0.87328   0.85742   0.00000  Uiso   1.00
O1665  O     0.61784   0.82906   0.87639   0.00000  Uiso   1.00
O1666  O     0.88715   0.66405   0.84171   0.00000  Uiso   1.00
O1667  O     0.88218   0.82902   0.79045   0.00000  Uiso   1.00
O1668  O     0.61285   0.66404   0.82508   0.00000  Uiso   1.00
O1669  O     0.80185   0.53171   0.90627   0.00000  Uiso   1.00
O1670  O     0.67039   0.96972   0.82468   0.00000  Uiso   1.00
O1671  O     0.70101   0.53076   0.75905   0.00000  Uiso   1.00
O1672  O     0.81427   0.70928   0.83333   0.00000  Uiso   1.00
O1673  O     0.83042   0.96882   0.84437   0.00000  Uiso   1.00
O1674  O     0.81427   0.79072   0.83333   0.00000  Uiso   1.00
O1675  O     0.68573   0.70929   0.83334   0.00000  Uiso   1.00
O1676  O     0.75000   0.79071   0.76280   0.00000  Uiso   1.00
O1677  O     0.75000   0.70929   0.90387   0.00000  Uiso   1.00
O1678  O     0.75000   0.79071   0.90387   0.00000  Uiso   1.00
O1679  O     0.75000   0.70929   0.76280   0.00000  Uiso   1.00
O1680  O     0.78177   0.62785   0.91618   0.00000  Uiso   1.00
loop_
_geom_bond_atom_site_label_1
_geom_bond_atom_site_label_2
_geom_bond_distance
_geom_bond_site_symmetry_2
_ccdc_geom_bond_type
C1     C18     1.475   .     S
C1     O121    1.306   .     A
C1     O135    1.302   .     A
C2     C49     1.416   .     A
C2     C6      1.408   .     A
C2     O133    1.381   .     S
C3     C7      1.412   .     S
C3     O136    1.296   .     A
C3     O139    1.296   .     A
C4     C8      1.412   .     S
C4     O137    1.296   .     A
C4     O138    1.296   .     A
C5     C52     1.415   .     A
C5     C50     1.415   .     A
C5     C286    1.524   1_545 S
C6     C51     1.409   .     A
C6     C285    1.524   .     S
C7     C1128   1.192   1_554 S
C8     C567    1.192   .     S
C9     H55     1.083   .     S
C9     C14     1.398   .     A
C9     C20     1.402   .     A
C10    C15     1.388   .     A
C10    H66     1.082   .     S
C10    C21     1.400   .     A
C11    H77     1.083   .     S
C11    C21     1.402   .     A
C11    C16     1.398   .     A
C12    C19     1.474   .     S
C12    O134    1.306   .     A
C12    O132    1.302   .     A
C13    C20     1.400   .     A
C13    C17     1.388   .     A
C13    H88     1.082   .     S
C14    C18     1.416   .     A
C14    O125    1.383   .     S
C15    C19     1.409   .     A
C15    O126    1.382   .     S
C16    C19     1.417   .     A
C16    O127    1.383   .     S
C17    C18     1.409   .     A
C17    O128    1.382   .     S
C20    C161    1.471   1_455 S
C21    C160    1.471   .     S
C22    O140    1.412   .     S
C22    H110    1.114   .     S
C22    H99     1.105   .     S
C22    C24     1.522   .     S
C23    N119    1.379   .     A
C23    O140    1.383   .     S
C23    C50     1.421   .     A
C24    H117    1.110   .     S
C24    H116    1.108   .     S
C24    H118    1.111   .     S
C25    H56     1.115   .     S
C25    H57     1.109   .     S
C25    C26     1.522   .     S
C25    O122    1.411   .     S
C26    H59     1.109   .     S
C26    H58     1.111   .     S
C26    H60     1.110   .     S
C27    H61     1.105   .     S
C27    O123    1.411   .     S
C27    H62     1.114   .     S
C27    C28     1.521   .     S
C28    H64     1.110   .     S
C28    H65     1.111   .     S
C28    H63     1.107   .     S
C29    O124    1.414   .     S
C29    H67     1.109   .     S
C29    C30     1.521   .     S
C29    H68     1.115   .     S
C30    H71     1.111   .     S
C30    H70     1.109   .     S
C30    H69     1.111   .     S
C31    H73     1.114   .     S
C31    O125    1.416   .     S
C31    H72     1.114   .     S
C31    C32     1.520   .     S
C32    H75     1.109   .     S
C32    H76     1.110   .     S
C32    H74     1.110   .     S
C33    H78     1.111   .     S
C33    H79     1.119   .     S
C33    O126    1.418   .     S
C33    C35     1.519   .     S
C34    C51     1.421   .     A
C34    O122    1.377   .     S
C34    N120    1.380   .     A
C35    H81     1.110   .     S
C35    H80     1.110   .     S
C35    H82     1.108   .     S
C36    C37     1.520   .     S
C36    H83     1.115   .     S
C36    O127    1.416   .     S
C36    H84     1.114   .     S
C37    H85     1.110   .     S
C37    H86     1.110   .     S
C37    H87     1.110   .     S
C38    H89     1.111   .     S
C38    C39     1.519   .     S
C38    O128    1.418   .     S
C38    H90     1.119   .     S
C39    H93     1.108   .     S
C39    H91     1.110   .     S
C39    H92     1.110   .     S
C40    O129    1.404   .     S
C40    H95     1.111   .     S
C40    C321    1.527   1_545 S
C40    H374    1.110   1_545 S
C41    H98     1.110   .     S
C41    C320    1.527   .     S
C41    H656    1.109   .     S
C41    H937    1.109   .     S
C42    O130    1.411   .     S
C42    C43     1.520   .     S
C42    H101    1.112   .     S
C42    H380    1.111   .     S
C43    H103    1.111   .     S
C43    H102    1.111   .     S
C43    H384    1.110   .     S
C44    O131    1.406   .     S
C44    H106    1.111   .     S
C44    C326    1.527   1_545 S
C44    H385    1.110   1_545 S
C45    O123    1.383   .     S
C45    N119    1.379   .     A
C45    C52     1.421   .     A
C46    H109    1.108   .     S
C46    C324    1.527   .     S
C46    H1227   1.109   1_554 S
C46    H1508   1.108   1_554 S
C47    H112    1.112   .     S
C47    O133    1.411   .     S
C47    C48     1.520   .     S
C47    H391    1.111   .     S
C48    H114    1.110   .     S
C48    H113    1.111   .     S
C48    H395    1.110   .     S
C49    N120    1.380   .     A
C49    O124    1.375   .     S
C50    O129    1.383   .     S
C51    O130    1.382   .     S
C52    O131    1.384   .     S
Cu53   N120    2.030   .     S
Cu53   O136    1.936   .     S
Cu53   O138    1.936   .     S
Cu53   Cu54    2.702   .     S
Cu53   O134    1.962   .     S
Cu53   O121    1.962   .     S
Cu54   O137    1.936   .     S
Cu54   O139    1.936   .     S
Cu54   N119    2.030   .     S
Cu54   O132    1.962   .     S
Cu54   O135    1.962   .     S
H94    C320    1.110   .     S
H96    C1161   1.109   1_554 S
H97    C1441   1.109   1_544 S
H100   C322    1.111   1_545 S
H104   C323    1.110   1_545 S
H105   C324    1.110   .     S
H107   C606    1.109   .     S
H108   C886    1.108   1_545 S
H111   C327    1.111   1_545 S
H115   C328    1.110   1_545 S
C141   C158    1.475   .     S
C141   O261    1.306   .     A
C141   O275    1.302   .     A
C142   C189    1.416   .     A
C142   C146    1.408   .     A
C142   O273    1.381   .     S
C143   C147    1.412   .     S
C143   O276    1.296   .     A
C143   O279    1.296   .     A
C144   C148    1.412   .     S
C144   O277    1.296   .     A
C144   O278    1.296   .     A
C145   C192    1.415   .     A
C145   C190    1.415   .     A
C145   C426    1.524   1_545 S
C146   C191    1.409   .     A
C146   C425    1.524   .     S
C147   C1268   1.192   1_554 S
C148   C707    1.192   .     S
C149   H195    1.083   .     S
C149   C154    1.398   .     A
C149   C160    1.402   .     A
C150   C155    1.388   .     A
C150   H206    1.082   .     S
C150   C161    1.400   .     A
C151   H217    1.083   .     S
C151   C161    1.402   .     A
C151   C156    1.398   .     A
C152   C159    1.474   .     S
C152   O274    1.306   .     A
C152   O272    1.302   .     A
C153   C160    1.400   .     A
C153   C157    1.388   .     A
C153   H228    1.082   .     S
C154   C158    1.416   .     A
C154   O265    1.383   .     S
C155   C159    1.409   .     A
C155   O266    1.382   .     S
C156   C159    1.417   .     A
C156   O267    1.383   .     S
C157   C158    1.409   .     A
C157   O268    1.382   .     S
C161   C20     1.471   1_655 S
C162   O280    1.412   .     S
C162   H250    1.114   .     S
C162   H239    1.105   .     S
C162   C164    1.522   .     S
C163   N259    1.379   .     A
C163   O280    1.383   .     S
C163   C190    1.421   .     A
C164   H257    1.110   .     S
C164   H256    1.108   .     S
C164   H258    1.111   .     S
C165   H196    1.115   .     S
C165   H197    1.109   .     S
C165   C166    1.522   .     S
C165   O262    1.411   .     S
C166   H199    1.109   .     S
C166   H198    1.111   .     S
C166   H200    1.110   .     S
C167   H201    1.105   .     S
C167   O263    1.411   .     S
C167   H202    1.114   .     S
C167   C168    1.521   .     S
C168   H204    1.110   .     S
C168   H205    1.111   .     S
C168   H203    1.107   .     S
C169   O264    1.414   .     S
C169   H207    1.109   .     S
C169   C170    1.521   .     S
C169   H208    1.115   .     S
C170   H211    1.111   .     S
C170   H210    1.109   .     S
C170   H209    1.111   .     S
C171   H213    1.114   .     S
C171   O265    1.416   .     S
C171   H212    1.114   .     S
C171   C172    1.520   .     S
C172   H215    1.109   .     S
C172   H216    1.110   .     S
C172   H214    1.110   .     S
C173   H218    1.111   .     S
C173   H219    1.119   .     S
C173   O266    1.418   .     S
C173   C175    1.519   .     S
C174   C191    1.421   .     A
C174   O262    1.377   .     S
C174   N260    1.380   .     A
C175   H221    1.110   .     S
C175   H220    1.110   .     S
C175   H222    1.108   .     S
C176   C177    1.520   .     S
C176   H223    1.115   .     S
C176   O267    1.416   .     S
C176   H224    1.114   .     S
C177   H225    1.110   .     S
C177   H226    1.110   .     S
C177   H227    1.110   .     S
C178   H229    1.111   .     S
C178   C179    1.519   .     S
C178   O268    1.418   .     S
C178   H230    1.119   .     S
C179   H233    1.108   .     S
C179   H231    1.110   .     S
C179   H232    1.110   .     S
C180   O269    1.404   .     S
C180   H235    1.111   .     S
C180   C461    1.527   1_545 S
C180   H514    1.110   1_545 S
C181   H238    1.110   .     S
C181   C460    1.527   .     S
C181   H796    1.109   .     S
C181   H1077   1.109   .     S
C182   O270    1.411   .     S
C182   C183    1.520   .     S
C182   H241    1.112   .     S
C182   H520    1.111   .     S
C183   H243    1.111   .     S
C183   H242    1.111   .     S
C183   H524    1.110   .     S
C184   O271    1.406   .     S
C184   H246    1.111   .     S
C184   C466    1.527   1_545 S
C184   H525    1.110   1_545 S
C185   O263    1.383   .     S
C185   N259    1.379   .     A
C185   C192    1.421   .     A
C186   H249    1.108   .     S
C186   C464    1.527   .     S
C186   H1367   1.109   1_554 S
C186   H1648   1.108   1_554 S
C187   H252    1.112   .     S
C187   O273    1.411   .     S
C187   C188    1.520   .     S
C187   H531    1.111   .     S
C188   H254    1.110   .     S
C188   H253    1.111   .     S
C188   H535    1.110   .     S
C189   N260    1.380   .     A
C189   O264    1.375   .     S
C190   O269    1.383   .     S
C191   O270    1.382   .     S
C192   O271    1.384   .     S
Cu193  N260    2.030   .     S
Cu193  O276    1.936   .     S
Cu193  O278    1.936   .     S
Cu193  Cu194   2.702   .     S
Cu193  O274    1.962   .     S
Cu193  O261    1.962   .     S
Cu194  O277    1.936   .     S
Cu194  O279    1.936   .     S
Cu194  N259    2.030   .     S
Cu194  O272    1.962   .     S
Cu194  O275    1.962   .     S
H234   C460    1.110   .     S
H236   C1301   1.109   1_554 S
H237   C1581   1.109   1_544 S
H240   C462    1.111   1_545 S
H244   C463    1.110   1_545 S
H245   C464    1.110   .     S
H247   C746    1.109   .     S
H248   C1026   1.108   1_545 S
H251   C467    1.111   1_545 S
H255   C468    1.110   1_545 S
C281   C298    1.475   .     S
C281   O401    1.306   .     A
C281   O415    1.302   .     A
C282   C329    1.416   .     A
C282   C286    1.408   .     A
C282   O413    1.381   .     S
C283   C287    1.412   .     S
C283   O416    1.296   .     A
C283   O419    1.296   .     A
C284   C288    1.412   .     S
C284   O417    1.296   .     A
C284   O418    1.296   .     A
C285   C332    1.415   .     A
C285   C330    1.415   .     A
C286   C331    1.409   .     A
C286   C5      1.524   1_565 S
C287   C1408   1.192   1_554 S
C288   C847    1.192   .     S
C289   H335    1.083   .     S
C289   C294    1.398   .     A
C289   C300    1.402   .     A
C290   C295    1.388   .     A
C290   H346    1.082   .     S
C290   C301    1.400   .     A
C291   H357    1.083   .     S
C291   C301    1.402   .     A
C291   C296    1.398   .     A
C292   C299    1.474   .     S
C292   O414    1.306   .     A
C292   O412    1.302   .     A
C293   C300    1.400   .     A
C293   C297    1.388   .     A
C293   H368    1.082   .     S
C294   C298    1.416   .     A
C294   O405    1.383   .     S
C295   C299    1.409   .     A
C295   O406    1.382   .     S
C296   C299    1.417   .     A
C296   O407    1.383   .     S
C297   C298    1.409   .     A
C297   O408    1.382   .     S
C300   C441    1.471   1_455 S
C301   C440    1.471   .     S
C302   O420    1.412   .     S
C302   H390    1.114   .     S
C302   H379    1.105   .     S
C302   C304    1.522   .     S
C303   N399    1.379   .     A
C303   O420    1.383   .     S
C303   C330    1.421   .     A
C304   H397    1.110   .     S
C304   H396    1.108   .     S
C304   H398    1.111   .     S
C305   H336    1.115   .     S
C305   H337    1.109   .     S
C305   C306    1.522   .     S
C305   O402    1.411   .     S
C306   H339    1.109   .     S
C306   H338    1.111   .     S
C306   H340    1.110   .     S
C307   H341    1.105   .     S
C307   O403    1.411   .     S
C307   H342    1.114   .     S
C307   C308    1.521   .     S
C308   H344    1.110   .     S
C308   H345    1.111   .     S
C308   H343    1.107   .     S
C309   O404    1.414   .     S
C309   H347    1.109   .     S
C309   C310    1.521   .     S
C309   H348    1.115   .     S
C310   H351    1.111   .     S
C310   H350    1.109   .     S
C310   H349    1.111   .     S
C311   H353    1.114   .     S
C311   O405    1.416   .     S
C311   H352    1.114   .     S
C311   C312    1.520   .     S
C312   H355    1.109   .     S
C312   H356    1.110   .     S
C312   H354    1.110   .     S
C313   H358    1.111   .     S
C313   H359    1.119   .     S
C313   O406    1.418   .     S
C313   C315    1.519   .     S
C314   C331    1.421   .     A
C314   O402    1.377   .     S
C314   N400    1.380   .     A
C315   H361    1.110   .     S
C315   H360    1.110   .     S
C315   H362    1.108   .     S
C316   C317    1.520   .     S
C316   H363    1.115   .     S
C316   O407    1.416   .     S
C316   H364    1.114   .     S
C317   H365    1.110   .     S
C317   H366    1.110   .     S
C317   H367    1.110   .     S
C318   H369    1.111   .     S
C318   C319    1.519   .     S
C318   O408    1.418   .     S
C318   H370    1.119   .     S
C319   H373    1.108   .     S
C319   H371    1.110   .     S
C319   H372    1.110   .     S
C320   O409    1.404   .     S
C320   H375    1.111   .     S
C321   H378    1.110   .     S
C321   C40     1.527   1_565 S
C321   H936    1.109   .     S
C321   H657    1.109   1_565 S
C322   O410    1.411   .     S
C322   C323    1.520   .     S
C322   H381    1.112   .     S
C322   H100    1.111   1_565 S
C323   H383    1.111   .     S
C323   H382    1.111   .     S
C323   H104    1.110   1_565 S
C324   O411    1.406   .     S
C324   H386    1.111   .     S
C325   O403    1.383   .     S
C325   N399    1.379   .     A
C325   C332    1.421   .     A
C326   H389    1.108   .     S
C326   C44     1.527   1_565 S
C326   H1507   1.109   1_554 S
C326   H1228   1.108   1_564 S
C327   H392    1.112   .     S
C327   O413    1.411   .     S
C327   C328    1.520   .     S
C327   H111    1.111   1_565 S
C328   H394    1.110   .     S
C328   H393    1.111   .     S
C328   H115    1.110   1_565 S
C329   N400    1.380   .     A
C329   O404    1.375   .     S
C330   O409    1.383   .     S
C331   O410    1.382   .     S
C332   O411    1.384   .     S
Cu333  N400    2.030   .     S
Cu333  O416    1.936   .     S
Cu333  O418    1.936   .     S
Cu333  Cu334   2.702   .     S
Cu333  O414    1.962   .     S
Cu333  O401    1.962   .     S
Cu334  O417    1.936   .     S
Cu334  O419    1.936   .     S
Cu334  N399    2.030   .     S
Cu334  O412    1.962   .     S
Cu334  O415    1.962   .     S
H374   C40     1.110   1_565 S
H376   C1441   1.109   1_554 S
H377   C1161   1.109   1_554 S
H385   C44     1.110   1_565 S
H387   C886    1.109   .     S
H388   C606    1.108   .     S
C421   C438    1.475   .     S
C421   O541    1.306   .     A
C421   O555    1.302   .     A
C422   C469    1.416   .     A
C422   C426    1.408   .     A
C422   O553    1.381   .     S
C423   C427    1.412   .     S
C423   O556    1.296   .     A
C423   O559    1.296   .     A
C424   C428    1.412   .     S
C424   O557    1.296   .     A
C424   O558    1.296   .     A
C425   C472    1.415   .     A
C425   C470    1.415   .     A
C426   C471    1.409   .     A
C426   C145    1.524   1_565 S
C427   C1548   1.192   1_554 S
C428   C987    1.192   .     S
C429   H475    1.083   .     S
C429   C434    1.398   .     A
C429   C440    1.402   .     A
C430   C435    1.388   .     A
C430   H486    1.082   .     S
C430   C441    1.400   .     A
C431   H497    1.083   .     S
C431   C441    1.402   .     A
C431   C436    1.398   .     A
C432   C439    1.474   .     S
C432   O554    1.306   .     A
C432   O552    1.302   .     A
C433   C440    1.400   .     A
C433   C437    1.388   .     A
C433   H508    1.082   .     S
C434   C438    1.416   .     A
C434   O545    1.383   .     S
C435   C439    1.409   .     A
C435   O546    1.382   .     S
C436   C439    1.417   .     A
C436   O547    1.383   .     S
C437   C438    1.409   .     A
C437   O548    1.382   .     S
C441   C300    1.471   1_655 S
C442   O560    1.412   .     S
C442   H530    1.114   .     S
C442   H519    1.105   .     S
C442   C444    1.522   .     S
C443   N539    1.379   .     A
C443   O560    1.383   .     S
C443   C470    1.421   .     A
C444   H537    1.110   .     S
C444   H536    1.108   .     S
C444   H538    1.111   .     S
C445   H476    1.115   .     S
C445   H477    1.109   .     S
C445   C446    1.522   .     S
C445   O542    1.411   .     S
C446   H479    1.109   .     S
C446   H478    1.111   .     S
C446   H480    1.110   .     S
C447   H481    1.105   .     S
C447   O543    1.411   .     S
C447   H482    1.114   .     S
C447   C448    1.521   .     S
C448   H484    1.110   .     S
C448   H485    1.111   .     S
C448   H483    1.107   .     S
C449   O544    1.414   .     S
C449   H487    1.109   .     S
C449   C450    1.521   .     S
C449   H488    1.115   .     S
C450   H491    1.111   .     S
C450   H490    1.109   .     S
C450   H489    1.111   .     S
C451   H493    1.114   .     S
C451   O545    1.416   .     S
C451   H492    1.114   .     S
C451   C452    1.520   .     S
C452   H495    1.109   .     S
C452   H496    1.110   .     S
C452   H494    1.110   .     S
C453   H498    1.111   .     S
C453   H499    1.119   .     S
C453   O546    1.418   .     S
C453   C455    1.519   .     S
C454   C471    1.421   .     A
C454   O542    1.377   .     S
C454   N540    1.380   .     A
C455   H501    1.110   .     S
C455   H500    1.110   .     S
C455   H502    1.108   .     S
C456   C457    1.520   .     S
C456   H503    1.115   .     S
C456   O547    1.416   .     S
C456   H504    1.114   .     S
C457   H505    1.110   .     S
C457   H506    1.110   .     S
C457   H507    1.110   .     S
C458   H509    1.111   .     S
C458   C459    1.519   .     S
C458   O548    1.418   .     S
C458   H510    1.119   .     S
C459   H513    1.108   .     S
C459   H511    1.110   .     S
C459   H512    1.110   .     S
C460   O549    1.404   .     S
C460   H515    1.111   .     S
C461   H518    1.110   .     S
C461   C180    1.527   1_565 S
C461   H1076   1.109   .     S
C461   H797    1.109   1_565 S
C462   O550    1.411   .     S
C462   C463    1.520   .     S
C462   H521    1.112   .     S
C462   H240    1.111   1_565 S
C463   H523    1.111   .     S
C463   H522    1.111   .     S
C463   H244    1.110   1_565 S
C464   O551    1.406   .     S
C464   H526    1.111   .     S
C465   O543    1.383   .     S
C465   N539    1.379   .     A
C465   C472    1.421   .     A
C466   H529    1.108   .     S
C466   C184    1.527   1_565 S
C466   H1647   1.109   1_554 S
C466   H1368   1.108   1_564 S
C467   H532    1.112   .     S
C467   O553    1.411   .     S
C467   C468    1.520   .     S
C467   H251    1.111   1_565 S
C468   H534    1.110   .     S
C468   H533    1.111   .     S
C468   H255    1.110   1_565 S
C469   N540    1.380   .     A
C469   O544    1.375   .     S
C470   O549    1.383   .     S
C471   O550    1.382   .     S
C472   O551    1.384   .     S
Cu473  N540    2.030   .     S
Cu473  O556    1.936   .     S
Cu473  O558    1.936   .     S
Cu473  Cu474   2.702   .     S
Cu473  O554    1.962   .     S
Cu473  O541    1.962   .     S
Cu474  O557    1.936   .     S
Cu474  O559    1.936   .     S
Cu474  N539    2.030   .     S
Cu474  O552    1.962   .     S
Cu474  O555    1.962   .     S
H514   C180    1.110   1_565 S
H516   C1581   1.109   1_554 S
H517   C1301   1.109   1_554 S
H525   C184    1.110   1_565 S
H527   C1026   1.109   .     S
H528   C746    1.108   .     S
C561   C578    1.475   .     S
C561   O681    1.306   .     A
C561   O695    1.302   .     A
C562   C609    1.416   .     A
C562   C566    1.408   .     A
C562   O693    1.381   .     S
C563   C567    1.412   .     S
C563   O696    1.296   .     A
C563   O699    1.296   .     A
C564   C568    1.412   .     S
C564   O697    1.296   .     A
C564   O698    1.296   .     A
C565   C612    1.415   .     A
C565   C610    1.415   .     A
C565   C846    1.524   1_545 S
C566   C611    1.409   .     A
C566   C845    1.524   .     S
C568   C1127   1.192   .     S
C569   H615    1.083   .     S
C569   C574    1.398   .     A
C569   C580    1.402   .     A
C570   C575    1.388   .     A
C570   H626    1.082   .     S
C570   C581    1.400   .     A
C571   H637    1.083   .     S
C571   C581    1.402   .     A
C571   C576    1.398   .     A
C572   C579    1.474   .     S
C572   O694    1.306   .     A
C572   O692    1.302   .     A
C573   C580    1.400   .     A
C573   C577    1.388   .     A
C573   H648    1.082   .     S
C574   C578    1.416   .     A
C574   O685    1.383   .     S
C575   C579    1.409   .     A
C575   O686    1.382   .     S
C576   C579    1.417   .     A
C576   O687    1.383   .     S
C577   C578    1.409   .     A
C577   O688    1.382   .     S
C580   C721    1.471   1_455 S
C581   C720    1.471   .     S
C582   O700    1.412   .     S
C582   H670    1.114   .     S
C582   H659    1.105   .     S
C582   C584    1.522   .     S
C583   N679    1.379   .     A
C583   O700    1.383   .     S
C583   C610    1.421   .     A
C584   H677    1.110   .     S
C584   H676    1.108   .     S
C584   H678    1.111   .     S
C585   H616    1.115   .     S
C585   H617    1.109   .     S
C585   C586    1.522   .     S
C585   O682    1.411   .     S
C586   H619    1.109   .     S
C586   H618    1.111   .     S
C586   H620    1.110   .     S
C587   H621    1.105   .     S
C587   O683    1.411   .     S
C587   H622    1.114   .     S
C587   C588    1.521   .     S
C588   H624    1.110   .     S
C588   H625    1.111   .     S
C588   H623    1.107   .     S
C589   O684    1.414   .     S
C589   H627    1.109   .     S
C589   C590    1.521   .     S
C589   H628    1.115   .     S
C590   H631    1.111   .     S
C590   H630    1.109   .     S
C590   H629    1.111   .     S
C591   H633    1.114   .     S
C591   O685    1.416   .     S
C591   H632    1.114   .     S
C591   C592    1.520   .     S
C592   H635    1.109   .     S
C592   H636    1.110   .     S
C592   H634    1.110   .     S
C593   H638    1.111   .     S
C593   H639    1.119   .     S
C593   O686    1.418   .     S
C593   C595    1.519   .     S
C594   C611    1.421   .     A
C594   O682    1.377   .     S
C594   N680    1.380   .     A
C595   H641    1.110   .     S
C595   H640    1.110   .     S
C595   H642    1.108   .     S
C596   C597    1.520   .     S
C596   H643    1.115   .     S
C596   O687    1.416   .     S
C596   H644    1.114   .     S
C597   H645    1.110   .     S
C597   H646    1.110   .     S
C597   H647    1.110   .     S
C598   H649    1.111   .     S
C598   C599    1.519   .     S
C598   O688    1.418   .     S
C598   H650    1.119   .     S
C599   H653    1.108   .     S
C599   H651    1.110   .     S
C599   H652    1.110   .     S
C600   O689    1.404   .     S
C600   H655    1.111   .     S
C600   C881    1.527   1_545 S
C600   H934    1.110   1_545 S
C601   H658    1.110   .     S
C601   C880    1.527   .     S
C601   H1216   1.109   .     S
C601   H1497   1.109   .     S
C602   O690    1.411   .     S
C602   C603    1.520   .     S
C602   H661    1.112   .     S
C602   H940    1.111   .     S
C603   H663    1.111   .     S
C603   H662    1.111   .     S
C603   H944    1.110   .     S
C604   O691    1.406   .     S
C604   H666    1.111   .     S
C604   C886    1.527   1_545 S
C604   H945    1.110   1_545 S
C605   O683    1.383   .     S
C605   N679    1.379   .     A
C605   C612    1.421   .     A
C606   H669    1.108   .     S
C606   C884    1.527   .     S
C607   H672    1.112   .     S
C607   O693    1.411   .     S
C607   C608    1.520   .     S
C607   H951    1.111   .     S
C608   H674    1.110   .     S
C608   H673    1.111   .     S
C608   H955    1.110   .     S
C609   N680    1.380   .     A
C609   O684    1.375   .     S
C610   O689    1.383   .     S
C611   O690    1.382   .     S
C612   O691    1.384   .     S
Cu613  N680    2.030   .     S
Cu613  O696    1.936   .     S
Cu613  O698    1.936   .     S
Cu613  Cu614   2.702   .     S
Cu613  O694    1.962   .     S
Cu613  O681    1.962   .     S
Cu614  O697    1.936   .     S
Cu614  O699    1.936   .     S
Cu614  N679    2.030   .     S
Cu614  O692    1.962   .     S
Cu614  O695    1.962   .     S
H654   C880    1.110   .     S
H657   C321    1.109   1_545 S
H660   C882    1.111   1_545 S
H664   C883    1.110   1_545 S
H665   C884    1.110   .     S
H667   C1166   1.109   .     S
H668   C1446   1.108   1_545 S
H671   C887    1.111   1_545 S
H675   C888    1.110   1_545 S
C701   C718    1.475   .     S
C701   O821    1.306   .     A
C701   O835    1.302   .     A
C702   C749    1.416   .     A
C702   C706    1.408   .     A
C702   O833    1.381   .     S
C703   C707    1.412   .     S
C703   O836    1.296   .     A
C703   O839    1.296   .     A
C704   C708    1.412   .     S
C704   O837    1.296   .     A
C704   O838    1.296   .     A
C705   C752    1.415   .     A
C705   C750    1.415   .     A
C705   C986    1.524   1_545 S
C706   C751    1.409   .     A
C706   C985    1.524   .     S
C708   C1267   1.192   .     S
C709   H755    1.083   .     S
C709   C714    1.398   .     A
C709   C720    1.402   .     A
C710   C715    1.388   .     A
C710   H766    1.082   .     S
C710   C721    1.400   .     A
C711   H777    1.083   .     S
C711   C721    1.402   .     A
C711   C716    1.398   .     A
C712   C719    1.474   .     S
C712   O834    1.306   .     A
C712   O832    1.302   .     A
C713   C720    1.400   .     A
C713   C717    1.388   .     A
C713   H788    1.082   .     S
C714   C718    1.416   .     A
C714   O825    1.383   .     S
C715   C719    1.409   .     A
C715   O826    1.382   .     S
C716   C719    1.417   .     A
C716   O827    1.383   .     S
C717   C718    1.409   .     A
C717   O828    1.382   .     S
C721   C580    1.471   1_655 S
C722   O840    1.412   .     S
C722   H810    1.114   .     S
C722   H799    1.105   .     S
C722   C724    1.522   .     S
C723   N819    1.379   .     A
C723   O840    1.383   .     S
C723   C750    1.421   .     A
C724   H817    1.110   .     S
C724   H816    1.108   .     S
C724   H818    1.111   .     S
C725   H756    1.115   .     S
C725   H757    1.109   .     S
C725   C726    1.522   .     S
C725   O822    1.411   .     S
C726   H759    1.109   .     S
C726   H758    1.111   .     S
C726   H760    1.110   .     S
C727   H761    1.105   .     S
C727   O823    1.411   .     S
C727   H762    1.114   .     S
C727   C728    1.521   .     S
C728   H764    1.110   .     S
C728   H765    1.111   .     S
C728   H763    1.107   .     S
C729   O824    1.414   .     S
C729   H767    1.109   .     S
C729   C730    1.521   .     S
C729   H768    1.115   .     S
C730   H771    1.111   .     S
C730   H770    1.109   .     S
C730   H769    1.111   .     S
C731   H773    1.114   .     S
C731   O825    1.416   .     S
C731   H772    1.114   .     S
C731   C732    1.520   .     S
C732   H775    1.109   .     S
C732   H776    1.110   .     S
C732   H774    1.110   .     S
C733   H778    1.111   .     S
C733   H779    1.119   .     S
C733   O826    1.418   .     S
C733   C735    1.519   .     S
C734   C751    1.421   .     A
C734   O822    1.377   .     S
C734   N820    1.380   .     A
C735   H781    1.110   .     S
C735   H780    1.110   .     S
C735   H782    1.108   .     S
C736   C737    1.520   .     S
C736   H783    1.115   .     S
C736   O827    1.416   .     S
C736   H784    1.114   .     S
C737   H785    1.110   .     S
C737   H786    1.110   .     S
C737   H787    1.110   .     S
C738   H789    1.111   .     S
C738   C739    1.519   .     S
C738   O828    1.418   .     S
C738   H790    1.119   .     S
C739   H793    1.108   .     S
C739   H791    1.110   .     S
C739   H792    1.110   .     S
C740   O829    1.404   .     S
C740   H795    1.111   .     S
C740   C1021   1.527   1_545 S
C740   H1074   1.110   1_545 S
C741   H798    1.110   .     S
C741   C1020   1.527   .     S
C741   H1356   1.109   .     S
C741   H1637   1.109   .     S
C742   O830    1.411   .     S
C742   C743    1.520   .     S
C742   H801    1.112   .     S
C742   H1080   1.111   .     S
C743   H803    1.111   .     S
C743   H802    1.111   .     S
C743   H1084   1.110   .     S
C744   O831    1.406   .     S
C744   H806    1.111   .     S
C744   C1026   1.527   1_545 S
C744   H1085   1.110   1_545 S
C745   O823    1.383   .     S
C745   N819    1.379   .     A
C745   C752    1.421   .     A
C746   H809    1.108   .     S
C746   C1024   1.527   .     S
C747   H812    1.112   .     S
C747   O833    1.411   .     S
C747   C748    1.520   .     S
C747   H1091   1.111   .     S
C748   H814    1.110   .     S
C748   H813    1.111   .     S
C748   H1095   1.110   .     S
C749   N820    1.380   .     A
C749   O824    1.375   .     S
C750   O829    1.383   .     S
C751   O830    1.382   .     S
C752   O831    1.384   .     S
Cu753  N820    2.030   .     S
Cu753  O836    1.936   .     S
Cu753  O838    1.936   .     S
Cu753  Cu754   2.702   .     S
Cu753  O834    1.962   .     S
Cu753  O821    1.962   .     S
Cu754  O837    1.936   .     S
Cu754  O839    1.936   .     S
Cu754  N819    2.030   .     S
Cu754  O832    1.962   .     S
Cu754  O835    1.962   .     S
H794   C1020   1.110   .     S
H797   C461    1.109   1_545 S
H800   C1022   1.111   1_545 S
H804   C1023   1.110   1_545 S
H805   C1024   1.110   .     S
H807   C1306   1.109   .     S
H808   C1586   1.108   1_545 S
H811   C1027   1.111   1_545 S
H815   C1028   1.110   1_545 S
C841   C858    1.475   .     S
C841   O961    1.306   .     A
C841   O975    1.302   .     A
C842   C889    1.416   .     A
C842   C846    1.408   .     A
C842   O973    1.381   .     S
C843   C847    1.412   .     S
C843   O976    1.296   .     A
C843   O979    1.296   .     A
C844   C848    1.412   .     S
C844   O977    1.296   .     A
C844   O978    1.296   .     A
C845   C892    1.415   .     A
C845   C890    1.415   .     A
C846   C891    1.409   .     A
C846   C565    1.524   1_565 S
C848   C1407   1.192   .     S
C849   H895    1.083   .     S
C849   C854    1.398   .     A
C849   C860    1.402   .     A
C850   C855    1.388   .     A
C850   H906    1.082   .     S
C850   C861    1.400   .     A
C851   H917    1.083   .     S
C851   C861    1.402   .     A
C851   C856    1.398   .     A
C852   C859    1.474   .     S
C852   O974    1.306   .     A
C852   O972    1.302   .     A
C853   C860    1.400   .     A
C853   C857    1.388   .     A
C853   H928    1.082   .     S
C854   C858    1.416   .     A
C854   O965    1.383   .     S
C855   C859    1.409   .     A
C855   O966    1.382   .     S
C856   C859    1.417   .     A
C856   O967    1.383   .     S
C857   C858    1.409   .     A
C857   O968    1.382   .     S
C860   C1001   1.471   1_455 S
C861   C1000   1.471   .     S
C862   O980    1.412   .     S
C862   H950    1.114   .     S
C862   H939    1.105   .     S
C862   C864    1.522   .     S
C863   N959    1.379   .     A
C863   O980    1.383   .     S
C863   C890    1.421   .     A
C864   H957    1.110   .     S
C864   H956    1.108   .     S
C864   H958    1.111   .     S
C865   H896    1.115   .     S
C865   H897    1.109   .     S
C865   C866    1.522   .     S
C865   O962    1.411   .     S
C866   H899    1.109   .     S
C866   H898    1.111   .     S
C866   H900    1.110   .     S
C867   H901    1.105   .     S
C867   O963    1.411   .     S
C867   H902    1.114   .     S
C867   C868    1.521   .     S
C868   H904    1.110   .     S
C868   H905    1.111   .     S
C868   H903    1.107   .     S
C869   O964    1.414   .     S
C869   H907    1.109   .     S
C869   C870    1.521   .     S
C869   H908    1.115   .     S
C870   H911    1.111   .     S
C870   H910    1.109   .     S
C870   H909    1.111   .     S
C871   H913    1.114   .     S
C871   O965    1.416   .     S
C871   H912    1.114   .     S
C871   C872    1.520   .     S
C872   H915    1.109   .     S
C872   H916    1.110   .     S
C872   H914    1.110   .     S
C873   H918    1.111   .     S
C873   H919    1.119   .     S
C873   O966    1.418   .     S
C873   C875    1.519   .     S
C874   C891    1.421   .     A
C874   O962    1.377   .     S
C874   N960    1.380   .     A
C875   H921    1.110   .     S
C875   H920    1.110   .     S
C875   H922    1.108   .     S
C876   C877    1.520   .     S
C876   H923    1.115   .     S
C876   O967    1.416   .     S
C876   H924    1.114   .     S
C877   H925    1.110   .     S
C877   H926    1.110   .     S
C877   H927    1.110   .     S
C878   H929    1.111   .     S
C878   C879    1.519   .     S
C878   O968    1.418   .     S
C878   H930    1.119   .     S
C879   H933    1.108   .     S
C879   H931    1.110   .     S
C879   H932    1.110   .     S
C880   O969    1.404   .     S
C880   H935    1.111   .     S
C881   H938    1.110   .     S
C881   C600    1.527   1_565 S
C881   H1496   1.109   .     S
C881   H1217   1.109   1_565 S
C882   O970    1.411   .     S
C882   C883    1.520   .     S
C882   H941    1.112   .     S
C882   H660    1.111   1_565 S
C883   H943    1.111   .     S
C883   H942    1.111   .     S
C883   H664    1.110   1_565 S
C884   O971    1.406   .     S
C884   H946    1.111   .     S
C885   O963    1.383   .     S
C885   N959    1.379   .     A
C885   C892    1.421   .     A
C886   H949    1.108   .     S
C886   C604    1.527   1_565 S
C886   H108    1.108   1_565 S
C887   H952    1.112   .     S
C887   O973    1.411   .     S
C887   C888    1.520   .     S
C887   H671    1.111   1_565 S
C888   H954    1.110   .     S
C888   H953    1.111   .     S
C888   H675    1.110   1_565 S
C889   N960    1.380   .     A
C889   O964    1.375   .     S
C890   O969    1.383   .     S
C891   O970    1.382   .     S
C892   O971    1.384   .     S
Cu893  N960    2.030   .     S
Cu893  O976    1.936   .     S
Cu893  O978    1.936   .     S
Cu893  Cu894   2.702   .     S
Cu893  O974    1.962   .     S
Cu893  O961    1.962   .     S
Cu894  O977    1.936   .     S
Cu894  O979    1.936   .     S
Cu894  N959    2.030   .     S
Cu894  O972    1.962   .     S
Cu894  O975    1.962   .     S
H934   C600    1.110   1_565 S
H945   C604    1.110   1_565 S
H947   C1446   1.109   .     S
H948   C1166   1.108   .     S
C981   C998    1.475   .     S
C981   O1101   1.306   .     A
C981   O1115   1.302   .     A
C982   C1029   1.416   .     A
C982   C986    1.408   .     A
C982   O1113   1.381   .     S
C983   C987    1.412   .     S
C983   O1116   1.296   .     A
C983   O1119   1.296   .     A
C984   C988    1.412   .     S
C984   O1117   1.296   .     A
C984   O1118   1.296   .     A
C985   C1032   1.415   .     A
C985   C1030   1.415   .     A
C986   C1031   1.409   .     A
C986   C705    1.524   1_565 S
C988   C1547   1.192   .     S
C989   H1035   1.083   .     S
C989   C994    1.398   .     A
C989   C1000   1.402   .     A
C990   C995    1.388   .     A
C990   H1046   1.082   .     S
C990   C1001   1.400   .     A
C991   H1057   1.083   .     S
C991   C1001   1.402   .     A
C991   C996    1.398   .     A
C992   C999    1.474   .     S
C992   O1114   1.306   .     A
C992   O1112   1.302   .     A
C993   C1000   1.400   .     A
C993   C997    1.388   .     A
C993   H1068   1.082   .     S
C994   C998    1.416   .     A
C994   O1105   1.383   .     S
C995   C999    1.409   .     A
C995   O1106   1.382   .     S
C996   C999    1.417   .     A
C996   O1107   1.383   .     S
C997   C998    1.409   .     A
C997   O1108   1.382   .     S
C1001  C860    1.471   1_655 S
C1002  O1120   1.412   .     S
C1002  H1090   1.114   .     S
C1002  H1079   1.105   .     S
C1002  C1004   1.522   .     S
C1003  N1099   1.379   .     A
C1003  O1120   1.383   .     S
C1003  C1030   1.421   .     A
C1004  H1097   1.110   .     S
C1004  H1096   1.108   .     S
C1004  H1098   1.111   .     S
C1005  H1036   1.115   .     S
C1005  H1037   1.109   .     S
C1005  C1006   1.522   .     S
C1005  O1102   1.411   .     S
C1006  H1039   1.109   .     S
C1006  H1038   1.111   .     S
C1006  H1040   1.110   .     S
C1007  H1041   1.105   .     S
C1007  O1103   1.411   .     S
C1007  H1042   1.114   .     S
C1007  C1008   1.521   .     S
C1008  H1044   1.110   .     S
C1008  H1045   1.111   .     S
C1008  H1043   1.107   .     S
C1009  O1104   1.414   .     S
C1009  H1047   1.109   .     S
C1009  C1010   1.521   .     S
C1009  H1048   1.115   .     S
C1010  H1051   1.111   .     S
C1010  H1050   1.109   .     S
C1010  H1049   1.111   .     S
C1011  H1053   1.114   .     S
C1011  O1105   1.416   .     S
C1011  H1052   1.114   .     S
C1011  C1012   1.520   .     S
C1012  H1055   1.109   .     S
C1012  H1056   1.110   .     S
C1012  H1054   1.110   .     S
C1013  H1058   1.111   .     S
C1013  H1059   1.119   .     S
C1013  O1106   1.418   .     S
C1013  C1015   1.519   .     S
C1014  C1031   1.421   .     A
C1014  O1102   1.377   .     S
C1014  N1100   1.380   .     A
C1015  H1061   1.110   .     S
C1015  H1060   1.110   .     S
C1015  H1062   1.108   .     S
C1016  C1017   1.520   .     S
C1016  H1063   1.115   .     S
C1016  O1107   1.416   .     S
C1016  H1064   1.114   .     S
C1017  H1065   1.110   .     S
C1017  H1066   1.110   .     S
C1017  H1067   1.110   .     S
C1018  H1069   1.111   .     S
C1018  C1019   1.519   .     S
C1018  O1108   1.418   .     S
C1018  H1070   1.119   .     S
C1019  H1073   1.108   .     S
C1019  H1071   1.110   .     S
C1019  H1072   1.110   .     S
C1020  O1109   1.404   .     S
C1020  H1075   1.111   .     S
C1021  H1078   1.110   .     S
C1021  C740    1.527   1_565 S
C1021  H1636   1.109   .     S
C1021  H1357   1.109   1_565 S
C1022  O1110   1.411   .     S
C1022  C1023   1.520   .     S
C1022  H1081   1.112   .     S
C1022  H800    1.111   1_565 S
C1023  H1083   1.111   .     S
C1023  H1082   1.111   .     S
C1023  H804    1.110   1_565 S
C1024  O1111   1.406   .     S
C1024  H1086   1.111   .     S
C1025  O1103   1.383   .     S
C1025  N1099   1.379   .     A
C1025  C1032   1.421   .     A
C1026  H1089   1.108   .     S
C1026  C744    1.527   1_565 S
C1026  H248    1.108   1_565 S
C1027  H1092   1.112   .     S
C1027  O1113   1.411   .     S
C1027  C1028   1.520   .     S
C1027  H811    1.111   1_565 S
C1028  H1094   1.110   .     S
C1028  H1093   1.111   .     S
C1028  H815    1.110   1_565 S
C1029  N1100   1.380   .     A
C1029  O1104   1.375   .     S
C1030  O1109   1.383   .     S
C1031  O1110   1.382   .     S
C1032  O1111   1.384   .     S
Cu1033 N1100   2.030   .     S
Cu1033 O1116   1.936   .     S
Cu1033 O1118   1.936   .     S
Cu1033 Cu1034  2.702   .     S
Cu1033 O1114   1.962   .     S
Cu1033 O1101   1.962   .     S
Cu1034 O1117   1.936   .     S
Cu1034 O1119   1.936   .     S
Cu1034 N1099   2.030   .     S
Cu1034 O1112   1.962   .     S
Cu1034 O1115   1.962   .     S
H1074  C740    1.110   1_565 S
H1085  C744    1.110   1_565 S
H1087  C1586   1.109   .     S
H1088  C1306   1.108   .     S
C1121  C1138   1.475   .     S
C1121  O1241   1.306   .     A
C1121  O1255   1.302   .     A
C1122  C1169   1.416   .     A
C1122  C1126   1.408   .     A
C1122  O1253   1.381   .     S
C1123  C1127   1.412   .     S
C1123  O1256   1.296   .     A
C1123  O1259   1.296   .     A
C1124  C1128   1.412   .     S
C1124  O1257   1.296   .     A
C1124  O1258   1.296   .     A
C1125  C1172   1.415   .     A
C1125  C1170   1.415   .     A
C1125  C1406   1.524   1_545 S
C1126  C1171   1.409   .     A
C1126  C1405   1.524   .     S
C1128  C7      1.192   1_556 S
C1129  H1175   1.083   .     S
C1129  C1134   1.398   .     A
C1129  C1140   1.402   .     A
C1130  C1135   1.388   .     A
C1130  H1186   1.082   .     S
C1130  C1141   1.400   .     A
C1131  H1197   1.083   .     S
C1131  C1141   1.402   .     A
C1131  C1136   1.398   .     A
C1132  C1139   1.474   .     S
C1132  O1254   1.306   .     A
C1132  O1252   1.302   .     A
C1133  C1140   1.400   .     A
C1133  C1137   1.388   .     A
C1133  H1208   1.082   .     S
C1134  C1138   1.416   .     A
C1134  O1245   1.383   .     S
C1135  C1139   1.409   .     A
C1135  O1246   1.382   .     S
C1136  C1139   1.417   .     A
C1136  O1247   1.383   .     S
C1137  C1138   1.409   .     A
C1137  O1248   1.382   .     S
C1140  C1281   1.471   1_455 S
C1141  C1280   1.471   .     S
C1142  O1260   1.412   .     S
C1142  H1230   1.114   .     S
C1142  H1219   1.105   .     S
C1142  C1144   1.522   .     S
C1143  N1239   1.379   .     A
C1143  O1260   1.383   .     S
C1143  C1170   1.421   .     A
C1144  H1237   1.110   .     S
C1144  H1236   1.108   .     S
C1144  H1238   1.111   .     S
C1145  H1176   1.115   .     S
C1145  H1177   1.109   .     S
C1145  C1146   1.522   .     S
C1145  O1242   1.411   .     S
C1146  H1179   1.109   .     S
C1146  H1178   1.111   .     S
C1146  H1180   1.110   .     S
C1147  H1181   1.105   .     S
C1147  O1243   1.411   .     S
C1147  H1182   1.114   .     S
C1147  C1148   1.521   .     S
C1148  H1184   1.110   .     S
C1148  H1185   1.111   .     S
C1148  H1183   1.107   .     S
C1149  O1244   1.414   .     S
C1149  H1187   1.109   .     S
C1149  C1150   1.521   .     S
C1149  H1188   1.115   .     S
C1150  H1191   1.111   .     S
C1150  H1190   1.109   .     S
C1150  H1189   1.111   .     S
C1151  H1193   1.114   .     S
C1151  O1245   1.416   .     S
C1151  H1192   1.114   .     S
C1151  C1152   1.520   .     S
C1152  H1195   1.109   .     S
C1152  H1196   1.110   .     S
C1152  H1194   1.110   .     S
C1153  H1198   1.111   .     S
C1153  H1199   1.119   .     S
C1153  O1246   1.418   .     S
C1153  C1155   1.519   .     S
C1154  C1171   1.421   .     A
C1154  O1242   1.377   .     S
C1154  N1240   1.380   .     A
C1155  H1201   1.110   .     S
C1155  H1200   1.110   .     S
C1155  H1202   1.108   .     S
C1156  C1157   1.520   .     S
C1156  H1203   1.115   .     S
C1156  O1247   1.416   .     S
C1156  H1204   1.114   .     S
C1157  H1205   1.110   .     S
C1157  H1206   1.110   .     S
C1157  H1207   1.110   .     S
C1158  H1209   1.111   .     S
C1158  C1159   1.519   .     S
C1158  O1248   1.418   .     S
C1158  H1210   1.119   .     S
C1159  H1213   1.108   .     S
C1159  H1211   1.110   .     S
C1159  H1212   1.110   .     S
C1160  O1249   1.404   .     S
C1160  H1215   1.111   .     S
C1160  C1441   1.527   1_545 S
C1160  H1494   1.110   1_545 S
C1161  H1218   1.110   .     S
C1161  C1440   1.527   .     S
C1161  H96     1.109   1_556 S
C1161  H377    1.109   1_556 S
C1162  O1250   1.411   .     S
C1162  C1163   1.520   .     S
C1162  H1221   1.112   .     S
C1162  H1500   1.111   .     S
C1163  H1223   1.111   .     S
C1163  H1222   1.111   .     S
C1163  H1504   1.110   .     S
C1164  O1251   1.406   .     S
C1164  H1226   1.111   .     S
C1164  C1446   1.527   1_545 S
C1164  H1505   1.110   1_545 S
C1165  O1243   1.383   .     S
C1165  N1239   1.379   .     A
C1165  C1172   1.421   .     A
C1166  H1229   1.108   .     S
C1166  C1444   1.527   .     S
C1167  H1232   1.112   .     S
C1167  O1253   1.411   .     S
C1167  C1168   1.520   .     S
C1167  H1511   1.111   .     S
C1168  H1234   1.110   .     S
C1168  H1233   1.111   .     S
C1168  H1515   1.110   .     S
C1169  N1240   1.380   .     A
C1169  O1244   1.375   .     S
C1170  O1249   1.383   .     S
C1171  O1250   1.382   .     S
C1172  O1251   1.384   .     S
Cu1173 N1240   2.030   .     S
Cu1173 O1256   1.936   .     S
Cu1173 O1258   1.936   .     S
Cu1173 Cu1174  2.702   .     S
Cu1173 O1254   1.962   .     S
Cu1173 O1241   1.962   .     S
Cu1174 O1257   1.936   .     S
Cu1174 O1259   1.936   .     S
Cu1174 N1239   2.030   .     S
Cu1174 O1252   1.962   .     S
Cu1174 O1255   1.962   .     S
H1214  C1440   1.110   .     S
H1217  C881    1.109   1_545 S
H1220  C1442   1.111   1_545 S
H1224  C1443   1.110   1_545 S
H1225  C1444   1.110   .     S
H1227  C46     1.109   1_556 S
H1228  C326    1.108   1_546 S
H1231  C1447   1.111   1_545 S
H1235  C1448   1.110   1_545 S
C1261  C1278   1.475   .     S
C1261  O1381   1.306   .     A
C1261  O1395   1.302   .     A
C1262  C1309   1.416   .     A
C1262  C1266   1.408   .     A
C1262  O1393   1.381   .     S
C1263  C1267   1.412   .     S
C1263  O1396   1.296   .     A
C1263  O1399   1.296   .     A
C1264  C1268   1.412   .     S
C1264  O1397   1.296   .     A
C1264  O1398   1.296   .     A
C1265  C1312   1.415   .     A
C1265  C1310   1.415   .     A
C1265  C1546   1.524   1_545 S
C1266  C1311   1.409   .     A
C1266  C1545   1.524   .     S
C1268  C147    1.192   1_556 S
C1269  H1315   1.083   .     S
C1269  C1274   1.398   .     A
C1269  C1280   1.402   .     A
C1270  C1275   1.388   .     A
C1270  H1326   1.082   .     S
C1270  C1281   1.400   .     A
C1271  H1337   1.083   .     S
C1271  C1281   1.402   .     A
C1271  C1276   1.398   .     A
C1272  C1279   1.474   .     S
C1272  O1394   1.306   .     A
C1272  O1392   1.302   .     A
C1273  C1280   1.400   .     A
C1273  C1277   1.388   .     A
C1273  H1348   1.082   .     S
C1274  C1278   1.416   .     A
C1274  O1385   1.383   .     S
C1275  C1279   1.409   .     A
C1275  O1386   1.382   .     S
C1276  C1279   1.417   .     A
C1276  O1387   1.383   .     S
C1277  C1278   1.409   .     A
C1277  O1388   1.382   .     S
C1281  C1140   1.471   1_655 S
C1282  O1400   1.412   .     S
C1282  H1370   1.114   .     S
C1282  H1359   1.105   .     S
C1282  C1284   1.522   .     S
C1283  N1379   1.379   .     A
C1283  O1400   1.383   .     S
C1283  C1310   1.421   .     A
C1284  H1377   1.110   .     S
C1284  H1376   1.108   .     S
C1284  H1378   1.111   .     S
C1285  H1316   1.115   .     S
C1285  H1317   1.109   .     S
C1285  C1286   1.522   .     S
C1285  O1382   1.411   .     S
C1286  H1319   1.109   .     S
C1286  H1318   1.111   .     S
C1286  H1320   1.110   .     S
C1287  H1321   1.105   .     S
C1287  O1383   1.411   .     S
C1287  H1322   1.114   .     S
C1287  C1288   1.521   .     S
C1288  H1324   1.110   .     S
C1288  H1325   1.111   .     S
C1288  H1323   1.107   .     S
C1289  O1384   1.414   .     S
C1289  H1327   1.109   .     S
C1289  C1290   1.521   .     S
C1289  H1328   1.115   .     S
C1290  H1331   1.111   .     S
C1290  H1330   1.109   .     S
C1290  H1329   1.111   .     S
C1291  H1333   1.114   .     S
C1291  O1385   1.416   .     S
C1291  H1332   1.114   .     S
C1291  C1292   1.520   .     S
C1292  H1335   1.109   .     S
C1292  H1336   1.110   .     S
C1292  H1334   1.110   .     S
C1293  H1338   1.111   .     S
C1293  H1339   1.119   .     S
C1293  O1386   1.418   .     S
C1293  C1295   1.519   .     S
C1294  C1311   1.421   .     A
C1294  O1382   1.377   .     S
C1294  N1380   1.380   .     A
C1295  H1341   1.110   .     S
C1295  H1340   1.110   .     S
C1295  H1342   1.108   .     S
C1296  C1297   1.520   .     S
C1296  H1343   1.115   .     S
C1296  O1387   1.416   .     S
C1296  H1344   1.114   .     S
C1297  H1345   1.110   .     S
C1297  H1346   1.110   .     S
C1297  H1347   1.110   .     S
C1298  H1349   1.111   .     S
C1298  C1299   1.519   .     S
C1298  O1388   1.418   .     S
C1298  H1350   1.119   .     S
C1299  H1353   1.108   .     S
C1299  H1351   1.110   .     S
C1299  H1352   1.110   .     S
C1300  O1389   1.404   .     S
C1300  H1355   1.111   .     S
C1300  C1581   1.527   1_545 S
C1300  H1634   1.110   1_545 S
C1301  H1358   1.110   .     S
C1301  C1580   1.527   .     S
C1301  H236    1.109   1_556 S
C1301  H517    1.109   1_556 S
C1302  O1390   1.411   .     S
C1302  C1303   1.520   .     S
C1302  H1361   1.112   .     S
C1302  H1640   1.111   .     S
C1303  H1363   1.111   .     S
C1303  H1362   1.111   .     S
C1303  H1644   1.110   .     S
C1304  O1391   1.406   .     S
C1304  H1366   1.111   .     S
C1304  C1586   1.527   1_545 S
C1304  H1645   1.110   1_545 S
C1305  O1383   1.383   .     S
C1305  N1379   1.379   .     A
C1305  C1312   1.421   .     A
C1306  H1369   1.108   .     S
C1306  C1584   1.527   .     S
C1307  H1372   1.112   .     S
C1307  O1393   1.411   .     S
C1307  C1308   1.520   .     S
C1307  H1651   1.111   .     S
C1308  H1374   1.110   .     S
C1308  H1373   1.111   .     S
C1308  H1655   1.110   .     S
C1309  N1380   1.380   .     A
C1309  O1384   1.375   .     S
C1310  O1389   1.383   .     S
C1311  O1390   1.382   .     S
C1312  O1391   1.384   .     S
Cu1313 N1380   2.030   .     S
Cu1313 O1396   1.936   .     S
Cu1313 O1398   1.936   .     S
Cu1313 Cu1314  2.702   .     S
Cu1313 O1394   1.962   .     S
Cu1313 O1381   1.962   .     S
Cu1314 O1397   1.936   .     S
Cu1314 O1399   1.936   .     S
Cu1314 N1379   2.030   .     S
Cu1314 O1392   1.962   .     S
Cu1314 O1395   1.962   .     S
H1354  C1580   1.110   .     S
H1357  C1021   1.109   1_545 S
H1360  C1582   1.111   1_545 S
H1364  C1583   1.110   1_545 S
H1365  C1584   1.110   .     S
H1367  C186    1.109   1_556 S
H1368  C466    1.108   1_546 S
H1371  C1587   1.111   1_545 S
H1375  C1588   1.110   1_545 S
C1401  C1418   1.475   .     S
C1401  O1521   1.306   .     A
C1401  O1535   1.302   .     A
C1402  C1449   1.416   .     A
C1402  C1406   1.408   .     A
C1402  O1533   1.381   .     S
C1403  C1407   1.412   .     S
C1403  O1536   1.296   .     A
C1403  O1539   1.296   .     A
C1404  C1408   1.412   .     S
C1404  O1537   1.296   .     A
C1404  O1538   1.296   .     A
C1405  C1452   1.415   .     A
C1405  C1450   1.415   .     A
C1406  C1451   1.409   .     A
C1406  C1125   1.524   1_565 S
C1408  C287    1.192   1_556 S
C1409  H1455   1.083   .     S
C1409  C1414   1.398   .     A
C1409  C1420   1.402   .     A
C1410  C1415   1.388   .     A
C1410  H1466   1.082   .     S
C1410  C1421   1.400   .     A
C1411  H1477   1.083   .     S
C1411  C1421   1.402   .     A
C1411  C1416   1.398   .     A
C1412  C1419   1.474   .     S
C1412  O1534   1.306   .     A
C1412  O1532   1.302   .     A
C1413  C1420   1.400   .     A
C1413  C1417   1.388   .     A
C1413  H1488   1.082   .     S
C1414  C1418   1.416   .     A
C1414  O1525   1.383   .     S
C1415  C1419   1.409   .     A
C1415  O1526   1.382   .     S
C1416  C1419   1.417   .     A
C1416  O1527   1.383   .     S
C1417  C1418   1.409   .     A
C1417  O1528   1.382   .     S
C1420  C1561   1.471   1_455 S
C1421  C1560   1.471   .     S
C1422  O1540   1.412   .     S
C1422  H1510   1.114   .     S
C1422  H1499   1.105   .     S
C1422  C1424   1.522   .     S
C1423  N1519   1.379   .     A
C1423  O1540   1.383   .     S
C1423  C1450   1.421   .     A
C1424  H1517   1.110   .     S
C1424  H1516   1.108   .     S
C1424  H1518   1.111   .     S
C1425  H1456   1.115   .     S
C1425  H1457   1.109   .     S
C1425  C1426   1.522   .     S
C1425  O1522   1.411   .     S
C1426  H1459   1.109   .     S
C1426  H1458   1.111   .     S
C1426  H1460   1.110   .     S
C1427  H1461   1.105   .     S
C1427  O1523   1.411   .     S
C1427  H1462   1.114   .     S
C1427  C1428   1.521   .     S
C1428  H1464   1.110   .     S
C1428  H1465   1.111   .     S
C1428  H1463   1.107   .     S
C1429  O1524   1.414   .     S
C1429  H1467   1.109   .     S
C1429  C1430   1.521   .     S
C1429  H1468   1.115   .     S
C1430  H1471   1.111   .     S
C1430  H1470   1.109   .     S
C1430  H1469   1.111   .     S
C1431  H1473   1.114   .     S
C1431  O1525   1.416   .     S
C1431  H1472   1.114   .     S
C1431  C1432   1.520   .     S
C1432  H1475   1.109   .     S
C1432  H1476   1.110   .     S
C1432  H1474   1.110   .     S
C1433  H1478   1.111   .     S
C1433  H1479   1.119   .     S
C1433  O1526   1.418   .     S
C1433  C1435   1.519   .     S
C1434  C1451   1.421   .     A
C1434  O1522   1.377   .     S
C1434  N1520   1.380   .     A
C1435  H1481   1.110   .     S
C1435  H1480   1.110   .     S
C1435  H1482   1.108   .     S
C1436  C1437   1.520   .     S
C1436  H1483   1.115   .     S
C1436  O1527   1.416   .     S
C1436  H1484   1.114   .     S
C1437  H1485   1.110   .     S
C1437  H1486   1.110   .     S
C1437  H1487   1.110   .     S
C1438  H1489   1.111   .     S
C1438  C1439   1.519   .     S
C1438  O1528   1.418   .     S
C1438  H1490   1.119   .     S
C1439  H1493   1.108   .     S
C1439  H1491   1.110   .     S
C1439  H1492   1.110   .     S
C1440  O1529   1.404   .     S
C1440  H1495   1.111   .     S
C1441  H1498   1.110   .     S
C1441  C1160   1.527   1_565 S
C1441  H376    1.109   1_556 S
C1441  H97     1.109   1_566 S
C1442  O1530   1.411   .     S
C1442  C1443   1.520   .     S
C1442  H1501   1.112   .     S
C1442  H1220   1.111   1_565 S
C1443  H1503   1.111   .     S
C1443  H1502   1.111   .     S
C1443  H1224   1.110   1_565 S
C1444  O1531   1.406   .     S
C1444  H1506   1.111   .     S
C1445  O1523   1.383   .     S
C1445  N1519   1.379   .     A
C1445  C1452   1.421   .     A
C1446  H1509   1.108   .     S
C1446  C1164   1.527   1_565 S
C1446  H668    1.108   1_565 S
C1447  H1512   1.112   .     S
C1447  O1533   1.411   .     S
C1447  C1448   1.520   .     S
C1447  H1231   1.111   1_565 S
C1448  H1514   1.110   .     S
C1448  H1513   1.111   .     S
C1448  H1235   1.110   1_565 S
C1449  N1520   1.380   .     A
C1449  O1524   1.375   .     S
C1450  O1529   1.383   .     S
C1451  O1530   1.382   .     S
C1452  O1531   1.384   .     S
Cu1453 N1520   2.030   .     S
Cu1453 O1536   1.936   .     S
Cu1453 O1538   1.936   .     S
Cu1453 Cu1454  2.702   .     S
Cu1453 O1534   1.962   .     S
Cu1453 O1521   1.962   .     S
Cu1454 O1537   1.936   .     S
Cu1454 O1539   1.936   .     S
Cu1454 N1519   2.030   .     S
Cu1454 O1532   1.962   .     S
Cu1454 O1535   1.962   .     S
H1494  C1160   1.110   1_565 S
H1505  C1164   1.110   1_565 S
H1507  C326    1.109   1_556 S
H1508  C46     1.108   1_556 S
C1541  C1558   1.475   .     S
C1541  O1661   1.306   .     A
C1541  O1675   1.302   .     A
C1542  C1589   1.416   .     A
C1542  C1546   1.408   .     A
C1542  O1673   1.381   .     S
C1543  C1547   1.412   .     S
C1543  O1676   1.296   .     A
C1543  O1679   1.296   .     A
C1544  C1548   1.412   .     S
C1544  O1677   1.296   .     A
C1544  O1678   1.296   .     A
C1545  C1592   1.415   .     A
C1545  C1590   1.415   .     A
C1546  C1591   1.409   .     A
C1546  C1265   1.524   1_565 S
C1548  C427    1.192   1_556 S
C1549  H1595   1.083   .     S
C1549  C1554   1.398   .     A
C1549  C1560   1.402   .     A
C1550  C1555   1.388   .     A
C1550  H1606   1.082   .     S
C1550  C1561   1.400   .     A
C1551  H1617   1.083   .     S
C1551  C1561   1.402   .     A
C1551  C1556   1.398   .     A
C1552  C1559   1.474   .     S
C1552  O1674   1.306   .     A
C1552  O1672   1.302   .     A
C1553  C1560   1.400   .     A
C1553  C1557   1.388   .     A
C1553  H1628   1.082   .     S
C1554  C1558   1.416   .     A
C1554  O1665   1.383   .     S
C1555  C1559   1.409   .     A
C1555  O1666   1.382   .     S
C1556  C1559   1.417   .     A
C1556  O1667   1.383   .     S
C1557  C1558   1.409   .     A
C1557  O1668   1.382   .     S
C1561  C1420   1.471   1_655 S
C1562  O1680   1.412   .     S
C1562  H1650   1.114   .     S
C1562  H1639   1.105   .     S
C1562  C1564   1.522   .     S
C1563  N1659   1.379   .     A
C1563  O1680   1.383   .     S
C1563  C1590   1.421   .     A
C1564  H1657   1.110   .     S
C1564  H1656   1.108   .     S
C1564  H1658   1.111   .     S
C1565  H1596   1.115   .     S
C1565  H1597   1.109   .     S
C1565  C1566   1.522   .     S
C1565  O1662   1.411   .     S
C1566  H1599   1.109   .     S
C1566  H1598   1.111   .     S
C1566  H1600   1.110   .     S
C1567  H1601   1.105   .     S
C1567  O1663   1.411   .     S
C1567  H1602   1.114   .     S
C1567  C1568   1.521   .     S
C1568  H1604   1.110   .     S
C1568  H1605   1.111   .     S
C1568  H1603   1.107   .     S
C1569  O1664   1.414   .     S
C1569  H1607   1.109   .     S
C1569  C1570   1.521   .     S
C1569  H1608   1.115   .     S
C1570  H1611   1.111   .     S
C1570  H1610   1.109   .     S
C1570  H1609   1.111   .     S
C1571  H1613   1.114   .     S
C1571  O1665   1.416   .     S
C1571  H1612   1.114   .     S
C1571  C1572   1.520   .     S
C1572  H1615   1.109   .     S
C1572  H1616   1.110   .     S
C1572  H1614   1.110   .     S
C1573  H1618   1.111   .     S
C1573  H1619   1.119   .     S
C1573  O1666   1.418   .     S
C1573  C1575   1.519   .     S
C1574  C1591   1.421   .     A
C1574  O1662   1.377   .     S
C1574  N1660   1.380   .     A
C1575  H1621   1.110   .     S
C1575  H1620   1.110   .     S
C1575  H1622   1.108   .     S
C1576  C1577   1.520   .     S
C1576  H1623   1.115   .     S
C1576  O1667   1.416   .     S
C1576  H1624   1.114   .     S
C1577  H1625   1.110   .     S
C1577  H1626   1.110   .     S
C1577  H1627   1.110   .     S
C1578  H1629   1.111   .     S
C1578  C1579   1.519   .     S
C1578  O1668   1.418   .     S
C1578  H1630   1.119   .     S
C1579  H1633   1.108   .     S
C1579  H1631   1.110   .     S
C1579  H1632   1.110   .     S
C1580  O1669   1.404   .     S
C1580  H1635   1.111   .     S
C1581  H1638   1.110   .     S
C1581  C1300   1.527   1_565 S
C1581  H516    1.109   1_556 S
C1581  H237    1.109   1_566 S
C1582  O1670   1.411   .     S
C1582  C1583   1.520   .     S
C1582  H1641   1.112   .     S
C1582  H1360   1.111   1_565 S
C1583  H1643   1.111   .     S
C1583  H1642   1.111   .     S
C1583  H1364   1.110   1_565 S
C1584  O1671   1.406   .     S
C1584  H1646   1.111   .     S
C1585  O1663   1.383   .     S
C1585  N1659   1.379   .     A
C1585  C1592   1.421   .     A
C1586  H1649   1.108   .     S
C1586  C1304   1.527   1_565 S
C1586  H808    1.108   1_565 S
C1587  H1652   1.112   .     S
C1587  O1673   1.411   .     S
C1587  C1588   1.520   .     S
C1587  H1371   1.111   1_565 S
C1588  H1654   1.110   .     S
C1588  H1653   1.111   .     S
C1588  H1375   1.110   1_565 S
C1589  N1660   1.380   .     A
C1589  O1664   1.375   .     S
C1590  O1669   1.383   .     S
C1591  O1670   1.382   .     S
C1592  O1671   1.384   .     S
Cu1593 N1660   2.030   .     S
Cu1593 O1676   1.936   .     S
Cu1593 O1678   1.936   .     S
Cu1593 Cu1594  2.702   .     S
Cu1593 O1674   1.962   .     S
Cu1593 O1661   1.962   .     S
Cu1594 O1677   1.936   .     S
Cu1594 O1679   1.936   .     S
Cu1594 N1659   2.030   .     S
Cu1594 O1672   1.962   .     S
Cu1594 O1675   1.962   .     S
H1634  C1300   1.110   1_565 S
H1645  C1304   1.110   1_565 S
H1647  C466    1.109   1_556 S
H1648  C186    1.108   1_556 S
