data_str_m2_o1_o1_pcu_sym.58
_audit_creation_date              2020-01-03
_audit_creation_method            'Materials Studio'
_symmetry_space_group_name_H-M    'P1'
_symmetry_Int_Tables_number       1
_symmetry_cell_setting            triclinic
loop_
_symmetry_equiv_pos_as_xyz
  x,y,z
_cell_length_a                    30.7178
_cell_length_b                    30.5997
_cell_length_c                    28.5443
_cell_angle_alpha                 89.6436
_cell_angle_beta                  89.9008
_cell_angle_gamma                 90.4804
loop_
_atom_site_label
_atom_site_type_symbol
_atom_site_fract_x
_atom_site_fract_y
_atom_site_fract_z
_atom_site_U_iso_or_equiv
_atom_site_adp_type
_atom_site_occupancy
C1     C     0.05943   0.19051   0.16671   0.00000  Uiso   1.00
C2     C     0.00482   0.28812   0.30827   0.00000  Uiso   1.00
C3     C     0.00477   0.28812   0.02455   0.00000  Uiso   1.00
C4     C     0.49478   0.21196   0.30882   0.00000  Uiso   1.00
C5     C     0.24518   0.46188   0.02506   0.00000  Uiso   1.00
C6     C     0.25496   0.03809   0.30826   0.00000  Uiso   1.00
C7     C     0.25523   0.03804   0.02452   0.00000  Uiso   1.00
C8     C     0.24523   0.46188   0.30878   0.00000  Uiso   1.00
C9     C     0.41479   0.11692   0.18935   0.00000  Uiso   1.00
C10    C     0.08453   0.38302   0.18813   0.00000  Uiso   1.00
C11    C     0.13320   0.33469   0.14508   0.00000  Uiso   1.00
C12    C     0.44056   0.30944   0.16661   0.00000  Uiso   1.00
C13    C     0.36751   0.16534   0.14413   0.00000  Uiso   1.00
C14    C     0.09854   0.13009   0.20665   0.00000  Uiso   1.00
C15    C     0.41326   0.38145   0.14014   0.00000  Uiso   1.00
C16    C     0.36881   0.33638   0.19305   0.00000  Uiso   1.00
C17    C     0.11954   0.15175   0.12668   0.00000  Uiso   1.00
C18    C     0.16547   0.36698   0.14521   0.00000  Uiso   1.00
C19    C     0.33522   0.13308   0.14398   0.00000  Uiso   1.00
C20    C     0.38249   0.08466   0.18920   0.00000  Uiso   1.00
C21    C     0.11680   0.41531   0.18825   0.00000  Uiso   1.00
C22    C     0.33674   0.36855   0.19319   0.00000  Uiso   1.00
C23    C     0.44070   0.19049   0.16677   0.00000  Uiso   1.00
C24    C     0.15146   0.11990   0.12668   0.00000  Uiso   1.00
C25    C     0.13046   0.09825   0.20665   0.00000  Uiso   1.00
C26    C     0.38119   0.41362   0.14029   0.00000  Uiso   1.00
C27    C     0.09285   0.34287   0.16645   0.00000  Uiso   1.00
C28    C     0.40715   0.15713   0.16689   0.00000  Uiso   1.00
C29    C     0.40705   0.34287   0.16653   0.00000  Uiso   1.00
C30    C     0.09290   0.15707   0.16671   0.00000  Uiso   1.00
C31    C     0.34285   0.09287   0.16644   0.00000  Uiso   1.00
C32    C     0.15715   0.40714   0.16689   0.00000  Uiso   1.00
C33    C     0.15710   0.09292   0.16662   0.00000  Uiso   1.00
C34    C     0.05947   0.30933   0.16657   0.00000  Uiso   1.00
C35    C     0.34295   0.40713   0.16680   0.00000  Uiso   1.00
C36    C     0.30944   0.44056   0.16672   0.00000  Uiso   1.00
C37    C     0.19057   0.05949   0.16662   0.00000  Uiso   1.00
C38    C     0.19052   0.44067   0.16677   0.00000  Uiso   1.00
C39    C     0.30930   0.05951   0.16657   0.00000  Uiso   1.00
C40    C     0.49504   0.21191   0.02508   0.00000  Uiso   1.00
Cl41   Cl    0.46550   0.10593   0.21583   0.00000  Uiso   1.00
Cl42   Cl    0.28451   0.14407   0.11751   0.00000  Uiso   1.00
Cl43   Cl    0.39250   0.03338   0.21604   0.00000  Uiso   1.00
Cl44   Cl    0.10570   0.46669   0.21326   0.00000  Uiso   1.00
Cl45   Cl    0.28790   0.35929   0.22494   0.00000  Uiso   1.00
Cl46   Cl    0.18456   0.11617   0.07571   0.00000  Uiso   1.00
Cl47   Cl    0.13486   0.06494   0.25783   0.00000  Uiso   1.00
Cl48   Cl    0.39015   0.46294   0.10878   0.00000  Uiso   1.00
Cl49   Cl    0.03313   0.39363   0.21369   0.00000  Uiso   1.00
Cl50   Cl    0.14430   0.28331   0.12007   0.00000  Uiso   1.00
Cl51   Cl    0.35750   0.21662   0.11728   0.00000  Uiso   1.00
Cl52   Cl    0.06544   0.13383   0.25762   0.00000  Uiso   1.00
Cl53   Cl    0.46210   0.39071   0.10839   0.00000  Uiso   1.00
Cl54   Cl    0.35986   0.28707   0.22456   0.00000  Uiso   1.00
Cl55   Cl    0.11514   0.18506   0.07550   0.00000  Uiso   1.00
Cl56   Cl    0.21687   0.35637   0.11965   0.00000  Uiso   1.00
Cu57   Cu    0.00000   0.25000   0.21355   0.00000  Uiso   1.00
Cu58   Cu    0.00000   0.25000   0.11978   0.00000  Uiso   1.00
Cu59   Cu    0.25000  -0.00000   0.21355   0.00000  Uiso   1.00
Cu60   Cu    0.25000  -0.00000   0.11978   0.00000  Uiso   1.00
H61    H     0.49118   0.18137   0.04396   0.00000  Uiso   1.00
H62    H     0.00858   0.31867   0.28939   0.00000  Uiso   1.00
H63    H     0.00854   0.31866   0.04303   0.00000  Uiso   1.00
H64    H     0.49024   0.18153   0.29039   0.00000  Uiso   1.00
H65    H     0.24142   0.43133   0.04394   0.00000  Uiso   1.00
H66    H     0.25883   0.06863   0.28937   0.00000  Uiso   1.00
H67    H     0.25977   0.06847   0.04294   0.00000  Uiso   1.00
H68    H     0.24146   0.43134   0.29030   0.00000  Uiso   1.00
N69    N     0.00000   0.25000   0.28402   0.00000  Uiso   1.00
N70    N     0.00000   0.25000   0.04931   0.00000  Uiso   1.00
N71    N     0.25000  -0.00000   0.28402   0.00000  Uiso   1.00
N72    N     0.25000  -0.00000   0.04931   0.00000  Uiso   1.00
O73    O     0.04509   0.20491   0.20625   0.00000  Uiso   1.00
O74    O     0.20492   0.04509   0.12709   0.00000  Uiso   1.00
O75    O     0.20492   0.04509   0.20625   0.00000  Uiso   1.00
O76    O     0.29509   0.45491   0.12709   0.00000  Uiso   1.00
O77    O     0.20492   0.45491   0.12709   0.00000  Uiso   1.00
O78    O     0.29509   0.04509   0.20625   0.00000  Uiso   1.00
O79    O     0.29509   0.04509   0.12709   0.00000  Uiso   1.00
O80    O     0.20492   0.45491   0.20625   0.00000  Uiso   1.00
O81    O     0.45492   0.29509   0.12709   0.00000  Uiso   1.00
O82    O     0.45492   0.29509   0.20625   0.00000  Uiso   1.00
O83    O     0.04509   0.20491   0.12709   0.00000  Uiso   1.00
O84    O     0.45492   0.20491   0.12709   0.00000  Uiso   1.00
O85    O     0.04509   0.29509   0.20625   0.00000  Uiso   1.00
O86    O     0.04509   0.29509   0.12709   0.00000  Uiso   1.00
O87    O     0.45492   0.20491   0.20625   0.00000  Uiso   1.00
O88    O     0.29509   0.45491   0.20625   0.00000  Uiso   1.00
C89    C     0.55943   0.19051   0.16671   0.00000  Uiso   1.00
C90    C     0.50482   0.28812   0.30827   0.00000  Uiso   1.00
C91    C     0.50477   0.28812   0.02455   0.00000  Uiso   1.00
C92    C     0.99478   0.21196   0.30882   0.00000  Uiso   1.00
C93    C     0.74518   0.46188   0.02506   0.00000  Uiso   1.00
C94    C     0.75496   0.03809   0.30826   0.00000  Uiso   1.00
C95    C     0.75523   0.03804   0.02452   0.00000  Uiso   1.00
C96    C     0.74523   0.46188   0.30878   0.00000  Uiso   1.00
C97    C     0.91479   0.11692   0.18935   0.00000  Uiso   1.00
C98    C     0.58453   0.38302   0.18813   0.00000  Uiso   1.00
C99    C     0.63320   0.33469   0.14508   0.00000  Uiso   1.00
C100   C     0.94056   0.30944   0.16661   0.00000  Uiso   1.00
C101   C     0.86751   0.16534   0.14413   0.00000  Uiso   1.00
C102   C     0.59854   0.13009   0.20665   0.00000  Uiso   1.00
C103   C     0.91326   0.38145   0.14014   0.00000  Uiso   1.00
C104   C     0.86881   0.33638   0.19305   0.00000  Uiso   1.00
C105   C     0.61954   0.15175   0.12668   0.00000  Uiso   1.00
C106   C     0.66547   0.36698   0.14521   0.00000  Uiso   1.00
C107   C     0.83522   0.13308   0.14398   0.00000  Uiso   1.00
C108   C     0.88249   0.08466   0.18920   0.00000  Uiso   1.00
C109   C     0.61680   0.41531   0.18825   0.00000  Uiso   1.00
C110   C     0.83674   0.36855   0.19319   0.00000  Uiso   1.00
C111   C     0.94070   0.19049   0.16677   0.00000  Uiso   1.00
C112   C     0.65146   0.11990   0.12668   0.00000  Uiso   1.00
C113   C     0.63046   0.09825   0.20665   0.00000  Uiso   1.00
C114   C     0.88119   0.41362   0.14029   0.00000  Uiso   1.00
C115   C     0.59285   0.34287   0.16645   0.00000  Uiso   1.00
C116   C     0.90715   0.15713   0.16689   0.00000  Uiso   1.00
C117   C     0.90705   0.34287   0.16653   0.00000  Uiso   1.00
C118   C     0.59290   0.15707   0.16671   0.00000  Uiso   1.00
C119   C     0.84285   0.09287   0.16644   0.00000  Uiso   1.00
C120   C     0.65715   0.40714   0.16689   0.00000  Uiso   1.00
C121   C     0.65710   0.09292   0.16662   0.00000  Uiso   1.00
C122   C     0.55947   0.30933   0.16657   0.00000  Uiso   1.00
C123   C     0.84295   0.40713   0.16680   0.00000  Uiso   1.00
C124   C     0.80944   0.44056   0.16672   0.00000  Uiso   1.00
C125   C     0.69057   0.05949   0.16662   0.00000  Uiso   1.00
C126   C     0.69052   0.44067   0.16677   0.00000  Uiso   1.00
C127   C     0.80930   0.05951   0.16657   0.00000  Uiso   1.00
C128   C     0.99504   0.21191   0.02508   0.00000  Uiso   1.00
Cl129  Cl    0.96550   0.10593   0.21583   0.00000  Uiso   1.00
Cl130  Cl    0.78451   0.14407   0.11751   0.00000  Uiso   1.00
Cl131  Cl    0.89250   0.03338   0.21604   0.00000  Uiso   1.00
Cl132  Cl    0.60570   0.46669   0.21326   0.00000  Uiso   1.00
Cl133  Cl    0.78790   0.35929   0.22494   0.00000  Uiso   1.00
Cl134  Cl    0.68456   0.11617   0.07571   0.00000  Uiso   1.00
Cl135  Cl    0.63486   0.06494   0.25783   0.00000  Uiso   1.00
Cl136  Cl    0.89015   0.46294   0.10878   0.00000  Uiso   1.00
Cl137  Cl    0.53313   0.39363   0.21369   0.00000  Uiso   1.00
Cl138  Cl    0.64430   0.28331   0.12007   0.00000  Uiso   1.00
Cl139  Cl    0.85750   0.21662   0.11728   0.00000  Uiso   1.00
Cl140  Cl    0.56544   0.13383   0.25762   0.00000  Uiso   1.00
Cl141  Cl    0.96210   0.39071   0.10839   0.00000  Uiso   1.00
Cl142  Cl    0.85986   0.28707   0.22456   0.00000  Uiso   1.00
Cl143  Cl    0.61514   0.18506   0.07550   0.00000  Uiso   1.00
Cl144  Cl    0.71687   0.35637   0.11965   0.00000  Uiso   1.00
Cu145  Cu    0.50000   0.25000   0.21355   0.00000  Uiso   1.00
Cu146  Cu    0.50000   0.25000   0.11978   0.00000  Uiso   1.00
Cu147  Cu    0.75000  -0.00000   0.21355   0.00000  Uiso   1.00
Cu148  Cu    0.75000  -0.00000   0.11978   0.00000  Uiso   1.00
H149   H     0.99118   0.18137   0.04396   0.00000  Uiso   1.00
H150   H     0.50858   0.31867   0.28939   0.00000  Uiso   1.00
H151   H     0.50854   0.31866   0.04303   0.00000  Uiso   1.00
H152   H     0.99024   0.18153   0.29039   0.00000  Uiso   1.00
H153   H     0.74142   0.43133   0.04394   0.00000  Uiso   1.00
H154   H     0.75883   0.06863   0.28937   0.00000  Uiso   1.00
H155   H     0.75977   0.06847   0.04294   0.00000  Uiso   1.00
H156   H     0.74146   0.43134   0.29030   0.00000  Uiso   1.00
N157   N     0.50000   0.25000   0.28402   0.00000  Uiso   1.00
N158   N     0.50000   0.25000   0.04931   0.00000  Uiso   1.00
N159   N     0.75000  -0.00000   0.28402   0.00000  Uiso   1.00
N160   N     0.75000  -0.00000   0.04931   0.00000  Uiso   1.00
O161   O     0.54509   0.20491   0.20625   0.00000  Uiso   1.00
O162   O     0.70492   0.04509   0.12709   0.00000  Uiso   1.00
O163   O     0.70492   0.04509   0.20625   0.00000  Uiso   1.00
O164   O     0.79509   0.45491   0.12709   0.00000  Uiso   1.00
O165   O     0.70492   0.45491   0.12709   0.00000  Uiso   1.00
O166   O     0.79509   0.04509   0.20625   0.00000  Uiso   1.00
O167   O     0.79509   0.04509   0.12709   0.00000  Uiso   1.00
O168   O     0.70492   0.45491   0.20625   0.00000  Uiso   1.00
O169   O     0.95492   0.29509   0.12709   0.00000  Uiso   1.00
O170   O     0.95492   0.29509   0.20625   0.00000  Uiso   1.00
O171   O     0.54509   0.20491   0.12709   0.00000  Uiso   1.00
O172   O     0.95492   0.20491   0.12709   0.00000  Uiso   1.00
O173   O     0.54509   0.29509   0.20625   0.00000  Uiso   1.00
O174   O     0.54509   0.29509   0.12709   0.00000  Uiso   1.00
O175   O     0.95492   0.20491   0.20625   0.00000  Uiso   1.00
O176   O     0.79509   0.45491   0.20625   0.00000  Uiso   1.00
C177   C     0.05943   0.69051   0.16671   0.00000  Uiso   1.00
C178   C     0.00482   0.78812   0.30827   0.00000  Uiso   1.00
C179   C     0.00477   0.78812   0.02455   0.00000  Uiso   1.00
C180   C     0.49478   0.71196   0.30882   0.00000  Uiso   1.00
C181   C     0.24518   0.96188   0.02506   0.00000  Uiso   1.00
C182   C     0.25496   0.53809   0.30826   0.00000  Uiso   1.00
C183   C     0.25523   0.53804   0.02452   0.00000  Uiso   1.00
C184   C     0.24523   0.96188   0.30878   0.00000  Uiso   1.00
C185   C     0.41479   0.61692   0.18935   0.00000  Uiso   1.00
C186   C     0.08453   0.88302   0.18813   0.00000  Uiso   1.00
C187   C     0.13320   0.83469   0.14508   0.00000  Uiso   1.00
C188   C     0.44056   0.80944   0.16661   0.00000  Uiso   1.00
C189   C     0.36751   0.66534   0.14413   0.00000  Uiso   1.00
C190   C     0.09854   0.63009   0.20665   0.00000  Uiso   1.00
C191   C     0.41326   0.88145   0.14014   0.00000  Uiso   1.00
C192   C     0.36881   0.83638   0.19305   0.00000  Uiso   1.00
C193   C     0.11954   0.65175   0.12668   0.00000  Uiso   1.00
C194   C     0.16547   0.86698   0.14521   0.00000  Uiso   1.00
C195   C     0.33522   0.63308   0.14398   0.00000  Uiso   1.00
C196   C     0.38249   0.58466   0.18920   0.00000  Uiso   1.00
C197   C     0.11680   0.91531   0.18825   0.00000  Uiso   1.00
C198   C     0.33674   0.86855   0.19319   0.00000  Uiso   1.00
C199   C     0.44070   0.69049   0.16677   0.00000  Uiso   1.00
C200   C     0.15146   0.61990   0.12668   0.00000  Uiso   1.00
C201   C     0.13046   0.59825   0.20665   0.00000  Uiso   1.00
C202   C     0.38119   0.91362   0.14029   0.00000  Uiso   1.00
C203   C     0.09285   0.84287   0.16645   0.00000  Uiso   1.00
C204   C     0.40715   0.65713   0.16689   0.00000  Uiso   1.00
C205   C     0.40705   0.84287   0.16653   0.00000  Uiso   1.00
C206   C     0.09290   0.65707   0.16671   0.00000  Uiso   1.00
C207   C     0.34285   0.59287   0.16644   0.00000  Uiso   1.00
C208   C     0.15715   0.90714   0.16689   0.00000  Uiso   1.00
C209   C     0.15710   0.59292   0.16662   0.00000  Uiso   1.00
C210   C     0.05947   0.80933   0.16657   0.00000  Uiso   1.00
C211   C     0.34295   0.90713   0.16680   0.00000  Uiso   1.00
C212   C     0.30944   0.94056   0.16672   0.00000  Uiso   1.00
C213   C     0.19057   0.55949   0.16662   0.00000  Uiso   1.00
C214   C     0.19052   0.94067   0.16677   0.00000  Uiso   1.00
C215   C     0.30930   0.55951   0.16657   0.00000  Uiso   1.00
C216   C     0.49504   0.71191   0.02508   0.00000  Uiso   1.00
Cl217  Cl    0.46550   0.60593   0.21583   0.00000  Uiso   1.00
Cl218  Cl    0.28451   0.64407   0.11751   0.00000  Uiso   1.00
Cl219  Cl    0.39250   0.53338   0.21604   0.00000  Uiso   1.00
Cl220  Cl    0.10570   0.96669   0.21326   0.00000  Uiso   1.00
Cl221  Cl    0.28790   0.85929   0.22494   0.00000  Uiso   1.00
Cl222  Cl    0.18456   0.61617   0.07571   0.00000  Uiso   1.00
Cl223  Cl    0.13486   0.56494   0.25783   0.00000  Uiso   1.00
Cl224  Cl    0.39015   0.96294   0.10878   0.00000  Uiso   1.00
Cl225  Cl    0.03313   0.89363   0.21369   0.00000  Uiso   1.00
Cl226  Cl    0.14430   0.78331   0.12007   0.00000  Uiso   1.00
Cl227  Cl    0.35750   0.71662   0.11728   0.00000  Uiso   1.00
Cl228  Cl    0.06544   0.63383   0.25762   0.00000  Uiso   1.00
Cl229  Cl    0.46210   0.89071   0.10839   0.00000  Uiso   1.00
Cl230  Cl    0.35986   0.78707   0.22456   0.00000  Uiso   1.00
Cl231  Cl    0.11514   0.68506   0.07550   0.00000  Uiso   1.00
Cl232  Cl    0.21687   0.85637   0.11965   0.00000  Uiso   1.00
Cu233  Cu    0.00000   0.75000   0.21355   0.00000  Uiso   1.00
Cu234  Cu    0.00000   0.75000   0.11978   0.00000  Uiso   1.00
Cu235  Cu    0.25000   0.50000   0.21355   0.00000  Uiso   1.00
Cu236  Cu    0.25000   0.50000   0.11978   0.00000  Uiso   1.00
H237   H     0.49118   0.68137   0.04396   0.00000  Uiso   1.00
H238   H     0.00858   0.81867   0.28939   0.00000  Uiso   1.00
H239   H     0.00854   0.81866   0.04303   0.00000  Uiso   1.00
H240   H     0.49024   0.68153   0.29039   0.00000  Uiso   1.00
H241   H     0.24142   0.93133   0.04394   0.00000  Uiso   1.00
H242   H     0.25883   0.56863   0.28937   0.00000  Uiso   1.00
H243   H     0.25977   0.56847   0.04294   0.00000  Uiso   1.00
H244   H     0.24146   0.93134   0.29030   0.00000  Uiso   1.00
N245   N     0.00000   0.75000   0.28402   0.00000  Uiso   1.00
N246   N     0.00000   0.75000   0.04931   0.00000  Uiso   1.00
N247   N     0.25000   0.50000   0.28402   0.00000  Uiso   1.00
N248   N     0.25000   0.50000   0.04931   0.00000  Uiso   1.00
O249   O     0.04509   0.70491   0.20625   0.00000  Uiso   1.00
O250   O     0.20492   0.54509   0.12709   0.00000  Uiso   1.00
O251   O     0.20492   0.54509   0.20625   0.00000  Uiso   1.00
O252   O     0.29509   0.95491   0.12709   0.00000  Uiso   1.00
O253   O     0.20492   0.95491   0.12709   0.00000  Uiso   1.00
O254   O     0.29509   0.54509   0.20625   0.00000  Uiso   1.00
O255   O     0.29509   0.54509   0.12709   0.00000  Uiso   1.00
O256   O     0.20492   0.95491   0.20625   0.00000  Uiso   1.00
O257   O     0.45492   0.79509   0.12709   0.00000  Uiso   1.00
O258   O     0.45492   0.79509   0.20625   0.00000  Uiso   1.00
O259   O     0.04509   0.70491   0.12709   0.00000  Uiso   1.00
O260   O     0.45492   0.70491   0.12709   0.00000  Uiso   1.00
O261   O     0.04509   0.79509   0.20625   0.00000  Uiso   1.00
O262   O     0.04509   0.79509   0.12709   0.00000  Uiso   1.00
O263   O     0.45492   0.70491   0.20625   0.00000  Uiso   1.00
O264   O     0.29509   0.95491   0.20625   0.00000  Uiso   1.00
C265   C     0.55943   0.69051   0.16671   0.00000  Uiso   1.00
C266   C     0.50482   0.78812   0.30827   0.00000  Uiso   1.00
C267   C     0.50477   0.78812   0.02455   0.00000  Uiso   1.00
C268   C     0.99478   0.71196   0.30882   0.00000  Uiso   1.00
C269   C     0.74518   0.96188   0.02506   0.00000  Uiso   1.00
C270   C     0.75496   0.53809   0.30826   0.00000  Uiso   1.00
C271   C     0.75523   0.53804   0.02452   0.00000  Uiso   1.00
C272   C     0.74523   0.96188   0.30878   0.00000  Uiso   1.00
C273   C     0.91479   0.61692   0.18935   0.00000  Uiso   1.00
C274   C     0.58453   0.88302   0.18813   0.00000  Uiso   1.00
C275   C     0.63320   0.83469   0.14508   0.00000  Uiso   1.00
C276   C     0.94056   0.80944   0.16661   0.00000  Uiso   1.00
C277   C     0.86751   0.66534   0.14413   0.00000  Uiso   1.00
C278   C     0.59854   0.63009   0.20665   0.00000  Uiso   1.00
C279   C     0.91326   0.88145   0.14014   0.00000  Uiso   1.00
C280   C     0.86881   0.83638   0.19305   0.00000  Uiso   1.00
C281   C     0.61954   0.65175   0.12668   0.00000  Uiso   1.00
C282   C     0.66547   0.86698   0.14521   0.00000  Uiso   1.00
C283   C     0.83522   0.63308   0.14398   0.00000  Uiso   1.00
C284   C     0.88249   0.58466   0.18920   0.00000  Uiso   1.00
C285   C     0.61680   0.91531   0.18825   0.00000  Uiso   1.00
C286   C     0.83674   0.86855   0.19319   0.00000  Uiso   1.00
C287   C     0.94070   0.69049   0.16677   0.00000  Uiso   1.00
C288   C     0.65146   0.61990   0.12668   0.00000  Uiso   1.00
C289   C     0.63046   0.59825   0.20665   0.00000  Uiso   1.00
C290   C     0.88119   0.91362   0.14029   0.00000  Uiso   1.00
C291   C     0.59285   0.84287   0.16645   0.00000  Uiso   1.00
C292   C     0.90715   0.65713   0.16689   0.00000  Uiso   1.00
C293   C     0.90705   0.84287   0.16653   0.00000  Uiso   1.00
C294   C     0.59290   0.65707   0.16671   0.00000  Uiso   1.00
C295   C     0.84285   0.59287   0.16644   0.00000  Uiso   1.00
C296   C     0.65715   0.90714   0.16689   0.00000  Uiso   1.00
C297   C     0.65710   0.59292   0.16662   0.00000  Uiso   1.00
C298   C     0.55947   0.80933   0.16657   0.00000  Uiso   1.00
C299   C     0.84295   0.90713   0.16680   0.00000  Uiso   1.00
C300   C     0.80944   0.94056   0.16672   0.00000  Uiso   1.00
C301   C     0.69057   0.55949   0.16662   0.00000  Uiso   1.00
C302   C     0.69052   0.94067   0.16677   0.00000  Uiso   1.00
C303   C     0.80930   0.55951   0.16657   0.00000  Uiso   1.00
C304   C     0.99504   0.71191   0.02508   0.00000  Uiso   1.00
Cl305  Cl    0.96550   0.60593   0.21583   0.00000  Uiso   1.00
Cl306  Cl    0.78451   0.64407   0.11751   0.00000  Uiso   1.00
Cl307  Cl    0.89250   0.53338   0.21604   0.00000  Uiso   1.00
Cl308  Cl    0.60570   0.96669   0.21326   0.00000  Uiso   1.00
Cl309  Cl    0.78790   0.85929   0.22494   0.00000  Uiso   1.00
Cl310  Cl    0.68456   0.61617   0.07571   0.00000  Uiso   1.00
Cl311  Cl    0.63486   0.56494   0.25783   0.00000  Uiso   1.00
Cl312  Cl    0.89015   0.96294   0.10878   0.00000  Uiso   1.00
Cl313  Cl    0.53313   0.89363   0.21369   0.00000  Uiso   1.00
Cl314  Cl    0.64430   0.78331   0.12007   0.00000  Uiso   1.00
Cl315  Cl    0.85750   0.71662   0.11728   0.00000  Uiso   1.00
Cl316  Cl    0.56544   0.63383   0.25762   0.00000  Uiso   1.00
Cl317  Cl    0.96210   0.89071   0.10839   0.00000  Uiso   1.00
Cl318  Cl    0.85986   0.78707   0.22456   0.00000  Uiso   1.00
Cl319  Cl    0.61514   0.68506   0.07550   0.00000  Uiso   1.00
Cl320  Cl    0.71687   0.85637   0.11965   0.00000  Uiso   1.00
Cu321  Cu    0.50000   0.75000   0.21355   0.00000  Uiso   1.00
Cu322  Cu    0.50000   0.75000   0.11978   0.00000  Uiso   1.00
Cu323  Cu    0.75000   0.50000   0.21355   0.00000  Uiso   1.00
Cu324  Cu    0.75000   0.50000   0.11978   0.00000  Uiso   1.00
H325   H     0.99118   0.68137   0.04396   0.00000  Uiso   1.00
H326   H     0.50858   0.81867   0.28939   0.00000  Uiso   1.00
H327   H     0.50854   0.81866   0.04303   0.00000  Uiso   1.00
H328   H     0.99024   0.68153   0.29039   0.00000  Uiso   1.00
H329   H     0.74142   0.93133   0.04394   0.00000  Uiso   1.00
H330   H     0.75883   0.56863   0.28937   0.00000  Uiso   1.00
H331   H     0.75977   0.56847   0.04294   0.00000  Uiso   1.00
H332   H     0.74146   0.93134   0.29030   0.00000  Uiso   1.00
N333   N     0.50000   0.75000   0.28402   0.00000  Uiso   1.00
N334   N     0.50000   0.75000   0.04931   0.00000  Uiso   1.00
N335   N     0.75000   0.50000   0.28402   0.00000  Uiso   1.00
N336   N     0.75000   0.50000   0.04931   0.00000  Uiso   1.00
O337   O     0.54509   0.70491   0.20625   0.00000  Uiso   1.00
O338   O     0.70492   0.54509   0.12709   0.00000  Uiso   1.00
O339   O     0.70492   0.54509   0.20625   0.00000  Uiso   1.00
O340   O     0.79509   0.95491   0.12709   0.00000  Uiso   1.00
O341   O     0.70492   0.95491   0.12709   0.00000  Uiso   1.00
O342   O     0.79509   0.54509   0.20625   0.00000  Uiso   1.00
O343   O     0.79509   0.54509   0.12709   0.00000  Uiso   1.00
O344   O     0.70492   0.95491   0.20625   0.00000  Uiso   1.00
O345   O     0.95492   0.79509   0.12709   0.00000  Uiso   1.00
O346   O     0.95492   0.79509   0.20625   0.00000  Uiso   1.00
O347   O     0.54509   0.70491   0.12709   0.00000  Uiso   1.00
O348   O     0.95492   0.70491   0.12709   0.00000  Uiso   1.00
O349   O     0.54509   0.79509   0.20625   0.00000  Uiso   1.00
O350   O     0.54509   0.79509   0.12709   0.00000  Uiso   1.00
O351   O     0.95492   0.70491   0.20625   0.00000  Uiso   1.00
O352   O     0.79509   0.95491   0.20625   0.00000  Uiso   1.00
C353   C     0.05943   0.19051   0.50004   0.00000  Uiso   1.00
C354   C     0.00482   0.28812   0.64160   0.00000  Uiso   1.00
C355   C     0.00477   0.28812   0.35788   0.00000  Uiso   1.00
C356   C     0.49478   0.21196   0.64215   0.00000  Uiso   1.00
C357   C     0.24518   0.46188   0.35840   0.00000  Uiso   1.00
C358   C     0.25496   0.03809   0.64159   0.00000  Uiso   1.00
C359   C     0.25523   0.03804   0.35785   0.00000  Uiso   1.00
C360   C     0.24523   0.46188   0.64212   0.00000  Uiso   1.00
C361   C     0.41479   0.11692   0.52269   0.00000  Uiso   1.00
C362   C     0.08453   0.38302   0.52146   0.00000  Uiso   1.00
C363   C     0.13320   0.33469   0.47842   0.00000  Uiso   1.00
C364   C     0.44056   0.30944   0.49994   0.00000  Uiso   1.00
C365   C     0.36751   0.16534   0.47746   0.00000  Uiso   1.00
C366   C     0.09854   0.13009   0.53998   0.00000  Uiso   1.00
C367   C     0.41326   0.38145   0.47347   0.00000  Uiso   1.00
C368   C     0.36881   0.33638   0.52638   0.00000  Uiso   1.00
C369   C     0.11954   0.15175   0.46001   0.00000  Uiso   1.00
C370   C     0.16547   0.36698   0.47854   0.00000  Uiso   1.00
C371   C     0.33522   0.13308   0.47732   0.00000  Uiso   1.00
C372   C     0.38249   0.08466   0.52253   0.00000  Uiso   1.00
C373   C     0.11680   0.41531   0.52158   0.00000  Uiso   1.00
C374   C     0.33674   0.36855   0.52653   0.00000  Uiso   1.00
C375   C     0.44070   0.19049   0.50010   0.00000  Uiso   1.00
C376   C     0.15146   0.11990   0.46002   0.00000  Uiso   1.00
C377   C     0.13046   0.09825   0.53999   0.00000  Uiso   1.00
C378   C     0.38119   0.41362   0.47362   0.00000  Uiso   1.00
C379   C     0.09285   0.34287   0.49978   0.00000  Uiso   1.00
C380   C     0.40715   0.15713   0.50022   0.00000  Uiso   1.00
C381   C     0.40705   0.34287   0.49987   0.00000  Uiso   1.00
C382   C     0.09290   0.15707   0.50004   0.00000  Uiso   1.00
C383   C     0.34285   0.09287   0.49978   0.00000  Uiso   1.00
C384   C     0.15715   0.40714   0.50022   0.00000  Uiso   1.00
C385   C     0.15710   0.09292   0.49996   0.00000  Uiso   1.00
C386   C     0.05947   0.30933   0.49990   0.00000  Uiso   1.00
C387   C     0.34295   0.40713   0.50013   0.00000  Uiso   1.00
C388   C     0.30944   0.44056   0.50006   0.00000  Uiso   1.00
C389   C     0.19057   0.05949   0.49996   0.00000  Uiso   1.00
C390   C     0.19052   0.44067   0.50010   0.00000  Uiso   1.00
C391   C     0.30930   0.05951   0.49990   0.00000  Uiso   1.00
C392   C     0.49504   0.21191   0.35841   0.00000  Uiso   1.00
Cl393  Cl    0.46550   0.10593   0.54916   0.00000  Uiso   1.00
Cl394  Cl    0.28451   0.14407   0.45084   0.00000  Uiso   1.00
Cl395  Cl    0.39250   0.03338   0.54938   0.00000  Uiso   1.00
Cl396  Cl    0.10570   0.46669   0.54660   0.00000  Uiso   1.00
Cl397  Cl    0.28790   0.35929   0.55827   0.00000  Uiso   1.00
Cl398  Cl    0.18456   0.11617   0.40905   0.00000  Uiso   1.00
Cl399  Cl    0.13486   0.06494   0.59117   0.00000  Uiso   1.00
Cl400  Cl    0.39015   0.46294   0.44211   0.00000  Uiso   1.00
Cl401  Cl    0.03313   0.39363   0.54702   0.00000  Uiso   1.00
Cl402  Cl    0.14430   0.28331   0.45341   0.00000  Uiso   1.00
Cl403  Cl    0.35750   0.21662   0.45061   0.00000  Uiso   1.00
Cl404  Cl    0.06544   0.13383   0.59095   0.00000  Uiso   1.00
Cl405  Cl    0.46210   0.39071   0.44172   0.00000  Uiso   1.00
Cl406  Cl    0.35986   0.28707   0.55790   0.00000  Uiso   1.00
Cl407  Cl    0.11514   0.18506   0.40883   0.00000  Uiso   1.00
Cl408  Cl    0.21687   0.35637   0.45298   0.00000  Uiso   1.00
Cu409  Cu    0.00000   0.25000   0.54689   0.00000  Uiso   1.00
Cu410  Cu    0.00000   0.25000   0.45311   0.00000  Uiso   1.00
Cu411  Cu    0.25000  -0.00000   0.54689   0.00000  Uiso   1.00
Cu412  Cu    0.25000  -0.00000   0.45311   0.00000  Uiso   1.00
H413   H     0.49118   0.18137   0.37729   0.00000  Uiso   1.00
H414   H     0.00858   0.31867   0.62272   0.00000  Uiso   1.00
H415   H     0.00854   0.31866   0.37636   0.00000  Uiso   1.00
H416   H     0.49024   0.18153   0.62373   0.00000  Uiso   1.00
H417   H     0.24142   0.43133   0.37728   0.00000  Uiso   1.00
H418   H     0.25883   0.06863   0.62271   0.00000  Uiso   1.00
H419   H     0.25977   0.06847   0.37627   0.00000  Uiso   1.00
H420   H     0.24146   0.43134   0.62364   0.00000  Uiso   1.00
N421   N     0.00000   0.25000   0.61736   0.00000  Uiso   1.00
N422   N     0.00000   0.25000   0.38264   0.00000  Uiso   1.00
N423   N     0.25000  -0.00000   0.61736   0.00000  Uiso   1.00
N424   N     0.25000  -0.00000   0.38264   0.00000  Uiso   1.00
O425   O     0.04509   0.20491   0.53958   0.00000  Uiso   1.00
O426   O     0.20492   0.04509   0.46042   0.00000  Uiso   1.00
O427   O     0.20492   0.04509   0.53958   0.00000  Uiso   1.00
O428   O     0.29509   0.45491   0.46042   0.00000  Uiso   1.00
O429   O     0.20492   0.45491   0.46042   0.00000  Uiso   1.00
O430   O     0.29509   0.04509   0.53958   0.00000  Uiso   1.00
O431   O     0.29509   0.04509   0.46042   0.00000  Uiso   1.00
O432   O     0.20492   0.45491   0.53958   0.00000  Uiso   1.00
O433   O     0.45492   0.29509   0.46042   0.00000  Uiso   1.00
O434   O     0.45492   0.29509   0.53958   0.00000  Uiso   1.00
O435   O     0.04509   0.20491   0.46042   0.00000  Uiso   1.00
O436   O     0.45492   0.20491   0.46042   0.00000  Uiso   1.00
O437   O     0.04509   0.29509   0.53958   0.00000  Uiso   1.00
O438   O     0.04509   0.29509   0.46042   0.00000  Uiso   1.00
O439   O     0.45492   0.20491   0.53958   0.00000  Uiso   1.00
O440   O     0.29509   0.45491   0.53958   0.00000  Uiso   1.00
C441   C     0.55943   0.19051   0.50004   0.00000  Uiso   1.00
C442   C     0.50482   0.28812   0.64160   0.00000  Uiso   1.00
C443   C     0.50477   0.28812   0.35788   0.00000  Uiso   1.00
C444   C     0.99478   0.21196   0.64215   0.00000  Uiso   1.00
C445   C     0.74518   0.46188   0.35840   0.00000  Uiso   1.00
C446   C     0.75496   0.03809   0.64159   0.00000  Uiso   1.00
C447   C     0.75523   0.03804   0.35785   0.00000  Uiso   1.00
C448   C     0.74523   0.46188   0.64212   0.00000  Uiso   1.00
C449   C     0.91479   0.11692   0.52269   0.00000  Uiso   1.00
C450   C     0.58453   0.38302   0.52146   0.00000  Uiso   1.00
C451   C     0.63320   0.33469   0.47842   0.00000  Uiso   1.00
C452   C     0.94056   0.30944   0.49994   0.00000  Uiso   1.00
C453   C     0.86751   0.16534   0.47746   0.00000  Uiso   1.00
C454   C     0.59854   0.13009   0.53998   0.00000  Uiso   1.00
C455   C     0.91326   0.38145   0.47347   0.00000  Uiso   1.00
C456   C     0.86881   0.33638   0.52638   0.00000  Uiso   1.00
C457   C     0.61954   0.15175   0.46001   0.00000  Uiso   1.00
C458   C     0.66547   0.36698   0.47854   0.00000  Uiso   1.00
C459   C     0.83522   0.13308   0.47732   0.00000  Uiso   1.00
C460   C     0.88249   0.08466   0.52253   0.00000  Uiso   1.00
C461   C     0.61680   0.41531   0.52158   0.00000  Uiso   1.00
C462   C     0.83674   0.36855   0.52653   0.00000  Uiso   1.00
C463   C     0.94070   0.19049   0.50010   0.00000  Uiso   1.00
C464   C     0.65146   0.11990   0.46002   0.00000  Uiso   1.00
C465   C     0.63046   0.09825   0.53999   0.00000  Uiso   1.00
C466   C     0.88119   0.41362   0.47362   0.00000  Uiso   1.00
C467   C     0.59285   0.34287   0.49978   0.00000  Uiso   1.00
C468   C     0.90715   0.15713   0.50022   0.00000  Uiso   1.00
C469   C     0.90705   0.34287   0.49987   0.00000  Uiso   1.00
C470   C     0.59290   0.15707   0.50004   0.00000  Uiso   1.00
C471   C     0.84285   0.09287   0.49978   0.00000  Uiso   1.00
C472   C     0.65715   0.40714   0.50022   0.00000  Uiso   1.00
C473   C     0.65710   0.09292   0.49996   0.00000  Uiso   1.00
C474   C     0.55947   0.30933   0.49990   0.00000  Uiso   1.00
C475   C     0.84295   0.40713   0.50013   0.00000  Uiso   1.00
C476   C     0.80944   0.44056   0.50006   0.00000  Uiso   1.00
C477   C     0.69057   0.05949   0.49996   0.00000  Uiso   1.00
C478   C     0.69052   0.44067   0.50010   0.00000  Uiso   1.00
C479   C     0.80930   0.05951   0.49990   0.00000  Uiso   1.00
C480   C     0.99504   0.21191   0.35841   0.00000  Uiso   1.00
Cl481  Cl    0.96550   0.10593   0.54916   0.00000  Uiso   1.00
Cl482  Cl    0.78451   0.14407   0.45084   0.00000  Uiso   1.00
Cl483  Cl    0.89250   0.03338   0.54938   0.00000  Uiso   1.00
Cl484  Cl    0.60570   0.46669   0.54660   0.00000  Uiso   1.00
Cl485  Cl    0.78790   0.35929   0.55827   0.00000  Uiso   1.00
Cl486  Cl    0.68456   0.11617   0.40905   0.00000  Uiso   1.00
Cl487  Cl    0.63486   0.06494   0.59117   0.00000  Uiso   1.00
Cl488  Cl    0.89015   0.46294   0.44211   0.00000  Uiso   1.00
Cl489  Cl    0.53313   0.39363   0.54702   0.00000  Uiso   1.00
Cl490  Cl    0.64430   0.28331   0.45341   0.00000  Uiso   1.00
Cl491  Cl    0.85750   0.21662   0.45061   0.00000  Uiso   1.00
Cl492  Cl    0.56544   0.13383   0.59095   0.00000  Uiso   1.00
Cl493  Cl    0.96210   0.39071   0.44172   0.00000  Uiso   1.00
Cl494  Cl    0.85986   0.28707   0.55790   0.00000  Uiso   1.00
Cl495  Cl    0.61514   0.18506   0.40883   0.00000  Uiso   1.00
Cl496  Cl    0.71687   0.35637   0.45298   0.00000  Uiso   1.00
Cu497  Cu    0.50000   0.25000   0.54689   0.00000  Uiso   1.00
Cu498  Cu    0.50000   0.25000   0.45311   0.00000  Uiso   1.00
Cu499  Cu    0.75000  -0.00000   0.54689   0.00000  Uiso   1.00
Cu500  Cu    0.75000  -0.00000   0.45311   0.00000  Uiso   1.00
H501   H     0.99118   0.18137   0.37729   0.00000  Uiso   1.00
H502   H     0.50858   0.31867   0.62272   0.00000  Uiso   1.00
H503   H     0.50854   0.31866   0.37636   0.00000  Uiso   1.00
H504   H     0.99024   0.18153   0.62373   0.00000  Uiso   1.00
H505   H     0.74142   0.43133   0.37728   0.00000  Uiso   1.00
H506   H     0.75883   0.06863   0.62271   0.00000  Uiso   1.00
H507   H     0.75977   0.06847   0.37627   0.00000  Uiso   1.00
H508   H     0.74146   0.43134   0.62364   0.00000  Uiso   1.00
N509   N     0.50000   0.25000   0.61736   0.00000  Uiso   1.00
N510   N     0.50000   0.25000   0.38264   0.00000  Uiso   1.00
N511   N     0.75000  -0.00000   0.61736   0.00000  Uiso   1.00
N512   N     0.75000  -0.00000   0.38264   0.00000  Uiso   1.00
O513   O     0.54509   0.20491   0.53958   0.00000  Uiso   1.00
O514   O     0.70492   0.04509   0.46042   0.00000  Uiso   1.00
O515   O     0.70492   0.04509   0.53958   0.00000  Uiso   1.00
O516   O     0.79509   0.45491   0.46042   0.00000  Uiso   1.00
O517   O     0.70492   0.45491   0.46042   0.00000  Uiso   1.00
O518   O     0.79509   0.04509   0.53958   0.00000  Uiso   1.00
O519   O     0.79509   0.04509   0.46042   0.00000  Uiso   1.00
O520   O     0.70492   0.45491   0.53958   0.00000  Uiso   1.00
O521   O     0.95492   0.29509   0.46042   0.00000  Uiso   1.00
O522   O     0.95492   0.29509   0.53958   0.00000  Uiso   1.00
O523   O     0.54509   0.20491   0.46042   0.00000  Uiso   1.00
O524   O     0.95492   0.20491   0.46042   0.00000  Uiso   1.00
O525   O     0.54509   0.29509   0.53958   0.00000  Uiso   1.00
O526   O     0.54509   0.29509   0.46042   0.00000  Uiso   1.00
O527   O     0.95492   0.20491   0.53958   0.00000  Uiso   1.00
O528   O     0.79509   0.45491   0.53958   0.00000  Uiso   1.00
C529   C     0.05943   0.69051   0.50004   0.00000  Uiso   1.00
C530   C     0.00482   0.78812   0.64160   0.00000  Uiso   1.00
C531   C     0.00477   0.78812   0.35788   0.00000  Uiso   1.00
C532   C     0.49478   0.71196   0.64215   0.00000  Uiso   1.00
C533   C     0.24518   0.96188   0.35840   0.00000  Uiso   1.00
C534   C     0.25496   0.53809   0.64159   0.00000  Uiso   1.00
C535   C     0.25523   0.53804   0.35785   0.00000  Uiso   1.00
C536   C     0.24523   0.96188   0.64212   0.00000  Uiso   1.00
C537   C     0.41479   0.61692   0.52269   0.00000  Uiso   1.00
C538   C     0.08453   0.88302   0.52146   0.00000  Uiso   1.00
C539   C     0.13320   0.83469   0.47842   0.00000  Uiso   1.00
C540   C     0.44056   0.80944   0.49994   0.00000  Uiso   1.00
C541   C     0.36751   0.66534   0.47746   0.00000  Uiso   1.00
C542   C     0.09854   0.63009   0.53998   0.00000  Uiso   1.00
C543   C     0.41326   0.88145   0.47347   0.00000  Uiso   1.00
C544   C     0.36881   0.83638   0.52638   0.00000  Uiso   1.00
C545   C     0.11954   0.65175   0.46001   0.00000  Uiso   1.00
C546   C     0.16547   0.86698   0.47854   0.00000  Uiso   1.00
C547   C     0.33522   0.63308   0.47732   0.00000  Uiso   1.00
C548   C     0.38249   0.58466   0.52253   0.00000  Uiso   1.00
C549   C     0.11680   0.91531   0.52158   0.00000  Uiso   1.00
C550   C     0.33674   0.86855   0.52653   0.00000  Uiso   1.00
C551   C     0.44070   0.69049   0.50010   0.00000  Uiso   1.00
C552   C     0.15146   0.61990   0.46002   0.00000  Uiso   1.00
C553   C     0.13046   0.59825   0.53999   0.00000  Uiso   1.00
C554   C     0.38119   0.91362   0.47362   0.00000  Uiso   1.00
C555   C     0.09285   0.84287   0.49978   0.00000  Uiso   1.00
C556   C     0.40715   0.65713   0.50022   0.00000  Uiso   1.00
C557   C     0.40705   0.84287   0.49987   0.00000  Uiso   1.00
C558   C     0.09290   0.65707   0.50004   0.00000  Uiso   1.00
C559   C     0.34285   0.59287   0.49978   0.00000  Uiso   1.00
C560   C     0.15715   0.90714   0.50022   0.00000  Uiso   1.00
C561   C     0.15710   0.59292   0.49996   0.00000  Uiso   1.00
C562   C     0.05947   0.80933   0.49990   0.00000  Uiso   1.00
C563   C     0.34295   0.90713   0.50013   0.00000  Uiso   1.00
C564   C     0.30944   0.94056   0.50006   0.00000  Uiso   1.00
C565   C     0.19057   0.55949   0.49996   0.00000  Uiso   1.00
C566   C     0.19052   0.94067   0.50010   0.00000  Uiso   1.00
C567   C     0.30930   0.55951   0.49990   0.00000  Uiso   1.00
C568   C     0.49504   0.71191   0.35841   0.00000  Uiso   1.00
Cl569  Cl    0.46550   0.60593   0.54916   0.00000  Uiso   1.00
Cl570  Cl    0.28451   0.64407   0.45084   0.00000  Uiso   1.00
Cl571  Cl    0.39250   0.53338   0.54938   0.00000  Uiso   1.00
Cl572  Cl    0.10570   0.96669   0.54660   0.00000  Uiso   1.00
Cl573  Cl    0.28790   0.85929   0.55827   0.00000  Uiso   1.00
Cl574  Cl    0.18456   0.61617   0.40905   0.00000  Uiso   1.00
Cl575  Cl    0.13486   0.56494   0.59117   0.00000  Uiso   1.00
Cl576  Cl    0.39015   0.96294   0.44211   0.00000  Uiso   1.00
Cl577  Cl    0.03313   0.89363   0.54702   0.00000  Uiso   1.00
Cl578  Cl    0.14430   0.78331   0.45341   0.00000  Uiso   1.00
Cl579  Cl    0.35750   0.71662   0.45061   0.00000  Uiso   1.00
Cl580  Cl    0.06544   0.63383   0.59095   0.00000  Uiso   1.00
Cl581  Cl    0.46210   0.89071   0.44172   0.00000  Uiso   1.00
Cl582  Cl    0.35986   0.78707   0.55790   0.00000  Uiso   1.00
Cl583  Cl    0.11514   0.68506   0.40883   0.00000  Uiso   1.00
Cl584  Cl    0.21687   0.85637   0.45298   0.00000  Uiso   1.00
Cu585  Cu    0.00000   0.75000   0.54689   0.00000  Uiso   1.00
Cu586  Cu    0.00000   0.75000   0.45311   0.00000  Uiso   1.00
Cu587  Cu    0.25000   0.50000   0.54689   0.00000  Uiso   1.00
Cu588  Cu    0.25000   0.50000   0.45311   0.00000  Uiso   1.00
H589   H     0.49118   0.68137   0.37729   0.00000  Uiso   1.00
H590   H     0.00858   0.81867   0.62272   0.00000  Uiso   1.00
H591   H     0.00854   0.81866   0.37636   0.00000  Uiso   1.00
H592   H     0.49024   0.68153   0.62373   0.00000  Uiso   1.00
H593   H     0.24142   0.93133   0.37728   0.00000  Uiso   1.00
H594   H     0.25883   0.56863   0.62271   0.00000  Uiso   1.00
H595   H     0.25977   0.56847   0.37627   0.00000  Uiso   1.00
H596   H     0.24146   0.93134   0.62364   0.00000  Uiso   1.00
N597   N     0.00000   0.75000   0.61736   0.00000  Uiso   1.00
N598   N     0.00000   0.75000   0.38264   0.00000  Uiso   1.00
N599   N     0.25000   0.50000   0.61736   0.00000  Uiso   1.00
N600   N     0.25000   0.50000   0.38264   0.00000  Uiso   1.00
O601   O     0.04509   0.70491   0.53958   0.00000  Uiso   1.00
O602   O     0.20492   0.54509   0.46042   0.00000  Uiso   1.00
O603   O     0.20492   0.54509   0.53958   0.00000  Uiso   1.00
O604   O     0.29509   0.95491   0.46042   0.00000  Uiso   1.00
O605   O     0.20492   0.95491   0.46042   0.00000  Uiso   1.00
O606   O     0.29509   0.54509   0.53958   0.00000  Uiso   1.00
O607   O     0.29509   0.54509   0.46042   0.00000  Uiso   1.00
O608   O     0.20492   0.95491   0.53958   0.00000  Uiso   1.00
O609   O     0.45492   0.79509   0.46042   0.00000  Uiso   1.00
O610   O     0.45492   0.79509   0.53958   0.00000  Uiso   1.00
O611   O     0.04509   0.70491   0.46042   0.00000  Uiso   1.00
O612   O     0.45492   0.70491   0.46042   0.00000  Uiso   1.00
O613   O     0.04509   0.79509   0.53958   0.00000  Uiso   1.00
O614   O     0.04509   0.79509   0.46042   0.00000  Uiso   1.00
O615   O     0.45492   0.70491   0.53958   0.00000  Uiso   1.00
O616   O     0.29509   0.95491   0.53958   0.00000  Uiso   1.00
C617   C     0.55943   0.69051   0.50004   0.00000  Uiso   1.00
C618   C     0.50482   0.78812   0.64160   0.00000  Uiso   1.00
C619   C     0.50477   0.78812   0.35788   0.00000  Uiso   1.00
C620   C     0.99478   0.71196   0.64215   0.00000  Uiso   1.00
C621   C     0.74518   0.96188   0.35840   0.00000  Uiso   1.00
C622   C     0.75496   0.53809   0.64159   0.00000  Uiso   1.00
C623   C     0.75523   0.53804   0.35785   0.00000  Uiso   1.00
C624   C     0.74523   0.96188   0.64212   0.00000  Uiso   1.00
C625   C     0.91479   0.61692   0.52269   0.00000  Uiso   1.00
C626   C     0.58453   0.88302   0.52146   0.00000  Uiso   1.00
C627   C     0.63320   0.83469   0.47842   0.00000  Uiso   1.00
C628   C     0.94056   0.80944   0.49994   0.00000  Uiso   1.00
C629   C     0.86751   0.66534   0.47746   0.00000  Uiso   1.00
C630   C     0.59854   0.63009   0.53998   0.00000  Uiso   1.00
C631   C     0.91326   0.88145   0.47347   0.00000  Uiso   1.00
C632   C     0.86881   0.83638   0.52638   0.00000  Uiso   1.00
C633   C     0.61954   0.65175   0.46001   0.00000  Uiso   1.00
C634   C     0.66547   0.86698   0.47854   0.00000  Uiso   1.00
C635   C     0.83522   0.63308   0.47732   0.00000  Uiso   1.00
C636   C     0.88249   0.58466   0.52253   0.00000  Uiso   1.00
C637   C     0.61680   0.91531   0.52158   0.00000  Uiso   1.00
C638   C     0.83674   0.86855   0.52653   0.00000  Uiso   1.00
C639   C     0.94070   0.69049   0.50010   0.00000  Uiso   1.00
C640   C     0.65146   0.61990   0.46002   0.00000  Uiso   1.00
C641   C     0.63046   0.59825   0.53999   0.00000  Uiso   1.00
C642   C     0.88119   0.91362   0.47362   0.00000  Uiso   1.00
C643   C     0.59285   0.84287   0.49978   0.00000  Uiso   1.00
C644   C     0.90715   0.65713   0.50022   0.00000  Uiso   1.00
C645   C     0.90705   0.84287   0.49987   0.00000  Uiso   1.00
C646   C     0.59290   0.65707   0.50004   0.00000  Uiso   1.00
C647   C     0.84285   0.59287   0.49978   0.00000  Uiso   1.00
C648   C     0.65715   0.90714   0.50022   0.00000  Uiso   1.00
C649   C     0.65710   0.59292   0.49996   0.00000  Uiso   1.00
C650   C     0.55947   0.80933   0.49990   0.00000  Uiso   1.00
C651   C     0.84295   0.90713   0.50013   0.00000  Uiso   1.00
C652   C     0.80944   0.94056   0.50006   0.00000  Uiso   1.00
C653   C     0.69057   0.55949   0.49996   0.00000  Uiso   1.00
C654   C     0.69052   0.94067   0.50010   0.00000  Uiso   1.00
C655   C     0.80930   0.55951   0.49990   0.00000  Uiso   1.00
C656   C     0.99504   0.71191   0.35841   0.00000  Uiso   1.00
Cl657  Cl    0.96550   0.60593   0.54916   0.00000  Uiso   1.00
Cl658  Cl    0.78451   0.64407   0.45084   0.00000  Uiso   1.00
Cl659  Cl    0.89250   0.53338   0.54938   0.00000  Uiso   1.00
Cl660  Cl    0.60570   0.96669   0.54660   0.00000  Uiso   1.00
Cl661  Cl    0.78790   0.85929   0.55827   0.00000  Uiso   1.00
Cl662  Cl    0.68456   0.61617   0.40905   0.00000  Uiso   1.00
Cl663  Cl    0.63486   0.56494   0.59117   0.00000  Uiso   1.00
Cl664  Cl    0.89015   0.96294   0.44211   0.00000  Uiso   1.00
Cl665  Cl    0.53313   0.89363   0.54702   0.00000  Uiso   1.00
Cl666  Cl    0.64430   0.78331   0.45341   0.00000  Uiso   1.00
Cl667  Cl    0.85750   0.71662   0.45061   0.00000  Uiso   1.00
Cl668  Cl    0.56544   0.63383   0.59095   0.00000  Uiso   1.00
Cl669  Cl    0.96210   0.89071   0.44172   0.00000  Uiso   1.00
Cl670  Cl    0.85986   0.78707   0.55790   0.00000  Uiso   1.00
Cl671  Cl    0.61514   0.68506   0.40883   0.00000  Uiso   1.00
Cl672  Cl    0.71687   0.85637   0.45298   0.00000  Uiso   1.00
Cu673  Cu    0.50000   0.75000   0.54689   0.00000  Uiso   1.00
Cu674  Cu    0.50000   0.75000   0.45311   0.00000  Uiso   1.00
Cu675  Cu    0.75000   0.50000   0.54689   0.00000  Uiso   1.00
Cu676  Cu    0.75000   0.50000   0.45311   0.00000  Uiso   1.00
H677   H     0.99118   0.68137   0.37729   0.00000  Uiso   1.00
H678   H     0.50858   0.81867   0.62272   0.00000  Uiso   1.00
H679   H     0.50854   0.81866   0.37636   0.00000  Uiso   1.00
H680   H     0.99024   0.68153   0.62373   0.00000  Uiso   1.00
H681   H     0.74142   0.93133   0.37728   0.00000  Uiso   1.00
H682   H     0.75883   0.56863   0.62271   0.00000  Uiso   1.00
H683   H     0.75977   0.56847   0.37627   0.00000  Uiso   1.00
H684   H     0.74146   0.93134   0.62364   0.00000  Uiso   1.00
N685   N     0.50000   0.75000   0.61736   0.00000  Uiso   1.00
N686   N     0.50000   0.75000   0.38264   0.00000  Uiso   1.00
N687   N     0.75000   0.50000   0.61736   0.00000  Uiso   1.00
N688   N     0.75000   0.50000   0.38264   0.00000  Uiso   1.00
O689   O     0.54509   0.70491   0.53958   0.00000  Uiso   1.00
O690   O     0.70492   0.54509   0.46042   0.00000  Uiso   1.00
O691   O     0.70492   0.54509   0.53958   0.00000  Uiso   1.00
O692   O     0.79509   0.95491   0.46042   0.00000  Uiso   1.00
O693   O     0.70492   0.95491   0.46042   0.00000  Uiso   1.00
O694   O     0.79509   0.54509   0.53958   0.00000  Uiso   1.00
O695   O     0.79509   0.54509   0.46042   0.00000  Uiso   1.00
O696   O     0.70492   0.95491   0.53958   0.00000  Uiso   1.00
O697   O     0.95492   0.79509   0.46042   0.00000  Uiso   1.00
O698   O     0.95492   0.79509   0.53958   0.00000  Uiso   1.00
O699   O     0.54509   0.70491   0.46042   0.00000  Uiso   1.00
O700   O     0.95492   0.70491   0.46042   0.00000  Uiso   1.00
O701   O     0.54509   0.79509   0.53958   0.00000  Uiso   1.00
O702   O     0.54509   0.79509   0.46042   0.00000  Uiso   1.00
O703   O     0.95492   0.70491   0.53958   0.00000  Uiso   1.00
O704   O     0.79509   0.95491   0.53958   0.00000  Uiso   1.00
C705   C     0.05943   0.19051   0.83338   0.00000  Uiso   1.00
C706   C     0.00482   0.28812   0.97494   0.00000  Uiso   1.00
C707   C     0.00477   0.28812   0.69122   0.00000  Uiso   1.00
C708   C     0.49478   0.21196   0.97548   0.00000  Uiso   1.00
C709   C     0.24518   0.46188   0.69173   0.00000  Uiso   1.00
C710   C     0.25496   0.03809   0.97492   0.00000  Uiso   1.00
C711   C     0.25523   0.03804   0.69118   0.00000  Uiso   1.00
C712   C     0.24523   0.46188   0.97545   0.00000  Uiso   1.00
C713   C     0.41479   0.11692   0.85602   0.00000  Uiso   1.00
C714   C     0.08453   0.38302   0.85479   0.00000  Uiso   1.00
C715   C     0.13320   0.33469   0.81175   0.00000  Uiso   1.00
C716   C     0.44056   0.30944   0.83328   0.00000  Uiso   1.00
C717   C     0.36751   0.16534   0.81080   0.00000  Uiso   1.00
C718   C     0.09854   0.13009   0.87332   0.00000  Uiso   1.00
C719   C     0.41326   0.38145   0.80681   0.00000  Uiso   1.00
C720   C     0.36881   0.33638   0.85971   0.00000  Uiso   1.00
C721   C     0.11954   0.15175   0.79334   0.00000  Uiso   1.00
C722   C     0.16547   0.36698   0.81187   0.00000  Uiso   1.00
C723   C     0.33522   0.13308   0.81065   0.00000  Uiso   1.00
C724   C     0.38249   0.08466   0.85587   0.00000  Uiso   1.00
C725   C     0.11680   0.41531   0.85492   0.00000  Uiso   1.00
C726   C     0.33674   0.36855   0.85986   0.00000  Uiso   1.00
C727   C     0.44070   0.19049   0.83343   0.00000  Uiso   1.00
C728   C     0.15146   0.11990   0.79335   0.00000  Uiso   1.00
C729   C     0.13046   0.09825   0.87332   0.00000  Uiso   1.00
C730   C     0.38119   0.41362   0.80696   0.00000  Uiso   1.00
C731   C     0.09285   0.34287   0.83311   0.00000  Uiso   1.00
C732   C     0.40715   0.15713   0.83356   0.00000  Uiso   1.00
C733   C     0.40705   0.34287   0.83320   0.00000  Uiso   1.00
C734   C     0.09290   0.15707   0.83338   0.00000  Uiso   1.00
C735   C     0.34285   0.09287   0.83311   0.00000  Uiso   1.00
C736   C     0.15715   0.40714   0.83355   0.00000  Uiso   1.00
C737   C     0.15710   0.09292   0.83329   0.00000  Uiso   1.00
C738   C     0.05947   0.30933   0.83323   0.00000  Uiso   1.00
C739   C     0.34295   0.40713   0.83347   0.00000  Uiso   1.00
C740   C     0.30944   0.44056   0.83339   0.00000  Uiso   1.00
C741   C     0.19057   0.05949   0.83329   0.00000  Uiso   1.00
C742   C     0.19052   0.44067   0.83343   0.00000  Uiso   1.00
C743   C     0.30930   0.05951   0.83323   0.00000  Uiso   1.00
C744   C     0.49504   0.21191   0.69174   0.00000  Uiso   1.00
Cl745  Cl    0.46550   0.10593   0.88249   0.00000  Uiso   1.00
Cl746  Cl    0.28451   0.14407   0.78417   0.00000  Uiso   1.00
Cl747  Cl    0.39250   0.03338   0.88271   0.00000  Uiso   1.00
Cl748  Cl    0.10570   0.46669   0.87993   0.00000  Uiso   1.00
Cl749  Cl    0.28790   0.35929   0.89160   0.00000  Uiso   1.00
Cl750  Cl    0.18456   0.11617   0.74238   0.00000  Uiso   1.00
Cl751  Cl    0.13486   0.06494   0.92450   0.00000  Uiso   1.00
Cl752  Cl    0.39015   0.46294   0.77544   0.00000  Uiso   1.00
Cl753  Cl    0.03313   0.39363   0.88036   0.00000  Uiso   1.00
Cl754  Cl    0.14430   0.28331   0.78674   0.00000  Uiso   1.00
Cl755  Cl    0.35750   0.21662   0.78395   0.00000  Uiso   1.00
Cl756  Cl    0.06544   0.13383   0.92429   0.00000  Uiso   1.00
Cl757  Cl    0.46210   0.39071   0.77506   0.00000  Uiso   1.00
Cl758  Cl    0.35986   0.28707   0.89123   0.00000  Uiso   1.00
Cl759  Cl    0.11514   0.18506   0.74217   0.00000  Uiso   1.00
Cl760  Cl    0.21687   0.35637   0.78631   0.00000  Uiso   1.00
Cu761  Cu    0.00000   0.25000   0.88022   0.00000  Uiso   1.00
Cu762  Cu    0.00000   0.25000   0.78645   0.00000  Uiso   1.00
Cu763  Cu    0.25000  -0.00000   0.88022   0.00000  Uiso   1.00
Cu764  Cu    0.25000  -0.00000   0.78645   0.00000  Uiso   1.00
H765   H     0.49118   0.18137   0.71063   0.00000  Uiso   1.00
H766   H     0.00858   0.31867   0.95606   0.00000  Uiso   1.00
H767   H     0.00854   0.31866   0.70970   0.00000  Uiso   1.00
H768   H     0.49024   0.18153   0.95706   0.00000  Uiso   1.00
H769   H     0.24142   0.43133   0.71061   0.00000  Uiso   1.00
H770   H     0.25883   0.06863   0.95604   0.00000  Uiso   1.00
H771   H     0.25977   0.06847   0.70961   0.00000  Uiso   1.00
H772   H     0.24146   0.43134   0.95697   0.00000  Uiso   1.00
N773   N     0.00000   0.25000   0.95069   0.00000  Uiso   1.00
N774   N     0.00000   0.25000   0.71598   0.00000  Uiso   1.00
N775   N     0.25000  -0.00000   0.95069   0.00000  Uiso   1.00
N776   N     0.25000  -0.00000   0.71598   0.00000  Uiso   1.00
O777   O     0.04509   0.20491   0.87291   0.00000  Uiso   1.00
O778   O     0.20492   0.04509   0.79375   0.00000  Uiso   1.00
O779   O     0.20492   0.04509   0.87291   0.00000  Uiso   1.00
O780   O     0.29509   0.45491   0.79375   0.00000  Uiso   1.00
O781   O     0.20492   0.45491   0.79375   0.00000  Uiso   1.00
O782   O     0.29509   0.04509   0.87291   0.00000  Uiso   1.00
O783   O     0.29509   0.04509   0.79375   0.00000  Uiso   1.00
O784   O     0.20492   0.45491   0.87291   0.00000  Uiso   1.00
O785   O     0.45492   0.29509   0.79375   0.00000  Uiso   1.00
O786   O     0.45492   0.29509   0.87291   0.00000  Uiso   1.00
O787   O     0.04509   0.20491   0.79375   0.00000  Uiso   1.00
O788   O     0.45492   0.20491   0.79375   0.00000  Uiso   1.00
O789   O     0.04509   0.29509   0.87291   0.00000  Uiso   1.00
O790   O     0.04509   0.29509   0.79375   0.00000  Uiso   1.00
O791   O     0.45492   0.20491   0.87291   0.00000  Uiso   1.00
O792   O     0.29509   0.45491   0.87291   0.00000  Uiso   1.00
C793   C     0.55943   0.19051   0.83338   0.00000  Uiso   1.00
C794   C     0.50482   0.28812   0.97494   0.00000  Uiso   1.00
C795   C     0.50477   0.28812   0.69122   0.00000  Uiso   1.00
C796   C     0.99478   0.21196   0.97548   0.00000  Uiso   1.00
C797   C     0.74518   0.46188   0.69173   0.00000  Uiso   1.00
C798   C     0.75496   0.03809   0.97492   0.00000  Uiso   1.00
C799   C     0.75523   0.03804   0.69118   0.00000  Uiso   1.00
C800   C     0.74523   0.46188   0.97545   0.00000  Uiso   1.00
C801   C     0.91479   0.11692   0.85602   0.00000  Uiso   1.00
C802   C     0.58453   0.38302   0.85479   0.00000  Uiso   1.00
C803   C     0.63320   0.33469   0.81175   0.00000  Uiso   1.00
C804   C     0.94056   0.30944   0.83328   0.00000  Uiso   1.00
C805   C     0.86751   0.16534   0.81080   0.00000  Uiso   1.00
C806   C     0.59854   0.13009   0.87332   0.00000  Uiso   1.00
C807   C     0.91326   0.38145   0.80681   0.00000  Uiso   1.00
C808   C     0.86881   0.33638   0.85971   0.00000  Uiso   1.00
C809   C     0.61954   0.15175   0.79334   0.00000  Uiso   1.00
C810   C     0.66547   0.36698   0.81187   0.00000  Uiso   1.00
C811   C     0.83522   0.13308   0.81065   0.00000  Uiso   1.00
C812   C     0.88249   0.08466   0.85587   0.00000  Uiso   1.00
C813   C     0.61680   0.41531   0.85492   0.00000  Uiso   1.00
C814   C     0.83674   0.36855   0.85986   0.00000  Uiso   1.00
C815   C     0.94070   0.19049   0.83343   0.00000  Uiso   1.00
C816   C     0.65146   0.11990   0.79335   0.00000  Uiso   1.00
C817   C     0.63046   0.09825   0.87332   0.00000  Uiso   1.00
C818   C     0.88119   0.41362   0.80696   0.00000  Uiso   1.00
C819   C     0.59285   0.34287   0.83311   0.00000  Uiso   1.00
C820   C     0.90715   0.15713   0.83356   0.00000  Uiso   1.00
C821   C     0.90705   0.34287   0.83320   0.00000  Uiso   1.00
C822   C     0.59290   0.15707   0.83338   0.00000  Uiso   1.00
C823   C     0.84285   0.09287   0.83311   0.00000  Uiso   1.00
C824   C     0.65715   0.40714   0.83355   0.00000  Uiso   1.00
C825   C     0.65710   0.09292   0.83329   0.00000  Uiso   1.00
C826   C     0.55947   0.30933   0.83323   0.00000  Uiso   1.00
C827   C     0.84295   0.40713   0.83347   0.00000  Uiso   1.00
C828   C     0.80944   0.44056   0.83339   0.00000  Uiso   1.00
C829   C     0.69057   0.05949   0.83329   0.00000  Uiso   1.00
C830   C     0.69052   0.44067   0.83343   0.00000  Uiso   1.00
C831   C     0.80930   0.05951   0.83323   0.00000  Uiso   1.00
C832   C     0.99504   0.21191   0.69174   0.00000  Uiso   1.00
Cl833  Cl    0.96550   0.10593   0.88249   0.00000  Uiso   1.00
Cl834  Cl    0.78451   0.14407   0.78417   0.00000  Uiso   1.00
Cl835  Cl    0.89250   0.03338   0.88271   0.00000  Uiso   1.00
Cl836  Cl    0.60570   0.46669   0.87993   0.00000  Uiso   1.00
Cl837  Cl    0.78790   0.35929   0.89160   0.00000  Uiso   1.00
Cl838  Cl    0.68456   0.11617   0.74238   0.00000  Uiso   1.00
Cl839  Cl    0.63486   0.06494   0.92450   0.00000  Uiso   1.00
Cl840  Cl    0.89015   0.46294   0.77544   0.00000  Uiso   1.00
Cl841  Cl    0.53313   0.39363   0.88036   0.00000  Uiso   1.00
Cl842  Cl    0.64430   0.28331   0.78674   0.00000  Uiso   1.00
Cl843  Cl    0.85750   0.21662   0.78395   0.00000  Uiso   1.00
Cl844  Cl    0.56544   0.13383   0.92429   0.00000  Uiso   1.00
Cl845  Cl    0.96210   0.39071   0.77506   0.00000  Uiso   1.00
Cl846  Cl    0.85986   0.28707   0.89123   0.00000  Uiso   1.00
Cl847  Cl    0.61514   0.18506   0.74217   0.00000  Uiso   1.00
Cl848  Cl    0.71687   0.35637   0.78631   0.00000  Uiso   1.00
Cu849  Cu    0.50000   0.25000   0.88022   0.00000  Uiso   1.00
Cu850  Cu    0.50000   0.25000   0.78645   0.00000  Uiso   1.00
Cu851  Cu    0.75000  -0.00000   0.88022   0.00000  Uiso   1.00
Cu852  Cu    0.75000  -0.00000   0.78645   0.00000  Uiso   1.00
H853   H     0.99118   0.18137   0.71063   0.00000  Uiso   1.00
H854   H     0.50858   0.31867   0.95606   0.00000  Uiso   1.00
H855   H     0.50854   0.31866   0.70970   0.00000  Uiso   1.00
H856   H     0.99024   0.18153   0.95706   0.00000  Uiso   1.00
H857   H     0.74142   0.43133   0.71061   0.00000  Uiso   1.00
H858   H     0.75883   0.06863   0.95604   0.00000  Uiso   1.00
H859   H     0.75977   0.06847   0.70961   0.00000  Uiso   1.00
H860   H     0.74146   0.43134   0.95697   0.00000  Uiso   1.00
N861   N     0.50000   0.25000   0.95069   0.00000  Uiso   1.00
N862   N     0.50000   0.25000   0.71598   0.00000  Uiso   1.00
N863   N     0.75000  -0.00000   0.95069   0.00000  Uiso   1.00
N864   N     0.75000  -0.00000   0.71598   0.00000  Uiso   1.00
O865   O     0.54509   0.20491   0.87291   0.00000  Uiso   1.00
O866   O     0.70492   0.04509   0.79375   0.00000  Uiso   1.00
O867   O     0.70492   0.04509   0.87291   0.00000  Uiso   1.00
O868   O     0.79509   0.45491   0.79375   0.00000  Uiso   1.00
O869   O     0.70492   0.45491   0.79375   0.00000  Uiso   1.00
O870   O     0.79509   0.04509   0.87291   0.00000  Uiso   1.00
O871   O     0.79509   0.04509   0.79375   0.00000  Uiso   1.00
O872   O     0.70492   0.45491   0.87291   0.00000  Uiso   1.00
O873   O     0.95492   0.29509   0.79375   0.00000  Uiso   1.00
O874   O     0.95492   0.29509   0.87291   0.00000  Uiso   1.00
O875   O     0.54509   0.20491   0.79375   0.00000  Uiso   1.00
O876   O     0.95492   0.20491   0.79375   0.00000  Uiso   1.00
O877   O     0.54509   0.29509   0.87291   0.00000  Uiso   1.00
O878   O     0.54509   0.29509   0.79375   0.00000  Uiso   1.00
O879   O     0.95492   0.20491   0.87291   0.00000  Uiso   1.00
O880   O     0.79509   0.45491   0.87291   0.00000  Uiso   1.00
C881   C     0.05943   0.69051   0.83338   0.00000  Uiso   1.00
C882   C     0.00482   0.78812   0.97494   0.00000  Uiso   1.00
C883   C     0.00477   0.78812   0.69122   0.00000  Uiso   1.00
C884   C     0.49478   0.71196   0.97548   0.00000  Uiso   1.00
C885   C     0.24518   0.96188   0.69173   0.00000  Uiso   1.00
C886   C     0.25496   0.53809   0.97492   0.00000  Uiso   1.00
C887   C     0.25523   0.53804   0.69118   0.00000  Uiso   1.00
C888   C     0.24523   0.96188   0.97545   0.00000  Uiso   1.00
C889   C     0.41479   0.61692   0.85602   0.00000  Uiso   1.00
C890   C     0.08453   0.88302   0.85479   0.00000  Uiso   1.00
C891   C     0.13320   0.83469   0.81175   0.00000  Uiso   1.00
C892   C     0.44056   0.80944   0.83328   0.00000  Uiso   1.00
C893   C     0.36751   0.66534   0.81080   0.00000  Uiso   1.00
C894   C     0.09854   0.63009   0.87332   0.00000  Uiso   1.00
C895   C     0.41326   0.88145   0.80681   0.00000  Uiso   1.00
C896   C     0.36881   0.83638   0.85971   0.00000  Uiso   1.00
C897   C     0.11954   0.65175   0.79334   0.00000  Uiso   1.00
C898   C     0.16547   0.86698   0.81187   0.00000  Uiso   1.00
C899   C     0.33522   0.63308   0.81065   0.00000  Uiso   1.00
C900   C     0.38249   0.58466   0.85587   0.00000  Uiso   1.00
C901   C     0.11680   0.91531   0.85492   0.00000  Uiso   1.00
C902   C     0.33674   0.86855   0.85986   0.00000  Uiso   1.00
C903   C     0.44070   0.69049   0.83343   0.00000  Uiso   1.00
C904   C     0.15146   0.61990   0.79335   0.00000  Uiso   1.00
C905   C     0.13046   0.59825   0.87332   0.00000  Uiso   1.00
C906   C     0.38119   0.91362   0.80696   0.00000  Uiso   1.00
C907   C     0.09285   0.84287   0.83311   0.00000  Uiso   1.00
C908   C     0.40715   0.65713   0.83356   0.00000  Uiso   1.00
C909   C     0.40705   0.84287   0.83320   0.00000  Uiso   1.00
C910   C     0.09290   0.65707   0.83338   0.00000  Uiso   1.00
C911   C     0.34285   0.59287   0.83311   0.00000  Uiso   1.00
C912   C     0.15715   0.90714   0.83355   0.00000  Uiso   1.00
C913   C     0.15710   0.59292   0.83329   0.00000  Uiso   1.00
C914   C     0.05947   0.80933   0.83323   0.00000  Uiso   1.00
C915   C     0.34295   0.90713   0.83347   0.00000  Uiso   1.00
C916   C     0.30944   0.94056   0.83339   0.00000  Uiso   1.00
C917   C     0.19057   0.55949   0.83329   0.00000  Uiso   1.00
C918   C     0.19052   0.94067   0.83343   0.00000  Uiso   1.00
C919   C     0.30930   0.55951   0.83323   0.00000  Uiso   1.00
C920   C     0.49504   0.71191   0.69174   0.00000  Uiso   1.00
Cl921  Cl    0.46550   0.60593   0.88249   0.00000  Uiso   1.00
Cl922  Cl    0.28451   0.64407   0.78417   0.00000  Uiso   1.00
Cl923  Cl    0.39250   0.53338   0.88271   0.00000  Uiso   1.00
Cl924  Cl    0.10570   0.96669   0.87993   0.00000  Uiso   1.00
Cl925  Cl    0.28790   0.85929   0.89160   0.00000  Uiso   1.00
Cl926  Cl    0.18456   0.61617   0.74238   0.00000  Uiso   1.00
Cl927  Cl    0.13486   0.56494   0.92450   0.00000  Uiso   1.00
Cl928  Cl    0.39015   0.96294   0.77544   0.00000  Uiso   1.00
Cl929  Cl    0.03313   0.89363   0.88036   0.00000  Uiso   1.00
Cl930  Cl    0.14430   0.78331   0.78674   0.00000  Uiso   1.00
Cl931  Cl    0.35750   0.71662   0.78395   0.00000  Uiso   1.00
Cl932  Cl    0.06544   0.63383   0.92429   0.00000  Uiso   1.00
Cl933  Cl    0.46210   0.89071   0.77506   0.00000  Uiso   1.00
Cl934  Cl    0.35986   0.78707   0.89123   0.00000  Uiso   1.00
Cl935  Cl    0.11514   0.68506   0.74217   0.00000  Uiso   1.00
Cl936  Cl    0.21687   0.85637   0.78631   0.00000  Uiso   1.00
Cu937  Cu    0.00000   0.75000   0.88022   0.00000  Uiso   1.00
Cu938  Cu    0.00000   0.75000   0.78645   0.00000  Uiso   1.00
Cu939  Cu    0.25000   0.50000   0.88022   0.00000  Uiso   1.00
Cu940  Cu    0.25000   0.50000   0.78645   0.00000  Uiso   1.00
H941   H     0.49118   0.68137   0.71063   0.00000  Uiso   1.00
H942   H     0.00858   0.81867   0.95606   0.00000  Uiso   1.00
H943   H     0.00854   0.81866   0.70970   0.00000  Uiso   1.00
H944   H     0.49024   0.68153   0.95706   0.00000  Uiso   1.00
H945   H     0.24142   0.93133   0.71061   0.00000  Uiso   1.00
H946   H     0.25883   0.56863   0.95604   0.00000  Uiso   1.00
H947   H     0.25977   0.56847   0.70961   0.00000  Uiso   1.00
H948   H     0.24146   0.93134   0.95697   0.00000  Uiso   1.00
N949   N     0.00000   0.75000   0.95069   0.00000  Uiso   1.00
N950   N     0.00000   0.75000   0.71598   0.00000  Uiso   1.00
N951   N     0.25000   0.50000   0.95069   0.00000  Uiso   1.00
N952   N     0.25000   0.50000   0.71598   0.00000  Uiso   1.00
O953   O     0.04509   0.70491   0.87291   0.00000  Uiso   1.00
O954   O     0.20492   0.54509   0.79375   0.00000  Uiso   1.00
O955   O     0.20492   0.54509   0.87291   0.00000  Uiso   1.00
O956   O     0.29509   0.95491   0.79375   0.00000  Uiso   1.00
O957   O     0.20492   0.95491   0.79375   0.00000  Uiso   1.00
O958   O     0.29509   0.54509   0.87291   0.00000  Uiso   1.00
O959   O     0.29509   0.54509   0.79375   0.00000  Uiso   1.00
O960   O     0.20492   0.95491   0.87291   0.00000  Uiso   1.00
O961   O     0.45492   0.79509   0.79375   0.00000  Uiso   1.00
O962   O     0.45492   0.79509   0.87291   0.00000  Uiso   1.00
O963   O     0.04509   0.70491   0.79375   0.00000  Uiso   1.00
O964   O     0.45492   0.70491   0.79375   0.00000  Uiso   1.00
O965   O     0.04509   0.79509   0.87291   0.00000  Uiso   1.00
O966   O     0.04509   0.79509   0.79375   0.00000  Uiso   1.00
O967   O     0.45492   0.70491   0.87291   0.00000  Uiso   1.00
O968   O     0.29509   0.95491   0.87291   0.00000  Uiso   1.00
C969   C     0.55943   0.69051   0.83338   0.00000  Uiso   1.00
C970   C     0.50482   0.78812   0.97494   0.00000  Uiso   1.00
C971   C     0.50477   0.78812   0.69122   0.00000  Uiso   1.00
C972   C     0.99478   0.71196   0.97548   0.00000  Uiso   1.00
C973   C     0.74518   0.96188   0.69173   0.00000  Uiso   1.00
C974   C     0.75496   0.53809   0.97492   0.00000  Uiso   1.00
C975   C     0.75523   0.53804   0.69118   0.00000  Uiso   1.00
C976   C     0.74523   0.96188   0.97545   0.00000  Uiso   1.00
C977   C     0.91479   0.61692   0.85602   0.00000  Uiso   1.00
C978   C     0.58453   0.88302   0.85479   0.00000  Uiso   1.00
C979   C     0.63320   0.83469   0.81175   0.00000  Uiso   1.00
C980   C     0.94056   0.80944   0.83328   0.00000  Uiso   1.00
C981   C     0.86751   0.66534   0.81080   0.00000  Uiso   1.00
C982   C     0.59854   0.63009   0.87332   0.00000  Uiso   1.00
C983   C     0.91326   0.88145   0.80681   0.00000  Uiso   1.00
C984   C     0.86881   0.83638   0.85971   0.00000  Uiso   1.00
C985   C     0.61954   0.65175   0.79334   0.00000  Uiso   1.00
C986   C     0.66547   0.86698   0.81187   0.00000  Uiso   1.00
C987   C     0.83522   0.63308   0.81065   0.00000  Uiso   1.00
C988   C     0.88249   0.58466   0.85587   0.00000  Uiso   1.00
C989   C     0.61680   0.91531   0.85492   0.00000  Uiso   1.00
C990   C     0.83674   0.86855   0.85986   0.00000  Uiso   1.00
C991   C     0.94070   0.69049   0.83343   0.00000  Uiso   1.00
C992   C     0.65146   0.61990   0.79335   0.00000  Uiso   1.00
C993   C     0.63046   0.59825   0.87332   0.00000  Uiso   1.00
C994   C     0.88119   0.91362   0.80696   0.00000  Uiso   1.00
C995   C     0.59285   0.84287   0.83311   0.00000  Uiso   1.00
C996   C     0.90715   0.65713   0.83356   0.00000  Uiso   1.00
C997   C     0.90705   0.84287   0.83320   0.00000  Uiso   1.00
C998   C     0.59290   0.65707   0.83338   0.00000  Uiso   1.00
C999   C     0.84285   0.59287   0.83311   0.00000  Uiso   1.00
C1000  C     0.65715   0.90714   0.83355   0.00000  Uiso   1.00
C1001  C     0.65710   0.59292   0.83329   0.00000  Uiso   1.00
C1002  C     0.55947   0.80933   0.83323   0.00000  Uiso   1.00
C1003  C     0.84295   0.90713   0.83347   0.00000  Uiso   1.00
C1004  C     0.80944   0.94056   0.83339   0.00000  Uiso   1.00
C1005  C     0.69057   0.55949   0.83329   0.00000  Uiso   1.00
C1006  C     0.69052   0.94067   0.83343   0.00000  Uiso   1.00
C1007  C     0.80930   0.55951   0.83323   0.00000  Uiso   1.00
C1008  C     0.99504   0.71191   0.69174   0.00000  Uiso   1.00
Cl1009 Cl    0.96550   0.60593   0.88249   0.00000  Uiso   1.00
Cl1010 Cl    0.78451   0.64407   0.78417   0.00000  Uiso   1.00
Cl1011 Cl    0.89250   0.53338   0.88271   0.00000  Uiso   1.00
Cl1012 Cl    0.60570   0.96669   0.87993   0.00000  Uiso   1.00
Cl1013 Cl    0.78790   0.85929   0.89160   0.00000  Uiso   1.00
Cl1014 Cl    0.68456   0.61617   0.74238   0.00000  Uiso   1.00
Cl1015 Cl    0.63486   0.56494   0.92450   0.00000  Uiso   1.00
Cl1016 Cl    0.89015   0.96294   0.77544   0.00000  Uiso   1.00
Cl1017 Cl    0.53313   0.89363   0.88036   0.00000  Uiso   1.00
Cl1018 Cl    0.64430   0.78331   0.78674   0.00000  Uiso   1.00
Cl1019 Cl    0.85750   0.71662   0.78395   0.00000  Uiso   1.00
Cl1020 Cl    0.56544   0.63383   0.92429   0.00000  Uiso   1.00
Cl1021 Cl    0.96210   0.89071   0.77506   0.00000  Uiso   1.00
Cl1022 Cl    0.85986   0.78707   0.89123   0.00000  Uiso   1.00
Cl1023 Cl    0.61514   0.68506   0.74217   0.00000  Uiso   1.00
Cl1024 Cl    0.71687   0.85637   0.78631   0.00000  Uiso   1.00
Cu1025 Cu    0.50000   0.75000   0.88022   0.00000  Uiso   1.00
Cu1026 Cu    0.50000   0.75000   0.78645   0.00000  Uiso   1.00
Cu1027 Cu    0.75000   0.50000   0.88022   0.00000  Uiso   1.00
Cu1028 Cu    0.75000   0.50000   0.78645   0.00000  Uiso   1.00
H1029  H     0.99118   0.68137   0.71063   0.00000  Uiso   1.00
H1030  H     0.50858   0.81867   0.95606   0.00000  Uiso   1.00
H1031  H     0.50854   0.81866   0.70970   0.00000  Uiso   1.00
H1032  H     0.99024   0.68153   0.95706   0.00000  Uiso   1.00
H1033  H     0.74142   0.93133   0.71061   0.00000  Uiso   1.00
H1034  H     0.75883   0.56863   0.95604   0.00000  Uiso   1.00
H1035  H     0.75977   0.56847   0.70961   0.00000  Uiso   1.00
H1036  H     0.74146   0.93134   0.95697   0.00000  Uiso   1.00
N1037  N     0.50000   0.75000   0.95069   0.00000  Uiso   1.00
N1038  N     0.50000   0.75000   0.71598   0.00000  Uiso   1.00
N1039  N     0.75000   0.50000   0.95069   0.00000  Uiso   1.00
N1040  N     0.75000   0.50000   0.71598   0.00000  Uiso   1.00
O1041  O     0.54509   0.70491   0.87291   0.00000  Uiso   1.00
O1042  O     0.70492   0.54509   0.79375   0.00000  Uiso   1.00
O1043  O     0.70492   0.54509   0.87291   0.00000  Uiso   1.00
O1044  O     0.79509   0.95491   0.79375   0.00000  Uiso   1.00
O1045  O     0.70492   0.95491   0.79375   0.00000  Uiso   1.00
O1046  O     0.79509   0.54509   0.87291   0.00000  Uiso   1.00
O1047  O     0.79509   0.54509   0.79375   0.00000  Uiso   1.00
O1048  O     0.70492   0.95491   0.87291   0.00000  Uiso   1.00
O1049  O     0.95492   0.79509   0.79375   0.00000  Uiso   1.00
O1050  O     0.95492   0.79509   0.87291   0.00000  Uiso   1.00
O1051  O     0.54509   0.70491   0.79375   0.00000  Uiso   1.00
O1052  O     0.95492   0.70491   0.79375   0.00000  Uiso   1.00
O1053  O     0.54509   0.79509   0.87291   0.00000  Uiso   1.00
O1054  O     0.54509   0.79509   0.79375   0.00000  Uiso   1.00
O1055  O     0.95492   0.70491   0.87291   0.00000  Uiso   1.00
O1056  O     0.79509   0.95491   0.87291   0.00000  Uiso   1.00
loop_
_geom_bond_atom_site_label_1
_geom_bond_atom_site_label_2
_geom_bond_distance
_geom_bond_site_symmetry_2
_ccdc_geom_bond_type
C1     O83     1.291   .     A
C1     O73     1.292   .     A
C1     C30     1.456   .     S
C2     N69     1.367   .     A
C2     H62     1.081   .     S
C2     C355    1.416   .     S
C3     N70     1.367   .     A
C3     H63     1.081   .     S
C3     C706    1.416   1_554 S
C4     H64     1.080   .     S
C4     C392    1.416   .     S
C4     N157    1.367   .     S
C5     H65     1.081   .     S
C5     C712    1.416   1_554 S
C5     N248    1.367   .     S
C6     N71     1.367   .     A
C6     H66     1.082   .     S
C6     C359    1.416   .     S
C7     N72     1.367   .     A
C7     H67     1.080   .     S
C7     C710    1.416   1_554 S
C8     H68     1.081   .     S
C8     C357    1.416   .     S
C8     N247    1.367   .     S
C9     C20     1.394   .     A
C9     Cl41    1.766   .     S
C9     C28     1.405   .     A
C10    C27     1.404   .     A
C10    C21     1.394   .     A
C10    Cl49    1.771   .     S
C11    C18     1.394   .     A
C11    C27     1.405   .     A
C11    Cl50    1.766   .     S
C12    C29     1.457   .     S
C12    O82     1.291   .     A
C12    O81     1.291   .     A
C13    Cl51    1.772   .     S
C13    C28     1.405   .     A
C13    C19     1.394   .     A
C14    Cl52    1.778   .     S
C14    C30     1.415   .     A
C14    C25     1.388   .     A
C15    Cl53    1.771   .     S
C15    C29     1.408   .     A
C15    C26     1.398   .     A
C16    C29     1.408   .     A
C16    C22     1.398   .     A
C16    Cl54    1.771   .     S
C17    C30     1.415   .     A
C17    C24     1.388   .     A
C17    Cl55    1.782   .     S
C18    Cl56    1.771   .     S
C18    C32     1.404   .     A
C19    C31     1.405   .     A
C19    Cl42    1.766   .     S
C20    Cl43    1.772   .     S
C20    C31     1.405   .     A
C21    C32     1.405   .     A
C21    Cl44    1.766   .     S
C22    C35     1.408   .     A
C22    Cl45    1.771   .     S
C23    O87     1.288   .     A
C23    O84     1.287   .     A
C23    C28     1.444   .     S
C24    C33     1.415   .     A
C24    Cl46    1.778   .     S
C25    Cl47    1.782   .     S
C25    C33     1.415   .     A
C26    Cl48    1.771   .     S
C26    C35     1.408   .     A
C27    C34     1.444   .     S
C31    C39     1.444   .     S
C32    C38     1.444   .     S
C33    C37     1.456   .     S
C34    O86     1.288   .     A
C34    O85     1.287   .     A
C35    C36     1.457   .     S
C36    O88     1.291   .     A
C36    O76     1.291   .     A
C37    O74     1.292   .     A
C37    O75     1.291   .     A
C38    O77     1.287   .     A
C38    O80     1.288   .     A
C39    O78     1.287   .     A
C39    O79     1.288   .     A
C40    H61     1.082   .     S
C40    C708    1.416   1_554 S
C40    N158    1.367   .     S
Cu57   O73     1.975   .     S
Cu57   Cu58    2.677   .     S
Cu57   O85     1.957   .     S
Cu57   N69     2.012   .     S
Cu57   O170    1.973   1_455 S
Cu57   O175    1.959   1_455 S
Cu58   O86     1.959   .     S
Cu58   N70     2.012   .     S
Cu58   O83     1.973   .     S
Cu58   O169    1.975   1_455 S
Cu58   O172    1.957   1_455 S
Cu59   Cu60    2.677   .     S
Cu59   O78     1.957   .     S
Cu59   O75     1.973   .     S
Cu59   N71     2.012   .     S
Cu59   O256    1.959   1_545 S
Cu59   O264    1.975   1_545 S
Cu60   O79     1.959   .     S
Cu60   N72     2.012   .     S
Cu60   O74     1.975   .     S
Cu60   O252    1.973   1_545 S
Cu60   O253    1.957   1_545 S
N69    C92     1.367   1_455 S
N70    C128    1.367   1_455 S
N71    C184    1.367   1_545 S
N72    C181    1.367   1_545 S
O76    Cu236   1.973   .     S
O77    Cu236   1.957   .     S
O80    Cu235   1.959   .     S
O81    Cu146   1.975   .     S
O82    Cu145   1.973   .     S
O84    Cu146   1.957   .     S
O87    Cu145   1.959   .     S
O88    Cu235   1.975   .     S
C89    O171    1.291   .     A
C89    O161    1.292   .     A
C89    C118    1.456   .     S
C90    N157    1.367   .     A
C90    H150    1.081   .     S
C90    C443    1.416   .     S
C91    N158    1.367   .     A
C91    H151    1.081   .     S
C91    C794    1.416   1_554 S
C92    H152    1.080   .     S
C92    C480    1.416   .     S
C92    N69     1.367   1_655 S
C93    H153    1.081   .     S
C93    C800    1.416   1_554 S
C93    N336    1.367   .     S
C94    N159    1.367   .     A
C94    H154    1.082   .     S
C94    C447    1.416   .     S
C95    N160    1.367   .     A
C95    H155    1.080   .     S
C95    C798    1.416   1_554 S
C96    H156    1.081   .     S
C96    C445    1.416   .     S
C96    N335    1.367   .     S
C97    C108    1.394   .     A
C97    Cl129   1.766   .     S
C97    C116    1.405   .     A
C98    C115    1.404   .     A
C98    C109    1.394   .     A
C98    Cl137   1.771   .     S
C99    C106    1.394   .     A
C99    C115    1.405   .     A
C99    Cl138   1.766   .     S
C100   C117    1.457   .     S
C100   O170    1.291   .     A
C100   O169    1.291   .     A
C101   Cl139   1.772   .     S
C101   C116    1.405   .     A
C101   C107    1.394   .     A
C102   Cl140   1.778   .     S
C102   C118    1.415   .     A
C102   C113    1.388   .     A
C103   Cl141   1.771   .     S
C103   C117    1.408   .     A
C103   C114    1.398   .     A
C104   C117    1.408   .     A
C104   C110    1.398   .     A
C104   Cl142   1.771   .     S
C105   C118    1.415   .     A
C105   C112    1.388   .     A
C105   Cl143   1.782   .     S
C106   Cl144   1.771   .     S
C106   C120    1.404   .     A
C107   C119    1.405   .     A
C107   Cl130   1.766   .     S
C108   Cl131   1.772   .     S
C108   C119    1.405   .     A
C109   C120    1.405   .     A
C109   Cl132   1.766   .     S
C110   C123    1.408   .     A
C110   Cl133   1.771   .     S
C111   O175    1.288   .     A
C111   O172    1.287   .     A
C111   C116    1.444   .     S
C112   C121    1.415   .     A
C112   Cl134   1.778   .     S
C113   Cl135   1.782   .     S
C113   C121    1.415   .     A
C114   Cl136   1.771   .     S
C114   C123    1.408   .     A
C115   C122    1.444   .     S
C119   C127    1.444   .     S
C120   C126    1.444   .     S
C121   C125    1.456   .     S
C122   O174    1.288   .     A
C122   O173    1.287   .     A
C123   C124    1.457   .     S
C124   O176    1.291   .     A
C124   O164    1.291   .     A
C125   O162    1.292   .     A
C125   O163    1.291   .     A
C126   O165    1.287   .     A
C126   O168    1.288   .     A
C127   O166    1.287   .     A
C127   O167    1.288   .     A
C128   H149    1.082   .     S
C128   C796    1.416   1_554 S
C128   N70     1.367   1_655 S
Cu145  O161    1.975   .     S
Cu145  Cu146   2.677   .     S
Cu145  O173    1.957   .     S
Cu145  N157    2.012   .     S
Cu146  O174    1.959   .     S
Cu146  N158    2.012   .     S
Cu146  O171    1.973   .     S
Cu147  Cu148   2.677   .     S
Cu147  O166    1.957   .     S
Cu147  O163    1.973   .     S
Cu147  N159    2.012   .     S
Cu147  O344    1.959   1_545 S
Cu147  O352    1.975   1_545 S
Cu148  O167    1.959   .     S
Cu148  N160    2.012   .     S
Cu148  O162    1.975   .     S
Cu148  O340    1.973   1_545 S
Cu148  O341    1.957   1_545 S
N159   C272    1.367   1_545 S
N160   C269    1.367   1_545 S
O164   Cu324   1.973   .     S
O165   Cu324   1.957   .     S
O168   Cu323   1.959   .     S
O169   Cu58    1.975   1_655 S
O170   Cu57    1.973   1_655 S
O172   Cu58    1.957   1_655 S
O175   Cu57    1.959   1_655 S
O176   Cu323   1.975   .     S
C177   O259    1.291   .     A
C177   O249    1.292   .     A
C177   C206    1.456   .     S
C178   N245    1.367   .     A
C178   H238    1.081   .     S
C178   C531    1.416   .     S
C179   N246    1.367   .     A
C179   H239    1.081   .     S
C179   C882    1.416   1_554 S
C180   H240    1.080   .     S
C180   C568    1.416   .     S
C180   N333    1.367   .     S
C181   H241    1.081   .     S
C181   C888    1.416   1_554 S
C181   N72     1.367   1_565 S
C182   N247    1.367   .     A
C182   H242    1.082   .     S
C182   C535    1.416   .     S
C183   N248    1.367   .     A
C183   H243    1.080   .     S
C183   C886    1.416   1_554 S
C184   H244    1.081   .     S
C184   C533    1.416   .     S
C184   N71     1.367   1_565 S
C185   C196    1.394   .     A
C185   Cl217   1.766   .     S
C185   C204    1.405   .     A
C186   C203    1.404   .     A
C186   C197    1.394   .     A
C186   Cl225   1.771   .     S
C187   C194    1.394   .     A
C187   C203    1.405   .     A
C187   Cl226   1.766   .     S
C188   C205    1.457   .     S
C188   O258    1.291   .     A
C188   O257    1.291   .     A
C189   Cl227   1.772   .     S
C189   C204    1.405   .     A
C189   C195    1.394   .     A
C190   Cl228   1.778   .     S
C190   C206    1.415   .     A
C190   C201    1.388   .     A
C191   Cl229   1.771   .     S
C191   C205    1.408   .     A
C191   C202    1.398   .     A
C192   C205    1.408   .     A
C192   C198    1.398   .     A
C192   Cl230   1.771   .     S
C193   C206    1.415   .     A
C193   C200    1.388   .     A
C193   Cl231   1.782   .     S
C194   Cl232   1.771   .     S
C194   C208    1.404   .     A
C195   C207    1.405   .     A
C195   Cl218   1.766   .     S
C196   Cl219   1.772   .     S
C196   C207    1.405   .     A
C197   C208    1.405   .     A
C197   Cl220   1.766   .     S
C198   C211    1.408   .     A
C198   Cl221   1.771   .     S
C199   O263    1.288   .     A
C199   O260    1.287   .     A
C199   C204    1.444   .     S
C200   C209    1.415   .     A
C200   Cl222   1.778   .     S
C201   Cl223   1.782   .     S
C201   C209    1.415   .     A
C202   Cl224   1.771   .     S
C202   C211    1.408   .     A
C203   C210    1.444   .     S
C207   C215    1.444   .     S
C208   C214    1.444   .     S
C209   C213    1.456   .     S
C210   O262    1.288   .     A
C210   O261    1.287   .     A
C211   C212    1.457   .     S
C212   O264    1.291   .     A
C212   O252    1.291   .     A
C213   O250    1.292   .     A
C213   O251    1.291   .     A
C214   O253    1.287   .     A
C214   O256    1.288   .     A
C215   O254    1.287   .     A
C215   O255    1.288   .     A
C216   H237    1.082   .     S
C216   C884    1.416   1_554 S
C216   N334    1.367   .     S
Cu233  O249    1.975   .     S
Cu233  Cu234   2.677   .     S
Cu233  O261    1.957   .     S
Cu233  N245    2.012   .     S
Cu233  O346    1.973   1_455 S
Cu233  O351    1.959   1_455 S
Cu234  O262    1.959   .     S
Cu234  N246    2.012   .     S
Cu234  O259    1.973   .     S
Cu234  O345    1.975   1_455 S
Cu234  O348    1.957   1_455 S
Cu235  Cu236   2.677   .     S
Cu235  O254    1.957   .     S
Cu235  O251    1.973   .     S
Cu235  N247    2.012   .     S
Cu236  O255    1.959   .     S
Cu236  N248    2.012   .     S
Cu236  O250    1.975   .     S
N245   C268    1.367   1_455 S
N246   C304    1.367   1_455 S
O252   Cu60    1.973   1_565 S
O253   Cu60    1.957   1_565 S
O256   Cu59    1.959   1_565 S
O257   Cu322   1.975   .     S
O258   Cu321   1.973   .     S
O260   Cu322   1.957   .     S
O263   Cu321   1.959   .     S
O264   Cu59    1.975   1_565 S
C265   O347    1.291   .     A
C265   O337    1.292   .     A
C265   C294    1.456   .     S
C266   N333    1.367   .     A
C266   H326    1.081   .     S
C266   C619    1.416   .     S
C267   N334    1.367   .     A
C267   H327    1.081   .     S
C267   C970    1.416   1_554 S
C268   H328    1.080   .     S
C268   C656    1.416   .     S
C268   N245    1.367   1_655 S
C269   H329    1.081   .     S
C269   C976    1.416   1_554 S
C269   N160    1.367   1_565 S
C270   N335    1.367   .     A
C270   H330    1.082   .     S
C270   C623    1.416   .     S
C271   N336    1.367   .     A
C271   H331    1.080   .     S
C271   C974    1.416   1_554 S
C272   H332    1.081   .     S
C272   C621    1.416   .     S
C272   N159    1.367   1_565 S
C273   C284    1.394   .     A
C273   Cl305   1.766   .     S
C273   C292    1.405   .     A
C274   C291    1.404   .     A
C274   C285    1.394   .     A
C274   Cl313   1.771   .     S
C275   C282    1.394   .     A
C275   C291    1.405   .     A
C275   Cl314   1.766   .     S
C276   C293    1.457   .     S
C276   O346    1.291   .     A
C276   O345    1.291   .     A
C277   Cl315   1.772   .     S
C277   C292    1.405   .     A
C277   C283    1.394   .     A
C278   Cl316   1.778   .     S
C278   C294    1.415   .     A
C278   C289    1.388   .     A
C279   Cl317   1.771   .     S
C279   C293    1.408   .     A
C279   C290    1.398   .     A
C280   C293    1.408   .     A
C280   C286    1.398   .     A
C280   Cl318   1.771   .     S
C281   C294    1.415   .     A
C281   C288    1.388   .     A
C281   Cl319   1.782   .     S
C282   Cl320   1.771   .     S
C282   C296    1.404   .     A
C283   C295    1.405   .     A
C283   Cl306   1.766   .     S
C284   Cl307   1.772   .     S
C284   C295    1.405   .     A
C285   C296    1.405   .     A
C285   Cl308   1.766   .     S
C286   C299    1.408   .     A
C286   Cl309   1.771   .     S
C287   O351    1.288   .     A
C287   O348    1.287   .     A
C287   C292    1.444   .     S
C288   C297    1.415   .     A
C288   Cl310   1.778   .     S
C289   Cl311   1.782   .     S
C289   C297    1.415   .     A
C290   Cl312   1.771   .     S
C290   C299    1.408   .     A
C291   C298    1.444   .     S
C295   C303    1.444   .     S
C296   C302    1.444   .     S
C297   C301    1.456   .     S
C298   O350    1.288   .     A
C298   O349    1.287   .     A
C299   C300    1.457   .     S
C300   O352    1.291   .     A
C300   O340    1.291   .     A
C301   O338    1.292   .     A
C301   O339    1.291   .     A
C302   O341    1.287   .     A
C302   O344    1.288   .     A
C303   O342    1.287   .     A
C303   O343    1.288   .     A
C304   H325    1.082   .     S
C304   C972    1.416   1_554 S
C304   N246    1.367   1_655 S
Cu321  O337    1.975   .     S
Cu321  Cu322   2.677   .     S
Cu321  O349    1.957   .     S
Cu321  N333    2.012   .     S
Cu322  O350    1.959   .     S
Cu322  N334    2.012   .     S
Cu322  O347    1.973   .     S
Cu323  Cu324   2.677   .     S
Cu323  O342    1.957   .     S
Cu323  O339    1.973   .     S
Cu323  N335    2.012   .     S
Cu324  O343    1.959   .     S
Cu324  N336    2.012   .     S
Cu324  O338    1.975   .     S
O340   Cu148   1.973   1_565 S
O341   Cu148   1.957   1_565 S
O344   Cu147   1.959   1_565 S
O345   Cu234   1.975   1_655 S
O346   Cu233   1.973   1_655 S
O348   Cu234   1.957   1_655 S
O351   Cu233   1.959   1_655 S
O352   Cu147   1.975   1_565 S
C353   O435    1.291   .     A
C353   O425    1.292   .     A
C353   C382    1.456   .     S
C354   N421    1.367   .     A
C354   H414    1.081   .     S
C354   C707    1.416   .     S
C355   N422    1.367   .     A
C355   H415    1.081   .     S
C356   H416    1.080   .     S
C356   C744    1.416   .     S
C356   N509    1.367   .     S
C357   H417    1.081   .     S
C357   N600    1.367   .     S
C358   N423    1.367   .     A
C358   H418    1.082   .     S
C358   C711    1.416   .     S
C359   N424    1.367   .     A
C359   H419    1.080   .     S
C360   H420    1.081   .     S
C360   C709    1.416   .     S
C360   N599    1.367   .     S
C361   C372    1.394   .     A
C361   Cl393   1.766   .     S
C361   C380    1.405   .     A
C362   C379    1.404   .     A
C362   C373    1.394   .     A
C362   Cl401   1.771   .     S
C363   C370    1.394   .     A
C363   C379    1.405   .     A
C363   Cl402   1.766   .     S
C364   C381    1.457   .     S
C364   O434    1.291   .     A
C364   O433    1.291   .     A
C365   Cl403   1.772   .     S
C365   C380    1.405   .     A
C365   C371    1.394   .     A
C366   Cl404   1.778   .     S
C366   C382    1.415   .     A
C366   C377    1.388   .     A
C367   Cl405   1.771   .     S
C367   C381    1.408   .     A
C367   C378    1.398   .     A
C368   C381    1.408   .     A
C368   C374    1.398   .     A
C368   Cl406   1.771   .     S
C369   C382    1.415   .     A
C369   C376    1.388   .     A
C369   Cl407   1.782   .     S
C370   Cl408   1.771   .     S
C370   C384    1.404   .     A
C371   C383    1.405   .     A
C371   Cl394   1.766   .     S
C372   Cl395   1.772   .     S
C372   C383    1.405   .     A
C373   C384    1.405   .     A
C373   Cl396   1.766   .     S
C374   C387    1.408   .     A
C374   Cl397   1.771   .     S
C375   O439    1.288   .     A
C375   O436    1.287   .     A
C375   C380    1.444   .     S
C376   C385    1.415   .     A
C376   Cl398   1.778   .     S
C377   Cl399   1.782   .     S
C377   C385    1.415   .     A
C378   Cl400   1.771   .     S
C378   C387    1.408   .     A
C379   C386    1.444   .     S
C383   C391    1.444   .     S
C384   C390    1.444   .     S
C385   C389    1.456   .     S
C386   O438    1.288   .     A
C386   O437    1.287   .     A
C387   C388    1.457   .     S
C388   O440    1.291   .     A
C388   O428    1.291   .     A
C389   O426    1.292   .     A
C389   O427    1.291   .     A
C390   O429    1.287   .     A
C390   O432    1.288   .     A
C391   O430    1.287   .     A
C391   O431    1.288   .     A
C392   H413    1.082   .     S
C392   N510    1.367   .     S
Cu409  O425    1.975   .     S
Cu409  Cu410   2.677   .     S
Cu409  O437    1.957   .     S
Cu409  N421    2.012   .     S
Cu409  O522    1.973   1_455 S
Cu409  O527    1.959   1_455 S
Cu410  O438    1.959   .     S
Cu410  N422    2.012   .     S
Cu410  O435    1.973   .     S
Cu410  O521    1.975   1_455 S
Cu410  O524    1.957   1_455 S
Cu411  Cu412   2.677   .     S
Cu411  O430    1.957   .     S
Cu411  O427    1.973   .     S
Cu411  N423    2.012   .     S
Cu411  O608    1.959   1_545 S
Cu411  O616    1.975   1_545 S
Cu412  O431    1.959   .     S
Cu412  N424    2.012   .     S
Cu412  O426    1.975   .     S
Cu412  O604    1.973   1_545 S
Cu412  O605    1.957   1_545 S
N421   C444    1.367   1_455 S
N422   C480    1.367   1_455 S
N423   C536    1.367   1_545 S
N424   C533    1.367   1_545 S
O428   Cu588   1.973   .     S
O429   Cu588   1.957   .     S
O432   Cu587   1.959   .     S
O433   Cu498   1.975   .     S
O434   Cu497   1.973   .     S
O436   Cu498   1.957   .     S
O439   Cu497   1.959   .     S
O440   Cu587   1.975   .     S
C441   O523    1.291   .     A
C441   O513    1.292   .     A
C441   C470    1.456   .     S
C442   N509    1.367   .     A
C442   H502    1.081   .     S
C442   C795    1.416   .     S
C443   N510    1.367   .     A
C443   H503    1.081   .     S
C444   H504    1.080   .     S
C444   C832    1.416   .     S
C444   N421    1.367   1_655 S
C445   H505    1.081   .     S
C445   N688    1.367   .     S
C446   N511    1.367   .     A
C446   H506    1.082   .     S
C446   C799    1.416   .     S
C447   N512    1.367   .     A
C447   H507    1.080   .     S
C448   H508    1.081   .     S
C448   C797    1.416   .     S
C448   N687    1.367   .     S
C449   C460    1.394   .     A
C449   Cl481   1.766   .     S
C449   C468    1.405   .     A
C450   C467    1.404   .     A
C450   C461    1.394   .     A
C450   Cl489   1.771   .     S
C451   C458    1.394   .     A
C451   C467    1.405   .     A
C451   Cl490   1.766   .     S
C452   C469    1.457   .     S
C452   O522    1.291   .     A
C452   O521    1.291   .     A
C453   Cl491   1.772   .     S
C453   C468    1.405   .     A
C453   C459    1.394   .     A
C454   Cl492   1.778   .     S
C454   C470    1.415   .     A
C454   C465    1.388   .     A
C455   Cl493   1.771   .     S
C455   C469    1.408   .     A
C455   C466    1.398   .     A
C456   C469    1.408   .     A
C456   C462    1.398   .     A
C456   Cl494   1.771   .     S
C457   C470    1.415   .     A
C457   C464    1.388   .     A
C457   Cl495   1.782   .     S
C458   Cl496   1.771   .     S
C458   C472    1.404   .     A
C459   C471    1.405   .     A
C459   Cl482   1.766   .     S
C460   Cl483   1.772   .     S
C460   C471    1.405   .     A
C461   C472    1.405   .     A
C461   Cl484   1.766   .     S
C462   C475    1.408   .     A
C462   Cl485   1.771   .     S
C463   O527    1.288   .     A
C463   O524    1.287   .     A
C463   C468    1.444   .     S
C464   C473    1.415   .     A
C464   Cl486   1.778   .     S
C465   Cl487   1.782   .     S
C465   C473    1.415   .     A
C466   Cl488   1.771   .     S
C466   C475    1.408   .     A
C467   C474    1.444   .     S
C471   C479    1.444   .     S
C472   C478    1.444   .     S
C473   C477    1.456   .     S
C474   O526    1.288   .     A
C474   O525    1.287   .     A
C475   C476    1.457   .     S
C476   O528    1.291   .     A
C476   O516    1.291   .     A
C477   O514    1.292   .     A
C477   O515    1.291   .     A
C478   O517    1.287   .     A
C478   O520    1.288   .     A
C479   O518    1.287   .     A
C479   O519    1.288   .     A
C480   H501    1.082   .     S
C480   N422    1.367   1_655 S
Cu497  O513    1.975   .     S
Cu497  Cu498   2.677   .     S
Cu497  O525    1.957   .     S
Cu497  N509    2.012   .     S
Cu498  O526    1.959   .     S
Cu498  N510    2.012   .     S
Cu498  O523    1.973   .     S
Cu499  Cu500   2.677   .     S
Cu499  O518    1.957   .     S
Cu499  O515    1.973   .     S
Cu499  N511    2.012   .     S
Cu499  O696    1.959   1_545 S
Cu499  O704    1.975   1_545 S
Cu500  O519    1.959   .     S
Cu500  N512    2.012   .     S
Cu500  O514    1.975   .     S
Cu500  O692    1.973   1_545 S
Cu500  O693    1.957   1_545 S
N511   C624    1.367   1_545 S
N512   C621    1.367   1_545 S
O516   Cu676   1.973   .     S
O517   Cu676   1.957   .     S
O520   Cu675   1.959   .     S
O521   Cu410   1.975   1_655 S
O522   Cu409   1.973   1_655 S
O524   Cu410   1.957   1_655 S
O527   Cu409   1.959   1_655 S
O528   Cu675   1.975   .     S
C529   O611    1.291   .     A
C529   O601    1.292   .     A
C529   C558    1.456   .     S
C530   N597    1.367   .     A
C530   H590    1.081   .     S
C530   C883    1.416   .     S
C531   N598    1.367   .     A
C531   H591    1.081   .     S
C532   H592    1.080   .     S
C532   C920    1.416   .     S
C532   N685    1.367   .     S
C533   H593    1.081   .     S
C533   N424    1.367   1_565 S
C534   N599    1.367   .     A
C534   H594    1.082   .     S
C534   C887    1.416   .     S
C535   N600    1.367   .     A
C535   H595    1.080   .     S
C536   H596    1.081   .     S
C536   C885    1.416   .     S
C536   N423    1.367   1_565 S
C537   C548    1.394   .     A
C537   Cl569   1.766   .     S
C537   C556    1.405   .     A
C538   C555    1.404   .     A
C538   C549    1.394   .     A
C538   Cl577   1.771   .     S
C539   C546    1.394   .     A
C539   C555    1.405   .     A
C539   Cl578   1.766   .     S
C540   C557    1.457   .     S
C540   O610    1.291   .     A
C540   O609    1.291   .     A
C541   Cl579   1.772   .     S
C541   C556    1.405   .     A
C541   C547    1.394   .     A
C542   Cl580   1.778   .     S
C542   C558    1.415   .     A
C542   C553    1.388   .     A
C543   Cl581   1.771   .     S
C543   C557    1.408   .     A
C543   C554    1.398   .     A
C544   C557    1.408   .     A
C544   C550    1.398   .     A
C544   Cl582   1.771   .     S
C545   C558    1.415   .     A
C545   C552    1.388   .     A
C545   Cl583   1.782   .     S
C546   Cl584   1.771   .     S
C546   C560    1.404   .     A
C547   C559    1.405   .     A
C547   Cl570   1.766   .     S
C548   Cl571   1.772   .     S
C548   C559    1.405   .     A
C549   C560    1.405   .     A
C549   Cl572   1.766   .     S
C550   C563    1.408   .     A
C550   Cl573   1.771   .     S
C551   O615    1.288   .     A
C551   O612    1.287   .     A
C551   C556    1.444   .     S
C552   C561    1.415   .     A
C552   Cl574   1.778   .     S
C553   Cl575   1.782   .     S
C553   C561    1.415   .     A
C554   Cl576   1.771   .     S
C554   C563    1.408   .     A
C555   C562    1.444   .     S
C559   C567    1.444   .     S
C560   C566    1.444   .     S
C561   C565    1.456   .     S
C562   O614    1.288   .     A
C562   O613    1.287   .     A
C563   C564    1.457   .     S
C564   O616    1.291   .     A
C564   O604    1.291   .     A
C565   O602    1.292   .     A
C565   O603    1.291   .     A
C566   O605    1.287   .     A
C566   O608    1.288   .     A
C567   O606    1.287   .     A
C567   O607    1.288   .     A
C568   H589    1.082   .     S
C568   N686    1.367   .     S
Cu585  O601    1.975   .     S
Cu585  Cu586   2.677   .     S
Cu585  O613    1.957   .     S
Cu585  N597    2.012   .     S
Cu585  O698    1.973   1_455 S
Cu585  O703    1.959   1_455 S
Cu586  O614    1.959   .     S
Cu586  N598    2.012   .     S
Cu586  O611    1.973   .     S
Cu586  O697    1.975   1_455 S
Cu586  O700    1.957   1_455 S
Cu587  Cu588   2.677   .     S
Cu587  O606    1.957   .     S
Cu587  O603    1.973   .     S
Cu587  N599    2.012   .     S
Cu588  O607    1.959   .     S
Cu588  N600    2.012   .     S
Cu588  O602    1.975   .     S
N597   C620    1.367   1_455 S
N598   C656    1.367   1_455 S
O604   Cu412   1.973   1_565 S
O605   Cu412   1.957   1_565 S
O608   Cu411   1.959   1_565 S
O609   Cu674   1.975   .     S
O610   Cu673   1.973   .     S
O612   Cu674   1.957   .     S
O615   Cu673   1.959   .     S
O616   Cu411   1.975   1_565 S
C617   O699    1.291   .     A
C617   O689    1.292   .     A
C617   C646    1.456   .     S
C618   N685    1.367   .     A
C618   H678    1.081   .     S
C618   C971    1.416   .     S
C619   N686    1.367   .     A
C619   H679    1.081   .     S
C620   H680    1.080   .     S
C620   C1008   1.416   .     S
C620   N597    1.367   1_655 S
C621   H681    1.081   .     S
C621   N512    1.367   1_565 S
C622   N687    1.367   .     A
C622   H682    1.082   .     S
C622   C975    1.416   .     S
C623   N688    1.367   .     A
C623   H683    1.080   .     S
C624   H684    1.081   .     S
C624   C973    1.416   .     S
C624   N511    1.367   1_565 S
C625   C636    1.394   .     A
C625   Cl657   1.766   .     S
C625   C644    1.405   .     A
C626   C643    1.404   .     A
C626   C637    1.394   .     A
C626   Cl665   1.771   .     S
C627   C634    1.394   .     A
C627   C643    1.405   .     A
C627   Cl666   1.766   .     S
C628   C645    1.457   .     S
C628   O698    1.291   .     A
C628   O697    1.291   .     A
C629   Cl667   1.772   .     S
C629   C644    1.405   .     A
C629   C635    1.394   .     A
C630   Cl668   1.778   .     S
C630   C646    1.415   .     A
C630   C641    1.388   .     A
C631   Cl669   1.771   .     S
C631   C645    1.408   .     A
C631   C642    1.398   .     A
C632   C645    1.408   .     A
C632   C638    1.398   .     A
C632   Cl670   1.771   .     S
C633   C646    1.415   .     A
C633   C640    1.388   .     A
C633   Cl671   1.782   .     S
C634   Cl672   1.771   .     S
C634   C648    1.404   .     A
C635   C647    1.405   .     A
C635   Cl658   1.766   .     S
C636   Cl659   1.772   .     S
C636   C647    1.405   .     A
C637   C648    1.405   .     A
C637   Cl660   1.766   .     S
C638   C651    1.408   .     A
C638   Cl661   1.771   .     S
C639   O703    1.288   .     A
C639   O700    1.287   .     A
C639   C644    1.444   .     S
C640   C649    1.415   .     A
C640   Cl662   1.778   .     S
C641   Cl663   1.782   .     S
C641   C649    1.415   .     A
C642   Cl664   1.771   .     S
C642   C651    1.408   .     A
C643   C650    1.444   .     S
C647   C655    1.444   .     S
C648   C654    1.444   .     S
C649   C653    1.456   .     S
C650   O702    1.288   .     A
C650   O701    1.287   .     A
C651   C652    1.457   .     S
C652   O704    1.291   .     A
C652   O692    1.291   .     A
C653   O690    1.292   .     A
C653   O691    1.291   .     A
C654   O693    1.287   .     A
C654   O696    1.288   .     A
C655   O694    1.287   .     A
C655   O695    1.288   .     A
C656   H677    1.082   .     S
C656   N598    1.367   1_655 S
Cu673  O689    1.975   .     S
Cu673  Cu674   2.677   .     S
Cu673  O701    1.957   .     S
Cu673  N685    2.012   .     S
Cu674  O702    1.959   .     S
Cu674  N686    2.012   .     S
Cu674  O699    1.973   .     S
Cu675  Cu676   2.677   .     S
Cu675  O694    1.957   .     S
Cu675  O691    1.973   .     S
Cu675  N687    2.012   .     S
Cu676  O695    1.959   .     S
Cu676  N688    2.012   .     S
Cu676  O690    1.975   .     S
O692   Cu500   1.973   1_565 S
O693   Cu500   1.957   1_565 S
O696   Cu499   1.959   1_565 S
O697   Cu586   1.975   1_655 S
O698   Cu585   1.973   1_655 S
O700   Cu586   1.957   1_655 S
O703   Cu585   1.959   1_655 S
O704   Cu499   1.975   1_565 S
C705   O787    1.291   .     A
C705   O777    1.292   .     A
C705   C734    1.456   .     S
C706   N773    1.367   .     A
C706   H766    1.081   .     S
C706   C3      1.416   1_556 S
C707   N774    1.367   .     A
C707   H767    1.081   .     S
C708   H768    1.080   .     S
C708   C40     1.416   1_556 S
C708   N861    1.367   .     S
C709   H769    1.081   .     S
C709   N952    1.367   .     S
C710   N775    1.367   .     A
C710   H770    1.082   .     S
C710   C7      1.416   1_556 S
C711   N776    1.367   .     A
C711   H771    1.080   .     S
C712   H772    1.081   .     S
C712   C5      1.416   1_556 S
C712   N951    1.367   .     S
C713   C724    1.394   .     A
C713   Cl745   1.766   .     S
C713   C732    1.405   .     A
C714   C731    1.404   .     A
C714   C725    1.394   .     A
C714   Cl753   1.771   .     S
C715   C722    1.394   .     A
C715   C731    1.405   .     A
C715   Cl754   1.766   .     S
C716   C733    1.457   .     S
C716   O786    1.291   .     A
C716   O785    1.291   .     A
C717   Cl755   1.772   .     S
C717   C732    1.405   .     A
C717   C723    1.394   .     A
C718   Cl756   1.778   .     S
C718   C734    1.415   .     A
C718   C729    1.388   .     A
C719   Cl757   1.771   .     S
C719   C733    1.408   .     A
C719   C730    1.398   .     A
C720   C733    1.408   .     A
C720   C726    1.398   .     A
C720   Cl758   1.771   .     S
C721   C734    1.415   .     A
C721   C728    1.388   .     A
C721   Cl759   1.782   .     S
C722   Cl760   1.771   .     S
C722   C736    1.404   .     A
C723   C735    1.405   .     A
C723   Cl746   1.766   .     S
C724   Cl747   1.772   .     S
C724   C735    1.405   .     A
C725   C736    1.405   .     A
C725   Cl748   1.766   .     S
C726   C739    1.408   .     A
C726   Cl749   1.771   .     S
C727   O791    1.288   .     A
C727   O788    1.287   .     A
C727   C732    1.444   .     S
C728   C737    1.415   .     A
C728   Cl750   1.778   .     S
C729   Cl751   1.782   .     S
C729   C737    1.415   .     A
C730   Cl752   1.771   .     S
C730   C739    1.408   .     A
C731   C738    1.444   .     S
C735   C743    1.444   .     S
C736   C742    1.444   .     S
C737   C741    1.456   .     S
C738   O790    1.288   .     A
C738   O789    1.287   .     A
C739   C740    1.457   .     S
C740   O792    1.291   .     A
C740   O780    1.291   .     A
C741   O778    1.292   .     A
C741   O779    1.291   .     A
C742   O781    1.287   .     A
C742   O784    1.288   .     A
C743   O782    1.287   .     A
C743   O783    1.288   .     A
C744   H765    1.082   .     S
C744   N862    1.367   .     S
Cu761  O777    1.975   .     S
Cu761  Cu762   2.677   .     S
Cu761  O789    1.957   .     S
Cu761  N773    2.012   .     S
Cu761  O874    1.973   1_455 S
Cu761  O879    1.959   1_455 S
Cu762  O790    1.959   .     S
Cu762  N774    2.012   .     S
Cu762  O787    1.973   .     S
Cu762  O873    1.975   1_455 S
Cu762  O876    1.957   1_455 S
Cu763  Cu764   2.677   .     S
Cu763  O782    1.957   .     S
Cu763  O779    1.973   .     S
Cu763  N775    2.012   .     S
Cu763  O960    1.959   1_545 S
Cu763  O968    1.975   1_545 S
Cu764  O783    1.959   .     S
Cu764  N776    2.012   .     S
Cu764  O778    1.975   .     S
Cu764  O956    1.973   1_545 S
Cu764  O957    1.957   1_545 S
N773   C796    1.367   1_455 S
N774   C832    1.367   1_455 S
N775   C888    1.367   1_545 S
N776   C885    1.367   1_545 S
O780   Cu940   1.973   .     S
O781   Cu940   1.957   .     S
O784   Cu939   1.959   .     S
O785   Cu850   1.975   .     S
O786   Cu849   1.973   .     S
O788   Cu850   1.957   .     S
O791   Cu849   1.959   .     S
O792   Cu939   1.975   .     S
C793   O875    1.291   .     A
C793   O865    1.292   .     A
C793   C822    1.456   .     S
C794   N861    1.367   .     A
C794   H854    1.081   .     S
C794   C91     1.416   1_556 S
C795   N862    1.367   .     A
C795   H855    1.081   .     S
C796   H856    1.080   .     S
C796   C128    1.416   1_556 S
C796   N773    1.367   1_655 S
C797   H857    1.081   .     S
C797   N1040   1.367   .     S
C798   N863    1.367   .     A
C798   H858    1.082   .     S
C798   C95     1.416   1_556 S
C799   N864    1.367   .     A
C799   H859    1.080   .     S
C800   H860    1.081   .     S
C800   C93     1.416   1_556 S
C800   N1039   1.367   .     S
C801   C812    1.394   .     A
C801   Cl833   1.766   .     S
C801   C820    1.405   .     A
C802   C819    1.404   .     A
C802   C813    1.394   .     A
C802   Cl841   1.771   .     S
C803   C810    1.394   .     A
C803   C819    1.405   .     A
C803   Cl842   1.766   .     S
C804   C821    1.457   .     S
C804   O874    1.291   .     A
C804   O873    1.291   .     A
C805   Cl843   1.772   .     S
C805   C820    1.405   .     A
C805   C811    1.394   .     A
C806   Cl844   1.778   .     S
C806   C822    1.415   .     A
C806   C817    1.388   .     A
C807   Cl845   1.771   .     S
C807   C821    1.408   .     A
C807   C818    1.398   .     A
C808   C821    1.408   .     A
C808   C814    1.398   .     A
C808   Cl846   1.771   .     S
C809   C822    1.415   .     A
C809   C816    1.388   .     A
C809   Cl847   1.782   .     S
C810   Cl848   1.771   .     S
C810   C824    1.404   .     A
C811   C823    1.405   .     A
C811   Cl834   1.766   .     S
C812   Cl835   1.772   .     S
C812   C823    1.405   .     A
C813   C824    1.405   .     A
C813   Cl836   1.766   .     S
C814   C827    1.408   .     A
C814   Cl837   1.771   .     S
C815   O879    1.288   .     A
C815   O876    1.287   .     A
C815   C820    1.444   .     S
C816   C825    1.415   .     A
C816   Cl838   1.778   .     S
C817   Cl839   1.782   .     S
C817   C825    1.415   .     A
C818   Cl840   1.771   .     S
C818   C827    1.408   .     A
C819   C826    1.444   .     S
C823   C831    1.444   .     S
C824   C830    1.444   .     S
C825   C829    1.456   .     S
C826   O878    1.288   .     A
C826   O877    1.287   .     A
C827   C828    1.457   .     S
C828   O880    1.291   .     A
C828   O868    1.291   .     A
C829   O866    1.292   .     A
C829   O867    1.291   .     A
C830   O869    1.287   .     A
C830   O872    1.288   .     A
C831   O870    1.287   .     A
C831   O871    1.288   .     A
C832   H853    1.082   .     S
C832   N774    1.367   1_655 S
Cu849  O865    1.975   .     S
Cu849  Cu850   2.677   .     S
Cu849  O877    1.957   .     S
Cu849  N861    2.012   .     S
Cu850  O878    1.959   .     S
Cu850  N862    2.012   .     S
Cu850  O875    1.973   .     S
Cu851  Cu852   2.677   .     S
Cu851  O870    1.957   .     S
Cu851  O867    1.973   .     S
Cu851  N863    2.012   .     S
Cu851  O1048   1.959   1_545 S
Cu851  O1056   1.975   1_545 S
Cu852  O871    1.959   .     S
Cu852  N864    2.012   .     S
Cu852  O866    1.975   .     S
Cu852  O1044   1.973   1_545 S
Cu852  O1045   1.957   1_545 S
N863   C976    1.367   1_545 S
N864   C973    1.367   1_545 S
O868   Cu1028  1.973   .     S
O869   Cu1028  1.957   .     S
O872   Cu1027  1.959   .     S
O873   Cu762   1.975   1_655 S
O874   Cu761   1.973   1_655 S
O876   Cu762   1.957   1_655 S
O879   Cu761   1.959   1_655 S
O880   Cu1027  1.975   .     S
C881   O963    1.291   .     A
C881   O953    1.292   .     A
C881   C910    1.456   .     S
C882   N949    1.367   .     A
C882   H942    1.081   .     S
C882   C179    1.416   1_556 S
C883   N950    1.367   .     A
C883   H943    1.081   .     S
C884   H944    1.080   .     S
C884   C216    1.416   1_556 S
C884   N1037   1.367   .     S
C885   H945    1.081   .     S
C885   N776    1.367   1_565 S
C886   N951    1.367   .     A
C886   H946    1.082   .     S
C886   C183    1.416   1_556 S
C887   N952    1.367   .     A
C887   H947    1.080   .     S
C888   H948    1.081   .     S
C888   C181    1.416   1_556 S
C888   N775    1.367   1_565 S
C889   C900    1.394   .     A
C889   Cl921   1.766   .     S
C889   C908    1.405   .     A
C890   C907    1.404   .     A
C890   C901    1.394   .     A
C890   Cl929   1.771   .     S
C891   C898    1.394   .     A
C891   C907    1.405   .     A
C891   Cl930   1.766   .     S
C892   C909    1.457   .     S
C892   O962    1.291   .     A
C892   O961    1.291   .     A
C893   Cl931   1.772   .     S
C893   C908    1.405   .     A
C893   C899    1.394   .     A
C894   Cl932   1.778   .     S
C894   C910    1.415   .     A
C894   C905    1.388   .     A
C895   Cl933   1.771   .     S
C895   C909    1.408   .     A
C895   C906    1.398   .     A
C896   C909    1.408   .     A
C896   C902    1.398   .     A
C896   Cl934   1.771   .     S
C897   C910    1.415   .     A
C897   C904    1.388   .     A
C897   Cl935   1.782   .     S
C898   Cl936   1.771   .     S
C898   C912    1.404   .     A
C899   C911    1.405   .     A
C899   Cl922   1.766   .     S
C900   Cl923   1.772   .     S
C900   C911    1.405   .     A
C901   C912    1.405   .     A
C901   Cl924   1.766   .     S
C902   C915    1.408   .     A
C902   Cl925   1.771   .     S
C903   O967    1.288   .     A
C903   O964    1.287   .     A
C903   C908    1.444   .     S
C904   C913    1.415   .     A
C904   Cl926   1.778   .     S
C905   Cl927   1.782   .     S
C905   C913    1.415   .     A
C906   Cl928   1.771   .     S
C906   C915    1.408   .     A
C907   C914    1.444   .     S
C911   C919    1.444   .     S
C912   C918    1.444   .     S
C913   C917    1.456   .     S
C914   O966    1.288   .     A
C914   O965    1.287   .     A
C915   C916    1.457   .     S
C916   O968    1.291   .     A
C916   O956    1.291   .     A
C917   O954    1.292   .     A
C917   O955    1.291   .     A
C918   O957    1.287   .     A
C918   O960    1.288   .     A
C919   O958    1.287   .     A
C919   O959    1.288   .     A
C920   H941    1.082   .     S
C920   N1038   1.367   .     S
Cu937  O953    1.975   .     S
Cu937  Cu938   2.677   .     S
Cu937  O965    1.957   .     S
Cu937  N949    2.012   .     S
Cu937  O1050   1.973   1_455 S
Cu937  O1055   1.959   1_455 S
Cu938  O966    1.959   .     S
Cu938  N950    2.012   .     S
Cu938  O963    1.973   .     S
Cu938  O1049   1.975   1_455 S
Cu938  O1052   1.957   1_455 S
Cu939  Cu940   2.677   .     S
Cu939  O958    1.957   .     S
Cu939  O955    1.973   .     S
Cu939  N951    2.012   .     S
Cu940  O959    1.959   .     S
Cu940  N952    2.012   .     S
Cu940  O954    1.975   .     S
N949   C972    1.367   1_455 S
N950   C1008   1.367   1_455 S
O956   Cu764   1.973   1_565 S
O957   Cu764   1.957   1_565 S
O960   Cu763   1.959   1_565 S
O961   Cu1026  1.975   .     S
O962   Cu1025  1.973   .     S
O964   Cu1026  1.957   .     S
O967   Cu1025  1.959   .     S
O968   Cu763   1.975   1_565 S
C969   O1051   1.291   .     A
C969   O1041   1.292   .     A
C969   C998    1.456   .     S
C970   N1037   1.367   .     A
C970   H1030   1.081   .     S
C970   C267    1.416   1_556 S
C971   N1038   1.367   .     A
C971   H1031   1.081   .     S
C972   H1032   1.080   .     S
C972   C304    1.416   1_556 S
C972   N949    1.367   1_655 S
C973   H1033   1.081   .     S
C973   N864    1.367   1_565 S
C974   N1039   1.367   .     A
C974   H1034   1.082   .     S
C974   C271    1.416   1_556 S
C975   N1040   1.367   .     A
C975   H1035   1.080   .     S
C976   H1036   1.081   .     S
C976   C269    1.416   1_556 S
C976   N863    1.367   1_565 S
C977   C988    1.394   .     A
C977   Cl1009  1.766   .     S
C977   C996    1.405   .     A
C978   C995    1.404   .     A
C978   C989    1.394   .     A
C978   Cl1017  1.771   .     S
C979   C986    1.394   .     A
C979   C995    1.405   .     A
C979   Cl1018  1.766   .     S
C980   C997    1.457   .     S
C980   O1050   1.291   .     A
C980   O1049   1.291   .     A
C981   Cl1019  1.772   .     S
C981   C996    1.405   .     A
C981   C987    1.394   .     A
C982   Cl1020  1.778   .     S
C982   C998    1.415   .     A
C982   C993    1.388   .     A
C983   Cl1021  1.771   .     S
C983   C997    1.408   .     A
C983   C994    1.398   .     A
C984   C997    1.408   .     A
C984   C990    1.398   .     A
C984   Cl1022  1.771   .     S
C985   C998    1.415   .     A
C985   C992    1.388   .     A
C985   Cl1023  1.782   .     S
C986   Cl1024  1.771   .     S
C986   C1000   1.404   .     A
C987   C999    1.405   .     A
C987   Cl1010  1.766   .     S
C988   Cl1011  1.772   .     S
C988   C999    1.405   .     A
C989   C1000   1.405   .     A
C989   Cl1012  1.766   .     S
C990   C1003   1.408   .     A
C990   Cl1013  1.771   .     S
C991   O1055   1.288   .     A
C991   O1052   1.287   .     A
C991   C996    1.444   .     S
C992   C1001   1.415   .     A
C992   Cl1014  1.778   .     S
C993   Cl1015  1.782   .     S
C993   C1001   1.415   .     A
C994   Cl1016  1.771   .     S
C994   C1003   1.408   .     A
C995   C1002   1.444   .     S
C999   C1007   1.444   .     S
C1000  C1006   1.444   .     S
C1001  C1005   1.456   .     S
C1002  O1054   1.288   .     A
C1002  O1053   1.287   .     A
C1003  C1004   1.457   .     S
C1004  O1056   1.291   .     A
C1004  O1044   1.291   .     A
C1005  O1042   1.292   .     A
C1005  O1043   1.291   .     A
C1006  O1045   1.287   .     A
C1006  O1048   1.288   .     A
C1007  O1046   1.287   .     A
C1007  O1047   1.288   .     A
C1008  H1029   1.082   .     S
C1008  N950    1.367   1_655 S
Cu1025 O1041   1.975   .     S
Cu1025 Cu1026  2.677   .     S
Cu1025 O1053   1.957   .     S
Cu1025 N1037   2.012   .     S
Cu1026 O1054   1.959   .     S
Cu1026 N1038   2.012   .     S
Cu1026 O1051   1.973   .     S
Cu1027 Cu1028  2.677   .     S
Cu1027 O1046   1.957   .     S
Cu1027 O1043   1.973   .     S
Cu1027 N1039   2.012   .     S
Cu1028 O1047   1.959   .     S
Cu1028 N1040   2.012   .     S
Cu1028 O1042   1.975   .     S
O1044  Cu852   1.973   1_565 S
O1045  Cu852   1.957   1_565 S
O1048  Cu851   1.959   1_565 S
O1049  Cu938   1.975   1_655 S
O1050  Cu937   1.973   1_655 S
O1052  Cu938   1.957   1_655 S
O1055  Cu937   1.959   1_655 S
O1056  Cu851   1.975   1_565 S
