data_str_m2_o1_o18_pcu_sym.7
_audit_creation_date              2020-01-03
_audit_creation_method            'Materials Studio'
_symmetry_space_group_name_H-M    'P1'
_symmetry_Int_Tables_number       1
_symmetry_cell_setting            triclinic
loop_
_symmetry_equiv_pos_as_xyz
  x,y,z
_cell_length_a                    28.6874
_cell_length_b                    32.2823
_cell_length_c                    30.5079
_cell_angle_alpha                 88.5516
_cell_angle_beta                  74.9375
_cell_angle_gamma                 89.7482
loop_
_atom_site_label
_atom_site_type_symbol
_atom_site_fract_x
_atom_site_fract_y
_atom_site_fract_z
_atom_site_U_iso_or_equiv
_atom_site_adp_type
_atom_site_occupancy
C1     C     0.00009   0.08756   0.24987   0.00000  Uiso   1.00
C2     C     0.02367   0.02197   0.20961   0.00000  Uiso   1.00
C3     C     0.33305   0.29036   0.25058   0.00000  Uiso   1.00
C4     C     0.00028   0.04297   0.24943   0.00000  Uiso   1.00
C5     C     0.18436   0.14023   0.27844   0.00000  Uiso   1.00
C6     C     0.14897   0.19311   0.22156   0.00000  Uiso   1.00
C7     C     0.13428   0.14047   0.27870   0.00000  Uiso   1.00
C8     C     0.19905   0.19287   0.22130   0.00000  Uiso   1.00
C9     C     0.30639   0.16816   0.33648   0.00000  Uiso   1.00
C10    C     0.02695   0.16518   0.16352   0.00000  Uiso   1.00
C11    C     0.29209   0.17263   0.38653   0.00000  Uiso   1.00
C12    C     0.33324   0.24577   0.25013   0.00000  Uiso   1.00
C13    C     0.04125   0.16070   0.11347   0.00000  Uiso   1.00
C14    C     0.30507   0.19649   0.45806   0.00000  Uiso   1.00
C15    C     0.02826   0.13684   0.04194   0.00000  Uiso   1.00
C16    C     0.32354   0.18767   0.41142   0.00000  Uiso   1.00
C17    C     0.00979   0.14567   0.08858   0.00000  Uiso   1.00
C18    C     0.24409   0.16407   0.40921   0.00000  Uiso   1.00
C19    C     0.08924   0.16926   0.09079   0.00000  Uiso   1.00
C20    C     0.22597   0.16931   0.45599   0.00000  Uiso   1.00
C21    C     0.10737   0.16402   0.04401   0.00000  Uiso   1.00
C22    C     0.25524   0.19014   0.47938   0.00000  Uiso   1.00
C23    C     0.18281   0.20405   0.03941   0.00000  Uiso   1.00
C24    C     0.07810   0.14320   0.02062   0.00000  Uiso   1.00
C25    C     0.17766   0.15783   0.47878   0.00000  Uiso   1.00
C26    C     0.15568   0.17550   0.02122   0.00000  Uiso   1.00
C27    C     0.15052   0.12928   0.46059   0.00000  Uiso   1.00
C28    C     0.23327   0.20668   0.02224   0.00000  Uiso   1.00
C29    C     0.10006   0.12665   0.47776   0.00000  Uiso   1.00
C30    C     0.31007   0.02114   0.28937   0.00000  Uiso   1.00
C31    C     0.02327   0.31219   0.21063   0.00000  Uiso   1.00
C32    C     0.30966   0.31137   0.29039   0.00000  Uiso   1.00
Cl33   Cl    0.28247   0.13235   0.11616   0.00000  Uiso   1.00
Cl34   Cl    0.05086   0.20098   0.38384   0.00000  Uiso   1.00
Cl35   Cl    0.15430   0.24470   0.07469   0.00000  Uiso   1.00
Cl36   Cl    0.17903   0.08863   0.42532   0.00000  Uiso   1.00
Cl37   Cl    0.28217   0.04757   0.33948   0.00000  Uiso   1.00
Cl38   Cl    0.05116   0.28576   0.16052   0.00000  Uiso   1.00
Cl39   Cl    0.09345   0.10748   0.31708   0.00000  Uiso   1.00
Cl40   Cl    0.23988   0.22585   0.18291   0.00000  Uiso   1.00
Cu41   Cu    0.04689   0.16667   0.25000   0.00000  Uiso   1.00
Cu42   Cu    0.28645   0.16666   0.25000   0.00000  Uiso   1.00
H43    H     0.11366   0.17763   0.11072   0.00000  Uiso   1.00
H44    H     0.15514   0.24002   0.17829   0.00000  Uiso   1.00
H45    H     0.21968   0.15570   0.38929   0.00000  Uiso   1.00
H46    H     0.24330   0.23057   0.07705   0.00000  Uiso   1.00
H47    H     0.09003   0.10276   0.42295   0.00000  Uiso   1.00
H48    H     0.03523   0.20708   0.46847   0.00000  Uiso   1.00
H49    H     0.29810   0.12625   0.03153   0.00000  Uiso   1.00
H50    H     0.29219   0.26111   0.32877   0.00000  Uiso   1.00
H51    H     0.04114   0.07222   0.17123   0.00000  Uiso   1.00
H52    H     0.17819   0.09334   0.32174   0.00000  Uiso   1.00
N53    N     0.11736   0.16668   0.24999   0.00000  Uiso   1.00
N54    N     0.21597   0.16666   0.25001   0.00000  Uiso   1.00
O55    O     0.03958   0.10655   0.25000   0.00000  Uiso   1.00
O56    O     0.07277   0.10405   0.45554   0.00000  Uiso   1.00
O57    O     0.00093   0.21280   0.48305   0.00000  Uiso   1.00
O58    O     0.33240   0.12053   0.01696   0.00000  Uiso   1.00
O59    O     0.28671   0.29131   0.33087   0.00000  Uiso   1.00
O60    O     0.04662   0.04202   0.16913   0.00000  Uiso   1.00
O61    O     0.20262   0.11394   0.30628   0.00000  Uiso   1.00
O62    O     0.13071   0.21939   0.19372   0.00000  Uiso   1.00
O63    O     0.29375   0.22678   0.25000   0.00000  Uiso   1.00
O64    O     0.29372   0.10654   0.25001   0.00000  Uiso   1.00
O65    O     0.03961   0.22679   0.25000   0.00000  Uiso   1.00
O66    O     0.01852   0.16668   0.31492   0.00000  Uiso   1.00
O67    O     0.31481   0.16666   0.18509   0.00000  Uiso   1.00
O68    O     0.27267   0.16667   0.31492   0.00000  Uiso   1.00
O69    O     0.06067   0.16667   0.18508   0.00000  Uiso   1.00
O70    O     0.26057   0.22929   0.04446   0.00000  Uiso   1.00
C71    C     0.33343   0.08756   0.24987   0.00000  Uiso   1.00
C72    C     0.35701   0.02197   0.20961   0.00000  Uiso   1.00
C73    C     0.66639   0.29036   0.25058   0.00000  Uiso   1.00
C74    C     0.33361   0.04297   0.24943   0.00000  Uiso   1.00
C75    C     0.51769   0.14023   0.27844   0.00000  Uiso   1.00
C76    C     0.48231   0.19311   0.22156   0.00000  Uiso   1.00
C77    C     0.46761   0.14047   0.27870   0.00000  Uiso   1.00
C78    C     0.53239   0.19287   0.22130   0.00000  Uiso   1.00
C79    C     0.63972   0.16816   0.33648   0.00000  Uiso   1.00
C80    C     0.36028   0.16518   0.16352   0.00000  Uiso   1.00
C81    C     0.62542   0.17263   0.38653   0.00000  Uiso   1.00
C82    C     0.66657   0.24577   0.25013   0.00000  Uiso   1.00
C83    C     0.37458   0.16070   0.11347   0.00000  Uiso   1.00
C84    C     0.63840   0.19649   0.45806   0.00000  Uiso   1.00
C85    C     0.36160   0.13684   0.04194   0.00000  Uiso   1.00
C86    C     0.65688   0.18767   0.41142   0.00000  Uiso   1.00
C87    C     0.34312   0.14567   0.08858   0.00000  Uiso   1.00
C88    C     0.57743   0.16407   0.40921   0.00000  Uiso   1.00
C89    C     0.42257   0.16926   0.09079   0.00000  Uiso   1.00
C90    C     0.55930   0.16931   0.45599   0.00000  Uiso   1.00
C91    C     0.44070   0.16402   0.04401   0.00000  Uiso   1.00
C92    C     0.58857   0.19014   0.47938   0.00000  Uiso   1.00
C93    C     0.51615   0.20405   0.03941   0.00000  Uiso   1.00
C94    C     0.41143   0.14320   0.02062   0.00000  Uiso   1.00
C95    C     0.51099   0.15783   0.47878   0.00000  Uiso   1.00
C96    C     0.48901   0.17550   0.02122   0.00000  Uiso   1.00
C97    C     0.48385   0.12928   0.46059   0.00000  Uiso   1.00
C98    C     0.56661   0.20668   0.02224   0.00000  Uiso   1.00
C99    C     0.43340   0.12665   0.47776   0.00000  Uiso   1.00
C100   C     0.64340   0.02114   0.28937   0.00000  Uiso   1.00
C101   C     0.35660   0.31219   0.21063   0.00000  Uiso   1.00
C102   C     0.64299   0.31137   0.29039   0.00000  Uiso   1.00
Cl103  Cl    0.61581   0.13235   0.11616   0.00000  Uiso   1.00
Cl104  Cl    0.38419   0.20098   0.38384   0.00000  Uiso   1.00
Cl105  Cl    0.48764   0.24470   0.07469   0.00000  Uiso   1.00
Cl106  Cl    0.51237   0.08863   0.42532   0.00000  Uiso   1.00
Cl107  Cl    0.61550   0.04757   0.33948   0.00000  Uiso   1.00
Cl108  Cl    0.38450   0.28576   0.16052   0.00000  Uiso   1.00
Cl109  Cl    0.42679   0.10748   0.31708   0.00000  Uiso   1.00
Cl110  Cl    0.57321   0.22585   0.18291   0.00000  Uiso   1.00
Cu111  Cu    0.38022   0.16667   0.25000   0.00000  Uiso   1.00
Cu112  Cu    0.61978   0.16666   0.25000   0.00000  Uiso   1.00
H113   H     0.44699   0.17763   0.11072   0.00000  Uiso   1.00
H114   H     0.48847   0.24002   0.17829   0.00000  Uiso   1.00
H115   H     0.55301   0.15570   0.38929   0.00000  Uiso   1.00
H116   H     0.57663   0.23057   0.07705   0.00000  Uiso   1.00
H117   H     0.42337   0.10276   0.42295   0.00000  Uiso   1.00
H118   H     0.36856   0.20708   0.46847   0.00000  Uiso   1.00
H119   H     0.63144   0.12625   0.03153   0.00000  Uiso   1.00
H120   H     0.62553   0.26111   0.32877   0.00000  Uiso   1.00
H121   H     0.37448   0.07222   0.17123   0.00000  Uiso   1.00
H122   H     0.51152   0.09334   0.32174   0.00000  Uiso   1.00
N123   N     0.45069   0.16668   0.24999   0.00000  Uiso   1.00
N124   N     0.54931   0.16666   0.25001   0.00000  Uiso   1.00
O125   O     0.37291   0.10655   0.25000   0.00000  Uiso   1.00
O126   O     0.40610   0.10405   0.45554   0.00000  Uiso   1.00
O127   O     0.33426   0.21280   0.48305   0.00000  Uiso   1.00
O128   O     0.66574   0.12053   0.01696   0.00000  Uiso   1.00
O129   O     0.62005   0.29131   0.33087   0.00000  Uiso   1.00
O130   O     0.37995   0.04202   0.16913   0.00000  Uiso   1.00
O131   O     0.53596   0.11394   0.30628   0.00000  Uiso   1.00
O132   O     0.46404   0.21939   0.19372   0.00000  Uiso   1.00
O133   O     0.62709   0.22678   0.25000   0.00000  Uiso   1.00
O134   O     0.62706   0.10654   0.25001   0.00000  Uiso   1.00
O135   O     0.37294   0.22679   0.25000   0.00000  Uiso   1.00
O136   O     0.35186   0.16668   0.31492   0.00000  Uiso   1.00
O137   O     0.64814   0.16666   0.18509   0.00000  Uiso   1.00
O138   O     0.60600   0.16667   0.31492   0.00000  Uiso   1.00
O139   O     0.39400   0.16667   0.18508   0.00000  Uiso   1.00
O140   O     0.59390   0.22929   0.04446   0.00000  Uiso   1.00
C141   C     0.66676   0.08756   0.24987   0.00000  Uiso   1.00
C142   C     0.69034   0.02197   0.20961   0.00000  Uiso   1.00
C143   C     0.99972   0.29036   0.25058   0.00000  Uiso   1.00
C144   C     0.66695   0.04297   0.24943   0.00000  Uiso   1.00
C145   C     0.85103   0.14023   0.27844   0.00000  Uiso   1.00
C146   C     0.81564   0.19311   0.22156   0.00000  Uiso   1.00
C147   C     0.80094   0.14047   0.27870   0.00000  Uiso   1.00
C148   C     0.86572   0.19287   0.22130   0.00000  Uiso   1.00
C149   C     0.97305   0.16816   0.33648   0.00000  Uiso   1.00
C150   C     0.69361   0.16518   0.16352   0.00000  Uiso   1.00
C151   C     0.95875   0.17263   0.38653   0.00000  Uiso   1.00
C152   C     0.99991   0.24577   0.25013   0.00000  Uiso   1.00
C153   C     0.70791   0.16070   0.11347   0.00000  Uiso   1.00
C154   C     0.97174   0.19649   0.45806   0.00000  Uiso   1.00
C155   C     0.69493   0.13684   0.04194   0.00000  Uiso   1.00
C156   C     0.99021   0.18767   0.41142   0.00000  Uiso   1.00
C157   C     0.67646   0.14567   0.08858   0.00000  Uiso   1.00
C158   C     0.91076   0.16407   0.40921   0.00000  Uiso   1.00
C159   C     0.75591   0.16926   0.09079   0.00000  Uiso   1.00
C160   C     0.89263   0.16931   0.45599   0.00000  Uiso   1.00
C161   C     0.77403   0.16402   0.04401   0.00000  Uiso   1.00
C162   C     0.92190   0.19014   0.47938   0.00000  Uiso   1.00
C163   C     0.84948   0.20405   0.03941   0.00000  Uiso   1.00
C164   C     0.74476   0.14320   0.02062   0.00000  Uiso   1.00
C165   C     0.84432   0.15783   0.47878   0.00000  Uiso   1.00
C166   C     0.82235   0.17550   0.02122   0.00000  Uiso   1.00
C167   C     0.81719   0.12928   0.46059   0.00000  Uiso   1.00
C168   C     0.89994   0.20668   0.02224   0.00000  Uiso   1.00
C169   C     0.76673   0.12665   0.47776   0.00000  Uiso   1.00
C170   C     0.97673   0.02114   0.28937   0.00000  Uiso   1.00
C171   C     0.68993   0.31219   0.21063   0.00000  Uiso   1.00
C172   C     0.97633   0.31137   0.29039   0.00000  Uiso   1.00
Cl173  Cl    0.94914   0.13235   0.11616   0.00000  Uiso   1.00
Cl174  Cl    0.71753   0.20098   0.38384   0.00000  Uiso   1.00
Cl175  Cl    0.82097   0.24470   0.07469   0.00000  Uiso   1.00
Cl176  Cl    0.84570   0.08863   0.42532   0.00000  Uiso   1.00
Cl177  Cl    0.94883   0.04757   0.33948   0.00000  Uiso   1.00
Cl178  Cl    0.71783   0.28576   0.16052   0.00000  Uiso   1.00
Cl179  Cl    0.76012   0.10748   0.31708   0.00000  Uiso   1.00
Cl180  Cl    0.90655   0.22585   0.18291   0.00000  Uiso   1.00
Cu181  Cu    0.71355   0.16667   0.25000   0.00000  Uiso   1.00
Cu182  Cu    0.95311   0.16666   0.25000   0.00000  Uiso   1.00
H183   H     0.78032   0.17763   0.11072   0.00000  Uiso   1.00
H184   H     0.82180   0.24002   0.17829   0.00000  Uiso   1.00
H185   H     0.88634   0.15570   0.38929   0.00000  Uiso   1.00
H186   H     0.90997   0.23057   0.07705   0.00000  Uiso   1.00
H187   H     0.75670   0.10276   0.42295   0.00000  Uiso   1.00
H188   H     0.70190   0.20708   0.46847   0.00000  Uiso   1.00
H189   H     0.96477   0.12625   0.03153   0.00000  Uiso   1.00
H190   H     0.95886   0.26111   0.32877   0.00000  Uiso   1.00
H191   H     0.70781   0.07222   0.17123   0.00000  Uiso   1.00
H192   H     0.84485   0.09334   0.32174   0.00000  Uiso   1.00
N193   N     0.78403   0.16668   0.24999   0.00000  Uiso   1.00
N194   N     0.88264   0.16666   0.25001   0.00000  Uiso   1.00
O195   O     0.70625   0.10655   0.25000   0.00000  Uiso   1.00
O196   O     0.73944   0.10405   0.45554   0.00000  Uiso   1.00
O197   O     0.66760   0.21280   0.48305   0.00000  Uiso   1.00
O198   O     0.99907   0.12053   0.01696   0.00000  Uiso   1.00
O199   O     0.95338   0.29131   0.33087   0.00000  Uiso   1.00
O200   O     0.71329   0.04202   0.16913   0.00000  Uiso   1.00
O201   O     0.86929   0.11394   0.30628   0.00000  Uiso   1.00
O202   O     0.79738   0.21939   0.19372   0.00000  Uiso   1.00
O203   O     0.96042   0.22678   0.25000   0.00000  Uiso   1.00
O204   O     0.96039   0.10654   0.25001   0.00000  Uiso   1.00
O205   O     0.70628   0.22679   0.25000   0.00000  Uiso   1.00
O206   O     0.68519   0.16668   0.31492   0.00000  Uiso   1.00
O207   O     0.98148   0.16666   0.18509   0.00000  Uiso   1.00
O208   O     0.93933   0.16667   0.31492   0.00000  Uiso   1.00
O209   O     0.72733   0.16667   0.18508   0.00000  Uiso   1.00
O210   O     0.92723   0.22929   0.04446   0.00000  Uiso   1.00
C211   C     0.00009   0.42090   0.24987   0.00000  Uiso   1.00
C212   C     0.02367   0.35530   0.20961   0.00000  Uiso   1.00
C213   C     0.33305   0.62369   0.25058   0.00000  Uiso   1.00
C214   C     0.00028   0.37631   0.24943   0.00000  Uiso   1.00
C215   C     0.18436   0.47356   0.27844   0.00000  Uiso   1.00
C216   C     0.14897   0.52644   0.22156   0.00000  Uiso   1.00
C217   C     0.13428   0.47380   0.27870   0.00000  Uiso   1.00
C218   C     0.19905   0.52620   0.22130   0.00000  Uiso   1.00
C219   C     0.30639   0.50149   0.33648   0.00000  Uiso   1.00
C220   C     0.02695   0.49851   0.16352   0.00000  Uiso   1.00
C221   C     0.29209   0.50596   0.38653   0.00000  Uiso   1.00
C222   C     0.33324   0.57910   0.25013   0.00000  Uiso   1.00
C223   C     0.04125   0.49404   0.11347   0.00000  Uiso   1.00
C224   C     0.30507   0.52982   0.45806   0.00000  Uiso   1.00
C225   C     0.02826   0.47018   0.04194   0.00000  Uiso   1.00
C226   C     0.32354   0.52100   0.41142   0.00000  Uiso   1.00
C227   C     0.00979   0.47900   0.08858   0.00000  Uiso   1.00
C228   C     0.24409   0.49741   0.40921   0.00000  Uiso   1.00
C229   C     0.08924   0.50259   0.09079   0.00000  Uiso   1.00
C230   C     0.22597   0.50265   0.45599   0.00000  Uiso   1.00
C231   C     0.10737   0.49735   0.04401   0.00000  Uiso   1.00
C232   C     0.25524   0.52347   0.47938   0.00000  Uiso   1.00
C233   C     0.18281   0.53739   0.03941   0.00000  Uiso   1.00
C234   C     0.07810   0.47653   0.02062   0.00000  Uiso   1.00
C235   C     0.17766   0.49116   0.47878   0.00000  Uiso   1.00
C236   C     0.15568   0.50884   0.02122   0.00000  Uiso   1.00
C237   C     0.15052   0.46261   0.46059   0.00000  Uiso   1.00
C238   C     0.23327   0.54001   0.02224   0.00000  Uiso   1.00
C239   C     0.10006   0.45999   0.47776   0.00000  Uiso   1.00
C240   C     0.31007   0.35448   0.28937   0.00000  Uiso   1.00
C241   C     0.02327   0.64552   0.21063   0.00000  Uiso   1.00
C242   C     0.30966   0.64470   0.29039   0.00000  Uiso   1.00
Cl243  Cl    0.28247   0.46568   0.11616   0.00000  Uiso   1.00
Cl244  Cl    0.05086   0.53431   0.38384   0.00000  Uiso   1.00
Cl245  Cl    0.15430   0.57804   0.07469   0.00000  Uiso   1.00
Cl246  Cl    0.17903   0.42196   0.42532   0.00000  Uiso   1.00
Cl247  Cl    0.28217   0.38090   0.33948   0.00000  Uiso   1.00
Cl248  Cl    0.05116   0.61910   0.16052   0.00000  Uiso   1.00
Cl249  Cl    0.09345   0.44081   0.31708   0.00000  Uiso   1.00
Cl250  Cl    0.23988   0.55918   0.18291   0.00000  Uiso   1.00
Cu251  Cu    0.04689   0.50001   0.25000   0.00000  Uiso   1.00
Cu252  Cu    0.28645   0.49999   0.25000   0.00000  Uiso   1.00
H253   H     0.11366   0.51097   0.11072   0.00000  Uiso   1.00
H254   H     0.15514   0.57335   0.17829   0.00000  Uiso   1.00
H255   H     0.21968   0.48903   0.38929   0.00000  Uiso   1.00
H256   H     0.24330   0.56391   0.07705   0.00000  Uiso   1.00
H257   H     0.09003   0.43609   0.42295   0.00000  Uiso   1.00
H258   H     0.03523   0.54042   0.46847   0.00000  Uiso   1.00
H259   H     0.29810   0.45958   0.03153   0.00000  Uiso   1.00
H260   H     0.29219   0.59444   0.32877   0.00000  Uiso   1.00
H261   H     0.04114   0.40556   0.17123   0.00000  Uiso   1.00
H262   H     0.17819   0.42667   0.32174   0.00000  Uiso   1.00
N263   N     0.11736   0.50001   0.24999   0.00000  Uiso   1.00
N264   N     0.21597   0.49999   0.25001   0.00000  Uiso   1.00
O265   O     0.03958   0.43989   0.25000   0.00000  Uiso   1.00
O266   O     0.07277   0.43738   0.45554   0.00000  Uiso   1.00
O267   O     0.00093   0.54614   0.48305   0.00000  Uiso   1.00
O268   O     0.33240   0.45386   0.01696   0.00000  Uiso   1.00
O269   O     0.28671   0.62465   0.33087   0.00000  Uiso   1.00
O270   O     0.04662   0.37535   0.16913   0.00000  Uiso   1.00
O271   O     0.20262   0.44728   0.30628   0.00000  Uiso   1.00
O272   O     0.13071   0.55273   0.19372   0.00000  Uiso   1.00
O273   O     0.29375   0.56011   0.25000   0.00000  Uiso   1.00
O274   O     0.29372   0.43988   0.25001   0.00000  Uiso   1.00
O275   O     0.03961   0.56012   0.25000   0.00000  Uiso   1.00
O276   O     0.01852   0.50001   0.31492   0.00000  Uiso   1.00
O277   O     0.31481   0.49999   0.18509   0.00000  Uiso   1.00
O278   O     0.27267   0.50000   0.31492   0.00000  Uiso   1.00
O279   O     0.06067   0.50000   0.18508   0.00000  Uiso   1.00
O280   O     0.26057   0.56262   0.04446   0.00000  Uiso   1.00
C281   C     0.33343   0.42090   0.24987   0.00000  Uiso   1.00
C282   C     0.35701   0.35530   0.20961   0.00000  Uiso   1.00
C283   C     0.66639   0.62369   0.25058   0.00000  Uiso   1.00
C284   C     0.33361   0.37631   0.24943   0.00000  Uiso   1.00
C285   C     0.51769   0.47356   0.27844   0.00000  Uiso   1.00
C286   C     0.48231   0.52644   0.22156   0.00000  Uiso   1.00
C287   C     0.46761   0.47380   0.27870   0.00000  Uiso   1.00
C288   C     0.53239   0.52620   0.22130   0.00000  Uiso   1.00
C289   C     0.63972   0.50149   0.33648   0.00000  Uiso   1.00
C290   C     0.36028   0.49851   0.16352   0.00000  Uiso   1.00
C291   C     0.62542   0.50596   0.38653   0.00000  Uiso   1.00
C292   C     0.66657   0.57910   0.25013   0.00000  Uiso   1.00
C293   C     0.37458   0.49404   0.11347   0.00000  Uiso   1.00
C294   C     0.63840   0.52982   0.45806   0.00000  Uiso   1.00
C295   C     0.36160   0.47018   0.04194   0.00000  Uiso   1.00
C296   C     0.65688   0.52100   0.41142   0.00000  Uiso   1.00
C297   C     0.34312   0.47900   0.08858   0.00000  Uiso   1.00
C298   C     0.57743   0.49741   0.40921   0.00000  Uiso   1.00
C299   C     0.42257   0.50259   0.09079   0.00000  Uiso   1.00
C300   C     0.55930   0.50265   0.45599   0.00000  Uiso   1.00
C301   C     0.44070   0.49735   0.04401   0.00000  Uiso   1.00
C302   C     0.58857   0.52347   0.47938   0.00000  Uiso   1.00
C303   C     0.51615   0.53739   0.03941   0.00000  Uiso   1.00
C304   C     0.41143   0.47653   0.02062   0.00000  Uiso   1.00
C305   C     0.51099   0.49116   0.47878   0.00000  Uiso   1.00
C306   C     0.48901   0.50884   0.02122   0.00000  Uiso   1.00
C307   C     0.48385   0.46261   0.46059   0.00000  Uiso   1.00
C308   C     0.56661   0.54001   0.02224   0.00000  Uiso   1.00
C309   C     0.43340   0.45999   0.47776   0.00000  Uiso   1.00
C310   C     0.64340   0.35448   0.28937   0.00000  Uiso   1.00
C311   C     0.35660   0.64552   0.21063   0.00000  Uiso   1.00
C312   C     0.64299   0.64470   0.29039   0.00000  Uiso   1.00
Cl313  Cl    0.61581   0.46568   0.11616   0.00000  Uiso   1.00
Cl314  Cl    0.38419   0.53431   0.38384   0.00000  Uiso   1.00
Cl315  Cl    0.48764   0.57804   0.07469   0.00000  Uiso   1.00
Cl316  Cl    0.51237   0.42196   0.42532   0.00000  Uiso   1.00
Cl317  Cl    0.61550   0.38090   0.33948   0.00000  Uiso   1.00
Cl318  Cl    0.38450   0.61910   0.16052   0.00000  Uiso   1.00
Cl319  Cl    0.42679   0.44081   0.31708   0.00000  Uiso   1.00
Cl320  Cl    0.57321   0.55918   0.18291   0.00000  Uiso   1.00
Cu321  Cu    0.38022   0.50001   0.25000   0.00000  Uiso   1.00
Cu322  Cu    0.61978   0.49999   0.25000   0.00000  Uiso   1.00
H323   H     0.44699   0.51097   0.11072   0.00000  Uiso   1.00
H324   H     0.48847   0.57335   0.17829   0.00000  Uiso   1.00
H325   H     0.55301   0.48903   0.38929   0.00000  Uiso   1.00
H326   H     0.57663   0.56391   0.07705   0.00000  Uiso   1.00
H327   H     0.42337   0.43609   0.42295   0.00000  Uiso   1.00
H328   H     0.36856   0.54042   0.46847   0.00000  Uiso   1.00
H329   H     0.63144   0.45958   0.03153   0.00000  Uiso   1.00
H330   H     0.62553   0.59444   0.32877   0.00000  Uiso   1.00
H331   H     0.37448   0.40556   0.17123   0.00000  Uiso   1.00
H332   H     0.51152   0.42667   0.32174   0.00000  Uiso   1.00
N333   N     0.45069   0.50001   0.24999   0.00000  Uiso   1.00
N334   N     0.54931   0.49999   0.25001   0.00000  Uiso   1.00
O335   O     0.37291   0.43989   0.25000   0.00000  Uiso   1.00
O336   O     0.40610   0.43738   0.45554   0.00000  Uiso   1.00
O337   O     0.33426   0.54614   0.48305   0.00000  Uiso   1.00
O338   O     0.66574   0.45386   0.01696   0.00000  Uiso   1.00
O339   O     0.62005   0.62465   0.33087   0.00000  Uiso   1.00
O340   O     0.37995   0.37535   0.16913   0.00000  Uiso   1.00
O341   O     0.53596   0.44728   0.30628   0.00000  Uiso   1.00
O342   O     0.46404   0.55273   0.19372   0.00000  Uiso   1.00
O343   O     0.62709   0.56011   0.25000   0.00000  Uiso   1.00
O344   O     0.62706   0.43988   0.25001   0.00000  Uiso   1.00
O345   O     0.37294   0.56012   0.25000   0.00000  Uiso   1.00
O346   O     0.35186   0.50001   0.31492   0.00000  Uiso   1.00
O347   O     0.64814   0.49999   0.18509   0.00000  Uiso   1.00
O348   O     0.60600   0.50000   0.31492   0.00000  Uiso   1.00
O349   O     0.39400   0.50000   0.18508   0.00000  Uiso   1.00
O350   O     0.59390   0.56262   0.04446   0.00000  Uiso   1.00
C351   C     0.66676   0.42090   0.24987   0.00000  Uiso   1.00
C352   C     0.69034   0.35530   0.20961   0.00000  Uiso   1.00
C353   C     0.99972   0.62369   0.25058   0.00000  Uiso   1.00
C354   C     0.66695   0.37631   0.24943   0.00000  Uiso   1.00
C355   C     0.85103   0.47356   0.27844   0.00000  Uiso   1.00
C356   C     0.81564   0.52644   0.22156   0.00000  Uiso   1.00
C357   C     0.80094   0.47380   0.27870   0.00000  Uiso   1.00
C358   C     0.86572   0.52620   0.22130   0.00000  Uiso   1.00
C359   C     0.97305   0.50149   0.33648   0.00000  Uiso   1.00
C360   C     0.69361   0.49851   0.16352   0.00000  Uiso   1.00
C361   C     0.95875   0.50596   0.38653   0.00000  Uiso   1.00
C362   C     0.99991   0.57910   0.25013   0.00000  Uiso   1.00
C363   C     0.70791   0.49404   0.11347   0.00000  Uiso   1.00
C364   C     0.97174   0.52982   0.45806   0.00000  Uiso   1.00
C365   C     0.69493   0.47018   0.04194   0.00000  Uiso   1.00
C366   C     0.99021   0.52100   0.41142   0.00000  Uiso   1.00
C367   C     0.67646   0.47900   0.08858   0.00000  Uiso   1.00
C368   C     0.91076   0.49741   0.40921   0.00000  Uiso   1.00
C369   C     0.75591   0.50259   0.09079   0.00000  Uiso   1.00
C370   C     0.89263   0.50265   0.45599   0.00000  Uiso   1.00
C371   C     0.77403   0.49735   0.04401   0.00000  Uiso   1.00
C372   C     0.92190   0.52347   0.47938   0.00000  Uiso   1.00
C373   C     0.84948   0.53739   0.03941   0.00000  Uiso   1.00
C374   C     0.74476   0.47653   0.02062   0.00000  Uiso   1.00
C375   C     0.84432   0.49116   0.47878   0.00000  Uiso   1.00
C376   C     0.82235   0.50884   0.02122   0.00000  Uiso   1.00
C377   C     0.81719   0.46261   0.46059   0.00000  Uiso   1.00
C378   C     0.89994   0.54001   0.02224   0.00000  Uiso   1.00
C379   C     0.76673   0.45999   0.47776   0.00000  Uiso   1.00
C380   C     0.97673   0.35448   0.28937   0.00000  Uiso   1.00
C381   C     0.68993   0.64552   0.21063   0.00000  Uiso   1.00
C382   C     0.97633   0.64470   0.29039   0.00000  Uiso   1.00
Cl383  Cl    0.94914   0.46568   0.11616   0.00000  Uiso   1.00
Cl384  Cl    0.71753   0.53431   0.38384   0.00000  Uiso   1.00
Cl385  Cl    0.82097   0.57804   0.07469   0.00000  Uiso   1.00
Cl386  Cl    0.84570   0.42196   0.42532   0.00000  Uiso   1.00
Cl387  Cl    0.94883   0.38090   0.33948   0.00000  Uiso   1.00
Cl388  Cl    0.71783   0.61910   0.16052   0.00000  Uiso   1.00
Cl389  Cl    0.76012   0.44081   0.31708   0.00000  Uiso   1.00
Cl390  Cl    0.90655   0.55918   0.18291   0.00000  Uiso   1.00
Cu391  Cu    0.71355   0.50001   0.25000   0.00000  Uiso   1.00
Cu392  Cu    0.95311   0.49999   0.25000   0.00000  Uiso   1.00
H393   H     0.78032   0.51097   0.11072   0.00000  Uiso   1.00
H394   H     0.82180   0.57335   0.17829   0.00000  Uiso   1.00
H395   H     0.88634   0.48903   0.38929   0.00000  Uiso   1.00
H396   H     0.90997   0.56391   0.07705   0.00000  Uiso   1.00
H397   H     0.75670   0.43609   0.42295   0.00000  Uiso   1.00
H398   H     0.70190   0.54042   0.46847   0.00000  Uiso   1.00
H399   H     0.96477   0.45958   0.03153   0.00000  Uiso   1.00
H400   H     0.95886   0.59444   0.32877   0.00000  Uiso   1.00
H401   H     0.70781   0.40556   0.17123   0.00000  Uiso   1.00
H402   H     0.84485   0.42667   0.32174   0.00000  Uiso   1.00
N403   N     0.78403   0.50001   0.24999   0.00000  Uiso   1.00
N404   N     0.88264   0.49999   0.25001   0.00000  Uiso   1.00
O405   O     0.70625   0.43989   0.25000   0.00000  Uiso   1.00
O406   O     0.73944   0.43738   0.45554   0.00000  Uiso   1.00
O407   O     0.66760   0.54614   0.48305   0.00000  Uiso   1.00
O408   O     0.99907   0.45386   0.01696   0.00000  Uiso   1.00
O409   O     0.95338   0.62465   0.33087   0.00000  Uiso   1.00
O410   O     0.71329   0.37535   0.16913   0.00000  Uiso   1.00
O411   O     0.86929   0.44728   0.30628   0.00000  Uiso   1.00
O412   O     0.79738   0.55273   0.19372   0.00000  Uiso   1.00
O413   O     0.96042   0.56011   0.25000   0.00000  Uiso   1.00
O414   O     0.96039   0.43988   0.25001   0.00000  Uiso   1.00
O415   O     0.70628   0.56012   0.25000   0.00000  Uiso   1.00
O416   O     0.68519   0.50001   0.31492   0.00000  Uiso   1.00
O417   O     0.98148   0.49999   0.18509   0.00000  Uiso   1.00
O418   O     0.93933   0.50000   0.31492   0.00000  Uiso   1.00
O419   O     0.72733   0.50000   0.18508   0.00000  Uiso   1.00
O420   O     0.92723   0.56262   0.04446   0.00000  Uiso   1.00
C421   C     0.00009   0.75423   0.24987   0.00000  Uiso   1.00
C422   C     0.02367   0.68863   0.20961   0.00000  Uiso   1.00
C423   C     0.33305   0.95703   0.25058   0.00000  Uiso   1.00
C424   C     0.00028   0.70964   0.24943   0.00000  Uiso   1.00
C425   C     0.18436   0.80689   0.27844   0.00000  Uiso   1.00
C426   C     0.14897   0.85978   0.22156   0.00000  Uiso   1.00
C427   C     0.13428   0.80713   0.27870   0.00000  Uiso   1.00
C428   C     0.19905   0.85953   0.22130   0.00000  Uiso   1.00
C429   C     0.30639   0.83482   0.33648   0.00000  Uiso   1.00
C430   C     0.02695   0.83184   0.16352   0.00000  Uiso   1.00
C431   C     0.29209   0.83930   0.38653   0.00000  Uiso   1.00
C432   C     0.33324   0.91244   0.25013   0.00000  Uiso   1.00
C433   C     0.04125   0.82737   0.11347   0.00000  Uiso   1.00
C434   C     0.30507   0.86315   0.45806   0.00000  Uiso   1.00
C435   C     0.02826   0.80351   0.04194   0.00000  Uiso   1.00
C436   C     0.32354   0.85433   0.41142   0.00000  Uiso   1.00
C437   C     0.00979   0.81233   0.08858   0.00000  Uiso   1.00
C438   C     0.24409   0.83074   0.40921   0.00000  Uiso   1.00
C439   C     0.08924   0.83593   0.09079   0.00000  Uiso   1.00
C440   C     0.22597   0.83598   0.45599   0.00000  Uiso   1.00
C441   C     0.10737   0.83069   0.04401   0.00000  Uiso   1.00
C442   C     0.25524   0.85680   0.47938   0.00000  Uiso   1.00
C443   C     0.18281   0.87072   0.03941   0.00000  Uiso   1.00
C444   C     0.07810   0.80986   0.02062   0.00000  Uiso   1.00
C445   C     0.17766   0.82450   0.47878   0.00000  Uiso   1.00
C446   C     0.15568   0.84217   0.02122   0.00000  Uiso   1.00
C447   C     0.15052   0.79594   0.46059   0.00000  Uiso   1.00
C448   C     0.23327   0.87334   0.02224   0.00000  Uiso   1.00
C449   C     0.10006   0.79332   0.47776   0.00000  Uiso   1.00
C450   C     0.31007   0.68781   0.28937   0.00000  Uiso   1.00
C451   C     0.02327   0.97886   0.21063   0.00000  Uiso   1.00
C452   C     0.30966   0.97803   0.29039   0.00000  Uiso   1.00
Cl453  Cl    0.28247   0.79902   0.11616   0.00000  Uiso   1.00
Cl454  Cl    0.05086   0.86765   0.38384   0.00000  Uiso   1.00
Cl455  Cl    0.15430   0.91137   0.07469   0.00000  Uiso   1.00
Cl456  Cl    0.17903   0.75529   0.42532   0.00000  Uiso   1.00
Cl457  Cl    0.28217   0.71424   0.33948   0.00000  Uiso   1.00
Cl458  Cl    0.05116   0.95243   0.16052   0.00000  Uiso   1.00
Cl459  Cl    0.09345   0.77415   0.31708   0.00000  Uiso   1.00
Cl460  Cl    0.23988   0.89252   0.18291   0.00000  Uiso   1.00
Cu461  Cu    0.04689   0.83334   0.25000   0.00000  Uiso   1.00
Cu462  Cu    0.28645   0.83333   0.25000   0.00000  Uiso   1.00
H463   H     0.11366   0.84430   0.11072   0.00000  Uiso   1.00
H464   H     0.15514   0.90669   0.17829   0.00000  Uiso   1.00
H465   H     0.21968   0.82237   0.38929   0.00000  Uiso   1.00
H466   H     0.24330   0.89724   0.07705   0.00000  Uiso   1.00
H467   H     0.09003   0.76942   0.42295   0.00000  Uiso   1.00
H468   H     0.03523   0.87375   0.46847   0.00000  Uiso   1.00
H469   H     0.29810   0.79292   0.03153   0.00000  Uiso   1.00
H470   H     0.29219   0.92778   0.32877   0.00000  Uiso   1.00
H471   H     0.04114   0.73889   0.17123   0.00000  Uiso   1.00
H472   H     0.17819   0.76000   0.32174   0.00000  Uiso   1.00
N473   N     0.11736   0.83334   0.24999   0.00000  Uiso   1.00
N474   N     0.21597   0.83332   0.25001   0.00000  Uiso   1.00
O475   O     0.03958   0.77322   0.25000   0.00000  Uiso   1.00
O476   O     0.07277   0.77071   0.45554   0.00000  Uiso   1.00
O477   O     0.00093   0.87947   0.48305   0.00000  Uiso   1.00
O478   O     0.33240   0.78719   0.01696   0.00000  Uiso   1.00
O479   O     0.28671   0.95798   0.33087   0.00000  Uiso   1.00
O480   O     0.04662   0.70869   0.16913   0.00000  Uiso   1.00
O481   O     0.20262   0.78061   0.30628   0.00000  Uiso   1.00
O482   O     0.13071   0.88606   0.19372   0.00000  Uiso   1.00
O483   O     0.29375   0.89345   0.25000   0.00000  Uiso   1.00
O484   O     0.29372   0.77321   0.25001   0.00000  Uiso   1.00
O485   O     0.03961   0.89346   0.25000   0.00000  Uiso   1.00
O486   O     0.01852   0.83334   0.31492   0.00000  Uiso   1.00
O487   O     0.31481   0.83332   0.18509   0.00000  Uiso   1.00
O488   O     0.27267   0.83333   0.31492   0.00000  Uiso   1.00
O489   O     0.06067   0.83333   0.18508   0.00000  Uiso   1.00
O490   O     0.26057   0.89595   0.04446   0.00000  Uiso   1.00
C491   C     0.33343   0.75423   0.24987   0.00000  Uiso   1.00
C492   C     0.35701   0.68863   0.20961   0.00000  Uiso   1.00
C493   C     0.66639   0.95703   0.25058   0.00000  Uiso   1.00
C494   C     0.33361   0.70964   0.24943   0.00000  Uiso   1.00
C495   C     0.51769   0.80689   0.27844   0.00000  Uiso   1.00
C496   C     0.48231   0.85978   0.22156   0.00000  Uiso   1.00
C497   C     0.46761   0.80713   0.27870   0.00000  Uiso   1.00
C498   C     0.53239   0.85953   0.22130   0.00000  Uiso   1.00
C499   C     0.63972   0.83482   0.33648   0.00000  Uiso   1.00
C500   C     0.36028   0.83184   0.16352   0.00000  Uiso   1.00
C501   C     0.62542   0.83930   0.38653   0.00000  Uiso   1.00
C502   C     0.66657   0.91244   0.25013   0.00000  Uiso   1.00
C503   C     0.37458   0.82737   0.11347   0.00000  Uiso   1.00
C504   C     0.63840   0.86315   0.45806   0.00000  Uiso   1.00
C505   C     0.36160   0.80351   0.04194   0.00000  Uiso   1.00
C506   C     0.65688   0.85433   0.41142   0.00000  Uiso   1.00
C507   C     0.34312   0.81233   0.08858   0.00000  Uiso   1.00
C508   C     0.57743   0.83074   0.40921   0.00000  Uiso   1.00
C509   C     0.42257   0.83593   0.09079   0.00000  Uiso   1.00
C510   C     0.55930   0.83598   0.45599   0.00000  Uiso   1.00
C511   C     0.44070   0.83069   0.04401   0.00000  Uiso   1.00
C512   C     0.58857   0.85680   0.47938   0.00000  Uiso   1.00
C513   C     0.51615   0.87072   0.03941   0.00000  Uiso   1.00
C514   C     0.41143   0.80986   0.02062   0.00000  Uiso   1.00
C515   C     0.51099   0.82450   0.47878   0.00000  Uiso   1.00
C516   C     0.48901   0.84217   0.02122   0.00000  Uiso   1.00
C517   C     0.48385   0.79594   0.46059   0.00000  Uiso   1.00
C518   C     0.56661   0.87334   0.02224   0.00000  Uiso   1.00
C519   C     0.43340   0.79332   0.47776   0.00000  Uiso   1.00
C520   C     0.64340   0.68781   0.28937   0.00000  Uiso   1.00
C521   C     0.35660   0.97886   0.21063   0.00000  Uiso   1.00
C522   C     0.64299   0.97803   0.29039   0.00000  Uiso   1.00
Cl523  Cl    0.61581   0.79902   0.11616   0.00000  Uiso   1.00
Cl524  Cl    0.38419   0.86765   0.38384   0.00000  Uiso   1.00
Cl525  Cl    0.48764   0.91137   0.07469   0.00000  Uiso   1.00
Cl526  Cl    0.51237   0.75529   0.42532   0.00000  Uiso   1.00
Cl527  Cl    0.61550   0.71424   0.33948   0.00000  Uiso   1.00
Cl528  Cl    0.38450   0.95243   0.16052   0.00000  Uiso   1.00
Cl529  Cl    0.42679   0.77415   0.31708   0.00000  Uiso   1.00
Cl530  Cl    0.57321   0.89252   0.18291   0.00000  Uiso   1.00
Cu531  Cu    0.38022   0.83334   0.25000   0.00000  Uiso   1.00
Cu532  Cu    0.61978   0.83333   0.25000   0.00000  Uiso   1.00
H533   H     0.44699   0.84430   0.11072   0.00000  Uiso   1.00
H534   H     0.48847   0.90669   0.17829   0.00000  Uiso   1.00
H535   H     0.55301   0.82237   0.38929   0.00000  Uiso   1.00
H536   H     0.57663   0.89724   0.07705   0.00000  Uiso   1.00
H537   H     0.42337   0.76942   0.42295   0.00000  Uiso   1.00
H538   H     0.36856   0.87375   0.46847   0.00000  Uiso   1.00
H539   H     0.63144   0.79292   0.03153   0.00000  Uiso   1.00
H540   H     0.62553   0.92778   0.32877   0.00000  Uiso   1.00
H541   H     0.37448   0.73889   0.17123   0.00000  Uiso   1.00
H542   H     0.51152   0.76000   0.32174   0.00000  Uiso   1.00
N543   N     0.45069   0.83334   0.24999   0.00000  Uiso   1.00
N544   N     0.54931   0.83332   0.25001   0.00000  Uiso   1.00
O545   O     0.37291   0.77322   0.25000   0.00000  Uiso   1.00
O546   O     0.40610   0.77071   0.45554   0.00000  Uiso   1.00
O547   O     0.33426   0.87947   0.48305   0.00000  Uiso   1.00
O548   O     0.66574   0.78719   0.01696   0.00000  Uiso   1.00
O549   O     0.62005   0.95798   0.33087   0.00000  Uiso   1.00
O550   O     0.37995   0.70869   0.16913   0.00000  Uiso   1.00
O551   O     0.53596   0.78061   0.30628   0.00000  Uiso   1.00
O552   O     0.46404   0.88606   0.19372   0.00000  Uiso   1.00
O553   O     0.62709   0.89345   0.25000   0.00000  Uiso   1.00
O554   O     0.62706   0.77321   0.25001   0.00000  Uiso   1.00
O555   O     0.37294   0.89346   0.25000   0.00000  Uiso   1.00
O556   O     0.35186   0.83334   0.31492   0.00000  Uiso   1.00
O557   O     0.64814   0.83332   0.18509   0.00000  Uiso   1.00
O558   O     0.60600   0.83333   0.31492   0.00000  Uiso   1.00
O559   O     0.39400   0.83333   0.18508   0.00000  Uiso   1.00
O560   O     0.59390   0.89595   0.04446   0.00000  Uiso   1.00
C561   C     0.66676   0.75423   0.24987   0.00000  Uiso   1.00
C562   C     0.69034   0.68863   0.20961   0.00000  Uiso   1.00
C563   C     0.99972   0.95703   0.25058   0.00000  Uiso   1.00
C564   C     0.66695   0.70964   0.24943   0.00000  Uiso   1.00
C565   C     0.85103   0.80689   0.27844   0.00000  Uiso   1.00
C566   C     0.81564   0.85978   0.22156   0.00000  Uiso   1.00
C567   C     0.80094   0.80713   0.27870   0.00000  Uiso   1.00
C568   C     0.86572   0.85953   0.22130   0.00000  Uiso   1.00
C569   C     0.97305   0.83482   0.33648   0.00000  Uiso   1.00
C570   C     0.69361   0.83184   0.16352   0.00000  Uiso   1.00
C571   C     0.95875   0.83930   0.38653   0.00000  Uiso   1.00
C572   C     0.99991   0.91244   0.25013   0.00000  Uiso   1.00
C573   C     0.70791   0.82737   0.11347   0.00000  Uiso   1.00
C574   C     0.97174   0.86315   0.45806   0.00000  Uiso   1.00
C575   C     0.69493   0.80351   0.04194   0.00000  Uiso   1.00
C576   C     0.99021   0.85433   0.41142   0.00000  Uiso   1.00
C577   C     0.67646   0.81233   0.08858   0.00000  Uiso   1.00
C578   C     0.91076   0.83074   0.40921   0.00000  Uiso   1.00
C579   C     0.75591   0.83593   0.09079   0.00000  Uiso   1.00
C580   C     0.89263   0.83598   0.45599   0.00000  Uiso   1.00
C581   C     0.77403   0.83069   0.04401   0.00000  Uiso   1.00
C582   C     0.92190   0.85680   0.47938   0.00000  Uiso   1.00
C583   C     0.84948   0.87072   0.03941   0.00000  Uiso   1.00
C584   C     0.74476   0.80986   0.02062   0.00000  Uiso   1.00
C585   C     0.84432   0.82450   0.47878   0.00000  Uiso   1.00
C586   C     0.82235   0.84217   0.02122   0.00000  Uiso   1.00
C587   C     0.81719   0.79594   0.46059   0.00000  Uiso   1.00
C588   C     0.89994   0.87334   0.02224   0.00000  Uiso   1.00
C589   C     0.76673   0.79332   0.47776   0.00000  Uiso   1.00
C590   C     0.97673   0.68781   0.28937   0.00000  Uiso   1.00
C591   C     0.68993   0.97886   0.21063   0.00000  Uiso   1.00
C592   C     0.97633   0.97803   0.29039   0.00000  Uiso   1.00
Cl593  Cl    0.94914   0.79902   0.11616   0.00000  Uiso   1.00
Cl594  Cl    0.71753   0.86765   0.38384   0.00000  Uiso   1.00
Cl595  Cl    0.82097   0.91137   0.07469   0.00000  Uiso   1.00
Cl596  Cl    0.84570   0.75529   0.42532   0.00000  Uiso   1.00
Cl597  Cl    0.94883   0.71424   0.33948   0.00000  Uiso   1.00
Cl598  Cl    0.71783   0.95243   0.16052   0.00000  Uiso   1.00
Cl599  Cl    0.76012   0.77415   0.31708   0.00000  Uiso   1.00
Cl600  Cl    0.90655   0.89252   0.18291   0.00000  Uiso   1.00
Cu601  Cu    0.71355   0.83334   0.25000   0.00000  Uiso   1.00
Cu602  Cu    0.95311   0.83333   0.25000   0.00000  Uiso   1.00
H603   H     0.78032   0.84430   0.11072   0.00000  Uiso   1.00
H604   H     0.82180   0.90669   0.17829   0.00000  Uiso   1.00
H605   H     0.88634   0.82237   0.38929   0.00000  Uiso   1.00
H606   H     0.90997   0.89724   0.07705   0.00000  Uiso   1.00
H607   H     0.75670   0.76942   0.42295   0.00000  Uiso   1.00
H608   H     0.70190   0.87375   0.46847   0.00000  Uiso   1.00
H609   H     0.96477   0.79292   0.03153   0.00000  Uiso   1.00
H610   H     0.95886   0.92778   0.32877   0.00000  Uiso   1.00
H611   H     0.70781   0.73889   0.17123   0.00000  Uiso   1.00
H612   H     0.84485   0.76000   0.32174   0.00000  Uiso   1.00
N613   N     0.78403   0.83334   0.24999   0.00000  Uiso   1.00
N614   N     0.88264   0.83332   0.25001   0.00000  Uiso   1.00
O615   O     0.70625   0.77322   0.25000   0.00000  Uiso   1.00
O616   O     0.73944   0.77071   0.45554   0.00000  Uiso   1.00
O617   O     0.66760   0.87947   0.48305   0.00000  Uiso   1.00
O618   O     0.99907   0.78719   0.01696   0.00000  Uiso   1.00
O619   O     0.95338   0.95798   0.33087   0.00000  Uiso   1.00
O620   O     0.71329   0.70869   0.16913   0.00000  Uiso   1.00
O621   O     0.86929   0.78061   0.30628   0.00000  Uiso   1.00
O622   O     0.79738   0.88606   0.19372   0.00000  Uiso   1.00
O623   O     0.96042   0.89345   0.25000   0.00000  Uiso   1.00
O624   O     0.96039   0.77321   0.25001   0.00000  Uiso   1.00
O625   O     0.70628   0.89346   0.25000   0.00000  Uiso   1.00
O626   O     0.68519   0.83334   0.31492   0.00000  Uiso   1.00
O627   O     0.98148   0.83332   0.18509   0.00000  Uiso   1.00
O628   O     0.93933   0.83333   0.31492   0.00000  Uiso   1.00
O629   O     0.72733   0.83333   0.18508   0.00000  Uiso   1.00
O630   O     0.92723   0.89595   0.04446   0.00000  Uiso   1.00
C631   C     0.00009   0.08756   0.74987   0.00000  Uiso   1.00
C632   C     0.02367   0.02197   0.70961   0.00000  Uiso   1.00
C633   C     0.33305   0.29036   0.75058   0.00000  Uiso   1.00
C634   C     0.00028   0.04297   0.74943   0.00000  Uiso   1.00
C635   C     0.18436   0.14023   0.77844   0.00000  Uiso   1.00
C636   C     0.14897   0.19311   0.72156   0.00000  Uiso   1.00
C637   C     0.13428   0.14047   0.77870   0.00000  Uiso   1.00
C638   C     0.19905   0.19287   0.72130   0.00000  Uiso   1.00
C639   C     0.30639   0.16816   0.83648   0.00000  Uiso   1.00
C640   C     0.02695   0.16518   0.66352   0.00000  Uiso   1.00
C641   C     0.29209   0.17263   0.88653   0.00000  Uiso   1.00
C642   C     0.33324   0.24577   0.75013   0.00000  Uiso   1.00
C643   C     0.04125   0.16070   0.61347   0.00000  Uiso   1.00
C644   C     0.30507   0.19649   0.95806   0.00000  Uiso   1.00
C645   C     0.02826   0.13684   0.54194   0.00000  Uiso   1.00
C646   C     0.32354   0.18767   0.91142   0.00000  Uiso   1.00
C647   C     0.00979   0.14567   0.58858   0.00000  Uiso   1.00
C648   C     0.24409   0.16407   0.90921   0.00000  Uiso   1.00
C649   C     0.08924   0.16926   0.59079   0.00000  Uiso   1.00
C650   C     0.22597   0.16931   0.95599   0.00000  Uiso   1.00
C651   C     0.10737   0.16402   0.54401   0.00000  Uiso   1.00
C652   C     0.25524   0.19014   0.97938   0.00000  Uiso   1.00
C653   C     0.18281   0.20405   0.53941   0.00000  Uiso   1.00
C654   C     0.07810   0.14320   0.52062   0.00000  Uiso   1.00
C655   C     0.17766   0.15783   0.97878   0.00000  Uiso   1.00
C656   C     0.15568   0.17550   0.52122   0.00000  Uiso   1.00
C657   C     0.15052   0.12928   0.96059   0.00000  Uiso   1.00
C658   C     0.23327   0.20668   0.52224   0.00000  Uiso   1.00
C659   C     0.10006   0.12665   0.97776   0.00000  Uiso   1.00
C660   C     0.31007   0.02114   0.78937   0.00000  Uiso   1.00
C661   C     0.02327   0.31219   0.71063   0.00000  Uiso   1.00
C662   C     0.30966   0.31137   0.79039   0.00000  Uiso   1.00
Cl663  Cl    0.28247   0.13235   0.61616   0.00000  Uiso   1.00
Cl664  Cl    0.05086   0.20098   0.88384   0.00000  Uiso   1.00
Cl665  Cl    0.15430   0.24470   0.57469   0.00000  Uiso   1.00
Cl666  Cl    0.17903   0.08863   0.92532   0.00000  Uiso   1.00
Cl667  Cl    0.28217   0.04757   0.83948   0.00000  Uiso   1.00
Cl668  Cl    0.05116   0.28576   0.66052   0.00000  Uiso   1.00
Cl669  Cl    0.09345   0.10748   0.81708   0.00000  Uiso   1.00
Cl670  Cl    0.23988   0.22585   0.68291   0.00000  Uiso   1.00
Cu671  Cu    0.04689   0.16667   0.75000   0.00000  Uiso   1.00
Cu672  Cu    0.28645   0.16666   0.75000   0.00000  Uiso   1.00
H673   H     0.11366   0.17763   0.61072   0.00000  Uiso   1.00
H674   H     0.15514   0.24002   0.67829   0.00000  Uiso   1.00
H675   H     0.21968   0.15570   0.88929   0.00000  Uiso   1.00
H676   H     0.24330   0.23057   0.57705   0.00000  Uiso   1.00
H677   H     0.09003   0.10276   0.92295   0.00000  Uiso   1.00
H678   H     0.03523   0.20708   0.96847   0.00000  Uiso   1.00
H679   H     0.29810   0.12625   0.53153   0.00000  Uiso   1.00
H680   H     0.29219   0.26111   0.82877   0.00000  Uiso   1.00
H681   H     0.04114   0.07222   0.67123   0.00000  Uiso   1.00
H682   H     0.17819   0.09334   0.82174   0.00000  Uiso   1.00
N683   N     0.11736   0.16668   0.74999   0.00000  Uiso   1.00
N684   N     0.21597   0.16666   0.75001   0.00000  Uiso   1.00
O685   O     0.03958   0.10655   0.75000   0.00000  Uiso   1.00
O686   O     0.07277   0.10405   0.95554   0.00000  Uiso   1.00
O687   O     0.00093   0.21280   0.98305   0.00000  Uiso   1.00
O688   O     0.33240   0.12053   0.51696   0.00000  Uiso   1.00
O689   O     0.28671   0.29131   0.83087   0.00000  Uiso   1.00
O690   O     0.04662   0.04202   0.66913   0.00000  Uiso   1.00
O691   O     0.20262   0.11394   0.80628   0.00000  Uiso   1.00
O692   O     0.13071   0.21939   0.69372   0.00000  Uiso   1.00
O693   O     0.29375   0.22678   0.75000   0.00000  Uiso   1.00
O694   O     0.29372   0.10654   0.75001   0.00000  Uiso   1.00
O695   O     0.03961   0.22679   0.75000   0.00000  Uiso   1.00
O696   O     0.01852   0.16668   0.81492   0.00000  Uiso   1.00
O697   O     0.31481   0.16666   0.68509   0.00000  Uiso   1.00
O698   O     0.27267   0.16667   0.81492   0.00000  Uiso   1.00
O699   O     0.06067   0.16667   0.68508   0.00000  Uiso   1.00
O700   O     0.26057   0.22929   0.54446   0.00000  Uiso   1.00
C701   C     0.33343   0.08756   0.74987   0.00000  Uiso   1.00
C702   C     0.35701   0.02197   0.70961   0.00000  Uiso   1.00
C703   C     0.66639   0.29036   0.75058   0.00000  Uiso   1.00
C704   C     0.33361   0.04297   0.74943   0.00000  Uiso   1.00
C705   C     0.51769   0.14023   0.77844   0.00000  Uiso   1.00
C706   C     0.48231   0.19311   0.72156   0.00000  Uiso   1.00
C707   C     0.46761   0.14047   0.77870   0.00000  Uiso   1.00
C708   C     0.53239   0.19287   0.72130   0.00000  Uiso   1.00
C709   C     0.63972   0.16816   0.83648   0.00000  Uiso   1.00
C710   C     0.36028   0.16518   0.66352   0.00000  Uiso   1.00
C711   C     0.62542   0.17263   0.88653   0.00000  Uiso   1.00
C712   C     0.66657   0.24577   0.75013   0.00000  Uiso   1.00
C713   C     0.37458   0.16070   0.61347   0.00000  Uiso   1.00
C714   C     0.63840   0.19649   0.95806   0.00000  Uiso   1.00
C715   C     0.36160   0.13684   0.54194   0.00000  Uiso   1.00
C716   C     0.65688   0.18767   0.91142   0.00000  Uiso   1.00
C717   C     0.34312   0.14567   0.58858   0.00000  Uiso   1.00
C718   C     0.57743   0.16407   0.90921   0.00000  Uiso   1.00
C719   C     0.42257   0.16926   0.59079   0.00000  Uiso   1.00
C720   C     0.55930   0.16931   0.95599   0.00000  Uiso   1.00
C721   C     0.44070   0.16402   0.54401   0.00000  Uiso   1.00
C722   C     0.58857   0.19014   0.97938   0.00000  Uiso   1.00
C723   C     0.51615   0.20405   0.53941   0.00000  Uiso   1.00
C724   C     0.41143   0.14320   0.52062   0.00000  Uiso   1.00
C725   C     0.51099   0.15783   0.97878   0.00000  Uiso   1.00
C726   C     0.48901   0.17550   0.52122   0.00000  Uiso   1.00
C727   C     0.48385   0.12928   0.96059   0.00000  Uiso   1.00
C728   C     0.56661   0.20668   0.52224   0.00000  Uiso   1.00
C729   C     0.43340   0.12665   0.97776   0.00000  Uiso   1.00
C730   C     0.64340   0.02114   0.78937   0.00000  Uiso   1.00
C731   C     0.35660   0.31219   0.71063   0.00000  Uiso   1.00
C732   C     0.64299   0.31137   0.79039   0.00000  Uiso   1.00
Cl733  Cl    0.61581   0.13235   0.61616   0.00000  Uiso   1.00
Cl734  Cl    0.38419   0.20098   0.88384   0.00000  Uiso   1.00
Cl735  Cl    0.48764   0.24470   0.57469   0.00000  Uiso   1.00
Cl736  Cl    0.51237   0.08863   0.92532   0.00000  Uiso   1.00
Cl737  Cl    0.61550   0.04757   0.83948   0.00000  Uiso   1.00
Cl738  Cl    0.38450   0.28576   0.66052   0.00000  Uiso   1.00
Cl739  Cl    0.42679   0.10748   0.81708   0.00000  Uiso   1.00
Cl740  Cl    0.57321   0.22585   0.68291   0.00000  Uiso   1.00
Cu741  Cu    0.38022   0.16667   0.75000   0.00000  Uiso   1.00
Cu742  Cu    0.61978   0.16666   0.75000   0.00000  Uiso   1.00
H743   H     0.44699   0.17763   0.61072   0.00000  Uiso   1.00
H744   H     0.48847   0.24002   0.67829   0.00000  Uiso   1.00
H745   H     0.55301   0.15570   0.88929   0.00000  Uiso   1.00
H746   H     0.57663   0.23057   0.57705   0.00000  Uiso   1.00
H747   H     0.42337   0.10276   0.92295   0.00000  Uiso   1.00
H748   H     0.36856   0.20708   0.96847   0.00000  Uiso   1.00
H749   H     0.63144   0.12625   0.53153   0.00000  Uiso   1.00
H750   H     0.62553   0.26111   0.82877   0.00000  Uiso   1.00
H751   H     0.37448   0.07222   0.67123   0.00000  Uiso   1.00
H752   H     0.51152   0.09334   0.82174   0.00000  Uiso   1.00
N753   N     0.45069   0.16668   0.74999   0.00000  Uiso   1.00
N754   N     0.54931   0.16666   0.75001   0.00000  Uiso   1.00
O755   O     0.37291   0.10655   0.75000   0.00000  Uiso   1.00
O756   O     0.40610   0.10405   0.95554   0.00000  Uiso   1.00
O757   O     0.33426   0.21280   0.98305   0.00000  Uiso   1.00
O758   O     0.66574   0.12053   0.51696   0.00000  Uiso   1.00
O759   O     0.62005   0.29131   0.83087   0.00000  Uiso   1.00
O760   O     0.37995   0.04202   0.66913   0.00000  Uiso   1.00
O761   O     0.53596   0.11394   0.80628   0.00000  Uiso   1.00
O762   O     0.46404   0.21939   0.69372   0.00000  Uiso   1.00
O763   O     0.62709   0.22678   0.75000   0.00000  Uiso   1.00
O764   O     0.62706   0.10654   0.75001   0.00000  Uiso   1.00
O765   O     0.37294   0.22679   0.75000   0.00000  Uiso   1.00
O766   O     0.35186   0.16668   0.81492   0.00000  Uiso   1.00
O767   O     0.64814   0.16666   0.68509   0.00000  Uiso   1.00
O768   O     0.60600   0.16667   0.81492   0.00000  Uiso   1.00
O769   O     0.39400   0.16667   0.68508   0.00000  Uiso   1.00
O770   O     0.59390   0.22929   0.54446   0.00000  Uiso   1.00
C771   C     0.66676   0.08756   0.74987   0.00000  Uiso   1.00
C772   C     0.69034   0.02197   0.70961   0.00000  Uiso   1.00
C773   C     0.99972   0.29036   0.75058   0.00000  Uiso   1.00
C774   C     0.66695   0.04297   0.74943   0.00000  Uiso   1.00
C775   C     0.85103   0.14023   0.77844   0.00000  Uiso   1.00
C776   C     0.81564   0.19311   0.72156   0.00000  Uiso   1.00
C777   C     0.80094   0.14047   0.77870   0.00000  Uiso   1.00
C778   C     0.86572   0.19287   0.72130   0.00000  Uiso   1.00
C779   C     0.97305   0.16816   0.83648   0.00000  Uiso   1.00
C780   C     0.69361   0.16518   0.66352   0.00000  Uiso   1.00
C781   C     0.95875   0.17263   0.88653   0.00000  Uiso   1.00
C782   C     0.99991   0.24577   0.75013   0.00000  Uiso   1.00
C783   C     0.70791   0.16070   0.61347   0.00000  Uiso   1.00
C784   C     0.97174   0.19649   0.95806   0.00000  Uiso   1.00
C785   C     0.69493   0.13684   0.54194   0.00000  Uiso   1.00
C786   C     0.99021   0.18767   0.91142   0.00000  Uiso   1.00
C787   C     0.67646   0.14567   0.58858   0.00000  Uiso   1.00
C788   C     0.91076   0.16407   0.90921   0.00000  Uiso   1.00
C789   C     0.75591   0.16926   0.59079   0.00000  Uiso   1.00
C790   C     0.89263   0.16931   0.95599   0.00000  Uiso   1.00
C791   C     0.77403   0.16402   0.54401   0.00000  Uiso   1.00
C792   C     0.92190   0.19014   0.97938   0.00000  Uiso   1.00
C793   C     0.84948   0.20405   0.53941   0.00000  Uiso   1.00
C794   C     0.74476   0.14320   0.52062   0.00000  Uiso   1.00
C795   C     0.84432   0.15783   0.97878   0.00000  Uiso   1.00
C796   C     0.82235   0.17550   0.52122   0.00000  Uiso   1.00
C797   C     0.81719   0.12928   0.96059   0.00000  Uiso   1.00
C798   C     0.89994   0.20668   0.52224   0.00000  Uiso   1.00
C799   C     0.76673   0.12665   0.97776   0.00000  Uiso   1.00
C800   C     0.97673   0.02114   0.78937   0.00000  Uiso   1.00
C801   C     0.68993   0.31219   0.71063   0.00000  Uiso   1.00
C802   C     0.97633   0.31137   0.79039   0.00000  Uiso   1.00
Cl803  Cl    0.94914   0.13235   0.61616   0.00000  Uiso   1.00
Cl804  Cl    0.71753   0.20098   0.88384   0.00000  Uiso   1.00
Cl805  Cl    0.82097   0.24470   0.57469   0.00000  Uiso   1.00
Cl806  Cl    0.84570   0.08863   0.92532   0.00000  Uiso   1.00
Cl807  Cl    0.94883   0.04757   0.83948   0.00000  Uiso   1.00
Cl808  Cl    0.71783   0.28576   0.66052   0.00000  Uiso   1.00
Cl809  Cl    0.76012   0.10748   0.81708   0.00000  Uiso   1.00
Cl810  Cl    0.90655   0.22585   0.68291   0.00000  Uiso   1.00
Cu811  Cu    0.71355   0.16667   0.75000   0.00000  Uiso   1.00
Cu812  Cu    0.95311   0.16666   0.75000   0.00000  Uiso   1.00
H813   H     0.78032   0.17763   0.61072   0.00000  Uiso   1.00
H814   H     0.82180   0.24002   0.67829   0.00000  Uiso   1.00
H815   H     0.88634   0.15570   0.88929   0.00000  Uiso   1.00
H816   H     0.90997   0.23057   0.57705   0.00000  Uiso   1.00
H817   H     0.75670   0.10276   0.92295   0.00000  Uiso   1.00
H818   H     0.70190   0.20708   0.96847   0.00000  Uiso   1.00
H819   H     0.96477   0.12625   0.53153   0.00000  Uiso   1.00
H820   H     0.95886   0.26111   0.82877   0.00000  Uiso   1.00
H821   H     0.70781   0.07222   0.67123   0.00000  Uiso   1.00
H822   H     0.84485   0.09334   0.82174   0.00000  Uiso   1.00
N823   N     0.78403   0.16668   0.74999   0.00000  Uiso   1.00
N824   N     0.88264   0.16666   0.75001   0.00000  Uiso   1.00
O825   O     0.70625   0.10655   0.75000   0.00000  Uiso   1.00
O826   O     0.73944   0.10405   0.95554   0.00000  Uiso   1.00
O827   O     0.66760   0.21280   0.98305   0.00000  Uiso   1.00
O828   O     0.99907   0.12053   0.51696   0.00000  Uiso   1.00
O829   O     0.95338   0.29131   0.83087   0.00000  Uiso   1.00
O830   O     0.71329   0.04202   0.66913   0.00000  Uiso   1.00
O831   O     0.86929   0.11394   0.80628   0.00000  Uiso   1.00
O832   O     0.79738   0.21939   0.69372   0.00000  Uiso   1.00
O833   O     0.96042   0.22678   0.75000   0.00000  Uiso   1.00
O834   O     0.96039   0.10654   0.75001   0.00000  Uiso   1.00
O835   O     0.70628   0.22679   0.75000   0.00000  Uiso   1.00
O836   O     0.68519   0.16668   0.81492   0.00000  Uiso   1.00
O837   O     0.98148   0.16666   0.68509   0.00000  Uiso   1.00
O838   O     0.93933   0.16667   0.81492   0.00000  Uiso   1.00
O839   O     0.72733   0.16667   0.68508   0.00000  Uiso   1.00
O840   O     0.92723   0.22929   0.54446   0.00000  Uiso   1.00
C841   C     0.00009   0.42090   0.74987   0.00000  Uiso   1.00
C842   C     0.02367   0.35530   0.70961   0.00000  Uiso   1.00
C843   C     0.33305   0.62369   0.75058   0.00000  Uiso   1.00
C844   C     0.00028   0.37631   0.74943   0.00000  Uiso   1.00
C845   C     0.18436   0.47356   0.77844   0.00000  Uiso   1.00
C846   C     0.14897   0.52644   0.72156   0.00000  Uiso   1.00
C847   C     0.13428   0.47380   0.77870   0.00000  Uiso   1.00
C848   C     0.19905   0.52620   0.72130   0.00000  Uiso   1.00
C849   C     0.30639   0.50149   0.83648   0.00000  Uiso   1.00
C850   C     0.02695   0.49851   0.66352   0.00000  Uiso   1.00
C851   C     0.29209   0.50596   0.88653   0.00000  Uiso   1.00
C852   C     0.33324   0.57910   0.75013   0.00000  Uiso   1.00
C853   C     0.04125   0.49404   0.61347   0.00000  Uiso   1.00
C854   C     0.30507   0.52982   0.95806   0.00000  Uiso   1.00
C855   C     0.02826   0.47018   0.54194   0.00000  Uiso   1.00
C856   C     0.32354   0.52100   0.91142   0.00000  Uiso   1.00
C857   C     0.00979   0.47900   0.58858   0.00000  Uiso   1.00
C858   C     0.24409   0.49741   0.90921   0.00000  Uiso   1.00
C859   C     0.08924   0.50259   0.59079   0.00000  Uiso   1.00
C860   C     0.22597   0.50265   0.95599   0.00000  Uiso   1.00
C861   C     0.10737   0.49735   0.54401   0.00000  Uiso   1.00
C862   C     0.25524   0.52347   0.97938   0.00000  Uiso   1.00
C863   C     0.18281   0.53739   0.53941   0.00000  Uiso   1.00
C864   C     0.07810   0.47653   0.52062   0.00000  Uiso   1.00
C865   C     0.17766   0.49116   0.97878   0.00000  Uiso   1.00
C866   C     0.15568   0.50884   0.52122   0.00000  Uiso   1.00
C867   C     0.15052   0.46261   0.96059   0.00000  Uiso   1.00
C868   C     0.23327   0.54001   0.52224   0.00000  Uiso   1.00
C869   C     0.10006   0.45999   0.97776   0.00000  Uiso   1.00
C870   C     0.31007   0.35448   0.78937   0.00000  Uiso   1.00
C871   C     0.02327   0.64552   0.71063   0.00000  Uiso   1.00
C872   C     0.30966   0.64470   0.79039   0.00000  Uiso   1.00
Cl873  Cl    0.28247   0.46568   0.61616   0.00000  Uiso   1.00
Cl874  Cl    0.05086   0.53431   0.88384   0.00000  Uiso   1.00
Cl875  Cl    0.15430   0.57804   0.57469   0.00000  Uiso   1.00
Cl876  Cl    0.17903   0.42196   0.92532   0.00000  Uiso   1.00
Cl877  Cl    0.28217   0.38090   0.83948   0.00000  Uiso   1.00
Cl878  Cl    0.05116   0.61910   0.66052   0.00000  Uiso   1.00
Cl879  Cl    0.09345   0.44081   0.81708   0.00000  Uiso   1.00
Cl880  Cl    0.23988   0.55918   0.68291   0.00000  Uiso   1.00
Cu881  Cu    0.04689   0.50001   0.75000   0.00000  Uiso   1.00
Cu882  Cu    0.28645   0.49999   0.75000   0.00000  Uiso   1.00
H883   H     0.11366   0.51097   0.61072   0.00000  Uiso   1.00
H884   H     0.15514   0.57335   0.67829   0.00000  Uiso   1.00
H885   H     0.21968   0.48903   0.88929   0.00000  Uiso   1.00
H886   H     0.24330   0.56391   0.57705   0.00000  Uiso   1.00
H887   H     0.09003   0.43609   0.92295   0.00000  Uiso   1.00
H888   H     0.03523   0.54042   0.96847   0.00000  Uiso   1.00
H889   H     0.29810   0.45958   0.53153   0.00000  Uiso   1.00
H890   H     0.29219   0.59444   0.82877   0.00000  Uiso   1.00
H891   H     0.04114   0.40556   0.67123   0.00000  Uiso   1.00
H892   H     0.17819   0.42667   0.82174   0.00000  Uiso   1.00
N893   N     0.11736   0.50001   0.74999   0.00000  Uiso   1.00
N894   N     0.21597   0.49999   0.75001   0.00000  Uiso   1.00
O895   O     0.03958   0.43989   0.75000   0.00000  Uiso   1.00
O896   O     0.07277   0.43738   0.95554   0.00000  Uiso   1.00
O897   O     0.00093   0.54614   0.98305   0.00000  Uiso   1.00
O898   O     0.33240   0.45386   0.51696   0.00000  Uiso   1.00
O899   O     0.28671   0.62465   0.83087   0.00000  Uiso   1.00
O900   O     0.04662   0.37535   0.66913   0.00000  Uiso   1.00
O901   O     0.20262   0.44728   0.80628   0.00000  Uiso   1.00
O902   O     0.13071   0.55273   0.69372   0.00000  Uiso   1.00
O903   O     0.29375   0.56011   0.75000   0.00000  Uiso   1.00
O904   O     0.29372   0.43988   0.75001   0.00000  Uiso   1.00
O905   O     0.03961   0.56012   0.75000   0.00000  Uiso   1.00
O906   O     0.01852   0.50001   0.81492   0.00000  Uiso   1.00
O907   O     0.31481   0.49999   0.68509   0.00000  Uiso   1.00
O908   O     0.27267   0.50000   0.81492   0.00000  Uiso   1.00
O909   O     0.06067   0.50000   0.68508   0.00000  Uiso   1.00
O910   O     0.26057   0.56262   0.54446   0.00000  Uiso   1.00
C911   C     0.33343   0.42090   0.74987   0.00000  Uiso   1.00
C912   C     0.35701   0.35530   0.70961   0.00000  Uiso   1.00
C913   C     0.66639   0.62369   0.75058   0.00000  Uiso   1.00
C914   C     0.33361   0.37631   0.74943   0.00000  Uiso   1.00
C915   C     0.51769   0.47356   0.77844   0.00000  Uiso   1.00
C916   C     0.48231   0.52644   0.72156   0.00000  Uiso   1.00
C917   C     0.46761   0.47380   0.77870   0.00000  Uiso   1.00
C918   C     0.53239   0.52620   0.72130   0.00000  Uiso   1.00
C919   C     0.63972   0.50149   0.83648   0.00000  Uiso   1.00
C920   C     0.36028   0.49851   0.66352   0.00000  Uiso   1.00
C921   C     0.62542   0.50596   0.88653   0.00000  Uiso   1.00
C922   C     0.66657   0.57910   0.75013   0.00000  Uiso   1.00
C923   C     0.37458   0.49404   0.61347   0.00000  Uiso   1.00
C924   C     0.63840   0.52982   0.95806   0.00000  Uiso   1.00
C925   C     0.36160   0.47018   0.54194   0.00000  Uiso   1.00
C926   C     0.65688   0.52100   0.91142   0.00000  Uiso   1.00
C927   C     0.34312   0.47900   0.58858   0.00000  Uiso   1.00
C928   C     0.57743   0.49741   0.90921   0.00000  Uiso   1.00
C929   C     0.42257   0.50259   0.59079   0.00000  Uiso   1.00
C930   C     0.55930   0.50265   0.95599   0.00000  Uiso   1.00
C931   C     0.44070   0.49735   0.54401   0.00000  Uiso   1.00
C932   C     0.58857   0.52347   0.97938   0.00000  Uiso   1.00
C933   C     0.51615   0.53739   0.53941   0.00000  Uiso   1.00
C934   C     0.41143   0.47653   0.52062   0.00000  Uiso   1.00
C935   C     0.51099   0.49116   0.97878   0.00000  Uiso   1.00
C936   C     0.48901   0.50884   0.52122   0.00000  Uiso   1.00
C937   C     0.48385   0.46261   0.96059   0.00000  Uiso   1.00
C938   C     0.56661   0.54001   0.52224   0.00000  Uiso   1.00
C939   C     0.43340   0.45999   0.97776   0.00000  Uiso   1.00
C940   C     0.64340   0.35448   0.78937   0.00000  Uiso   1.00
C941   C     0.35660   0.64552   0.71063   0.00000  Uiso   1.00
C942   C     0.64299   0.64470   0.79039   0.00000  Uiso   1.00
Cl943  Cl    0.61581   0.46568   0.61616   0.00000  Uiso   1.00
Cl944  Cl    0.38419   0.53431   0.88384   0.00000  Uiso   1.00
Cl945  Cl    0.48764   0.57804   0.57469   0.00000  Uiso   1.00
Cl946  Cl    0.51237   0.42196   0.92532   0.00000  Uiso   1.00
Cl947  Cl    0.61550   0.38090   0.83948   0.00000  Uiso   1.00
Cl948  Cl    0.38450   0.61910   0.66052   0.00000  Uiso   1.00
Cl949  Cl    0.42679   0.44081   0.81708   0.00000  Uiso   1.00
Cl950  Cl    0.57321   0.55918   0.68291   0.00000  Uiso   1.00
Cu951  Cu    0.38022   0.50001   0.75000   0.00000  Uiso   1.00
Cu952  Cu    0.61978   0.49999   0.75000   0.00000  Uiso   1.00
H953   H     0.44699   0.51097   0.61072   0.00000  Uiso   1.00
H954   H     0.48847   0.57335   0.67829   0.00000  Uiso   1.00
H955   H     0.55301   0.48903   0.88929   0.00000  Uiso   1.00
H956   H     0.57663   0.56391   0.57705   0.00000  Uiso   1.00
H957   H     0.42337   0.43609   0.92295   0.00000  Uiso   1.00
H958   H     0.36856   0.54042   0.96847   0.00000  Uiso   1.00
H959   H     0.63144   0.45958   0.53153   0.00000  Uiso   1.00
H960   H     0.62553   0.59444   0.82877   0.00000  Uiso   1.00
H961   H     0.37448   0.40556   0.67123   0.00000  Uiso   1.00
H962   H     0.51152   0.42667   0.82174   0.00000  Uiso   1.00
N963   N     0.45069   0.50001   0.74999   0.00000  Uiso   1.00
N964   N     0.54931   0.49999   0.75001   0.00000  Uiso   1.00
O965   O     0.37291   0.43989   0.75000   0.00000  Uiso   1.00
O966   O     0.40610   0.43738   0.95554   0.00000  Uiso   1.00
O967   O     0.33426   0.54614   0.98305   0.00000  Uiso   1.00
O968   O     0.66574   0.45386   0.51696   0.00000  Uiso   1.00
O969   O     0.62005   0.62465   0.83087   0.00000  Uiso   1.00
O970   O     0.37995   0.37535   0.66913   0.00000  Uiso   1.00
O971   O     0.53596   0.44728   0.80628   0.00000  Uiso   1.00
O972   O     0.46404   0.55273   0.69372   0.00000  Uiso   1.00
O973   O     0.62709   0.56011   0.75000   0.00000  Uiso   1.00
O974   O     0.62706   0.43988   0.75001   0.00000  Uiso   1.00
O975   O     0.37294   0.56012   0.75000   0.00000  Uiso   1.00
O976   O     0.35186   0.50001   0.81492   0.00000  Uiso   1.00
O977   O     0.64814   0.49999   0.68509   0.00000  Uiso   1.00
O978   O     0.60600   0.50000   0.81492   0.00000  Uiso   1.00
O979   O     0.39400   0.50000   0.68508   0.00000  Uiso   1.00
O980   O     0.59390   0.56262   0.54446   0.00000  Uiso   1.00
C981   C     0.66676   0.42090   0.74987   0.00000  Uiso   1.00
C982   C     0.69034   0.35530   0.70961   0.00000  Uiso   1.00
C983   C     0.99972   0.62369   0.75058   0.00000  Uiso   1.00
C984   C     0.66695   0.37631   0.74943   0.00000  Uiso   1.00
C985   C     0.85103   0.47356   0.77844   0.00000  Uiso   1.00
C986   C     0.81564   0.52644   0.72156   0.00000  Uiso   1.00
C987   C     0.80094   0.47380   0.77870   0.00000  Uiso   1.00
C988   C     0.86572   0.52620   0.72130   0.00000  Uiso   1.00
C989   C     0.97305   0.50149   0.83648   0.00000  Uiso   1.00
C990   C     0.69361   0.49851   0.66352   0.00000  Uiso   1.00
C991   C     0.95875   0.50596   0.88653   0.00000  Uiso   1.00
C992   C     0.99991   0.57910   0.75013   0.00000  Uiso   1.00
C993   C     0.70791   0.49404   0.61347   0.00000  Uiso   1.00
C994   C     0.97174   0.52982   0.95806   0.00000  Uiso   1.00
C995   C     0.69493   0.47018   0.54194   0.00000  Uiso   1.00
C996   C     0.99021   0.52100   0.91142   0.00000  Uiso   1.00
C997   C     0.67646   0.47900   0.58858   0.00000  Uiso   1.00
C998   C     0.91076   0.49741   0.90921   0.00000  Uiso   1.00
C999   C     0.75591   0.50259   0.59079   0.00000  Uiso   1.00
C1000  C     0.89263   0.50265   0.95599   0.00000  Uiso   1.00
C1001  C     0.77403   0.49735   0.54401   0.00000  Uiso   1.00
C1002  C     0.92190   0.52347   0.97938   0.00000  Uiso   1.00
C1003  C     0.84948   0.53739   0.53941   0.00000  Uiso   1.00
C1004  C     0.74476   0.47653   0.52062   0.00000  Uiso   1.00
C1005  C     0.84432   0.49116   0.97878   0.00000  Uiso   1.00
C1006  C     0.82235   0.50884   0.52122   0.00000  Uiso   1.00
C1007  C     0.81719   0.46261   0.96059   0.00000  Uiso   1.00
C1008  C     0.89994   0.54001   0.52224   0.00000  Uiso   1.00
C1009  C     0.76673   0.45999   0.97776   0.00000  Uiso   1.00
C1010  C     0.97673   0.35448   0.78937   0.00000  Uiso   1.00
C1011  C     0.68993   0.64552   0.71063   0.00000  Uiso   1.00
C1012  C     0.97633   0.64470   0.79039   0.00000  Uiso   1.00
Cl1013 Cl    0.94914   0.46568   0.61616   0.00000  Uiso   1.00
Cl1014 Cl    0.71753   0.53431   0.88384   0.00000  Uiso   1.00
Cl1015 Cl    0.82097   0.57804   0.57469   0.00000  Uiso   1.00
Cl1016 Cl    0.84570   0.42196   0.92532   0.00000  Uiso   1.00
Cl1017 Cl    0.94883   0.38090   0.83948   0.00000  Uiso   1.00
Cl1018 Cl    0.71783   0.61910   0.66052   0.00000  Uiso   1.00
Cl1019 Cl    0.76012   0.44081   0.81708   0.00000  Uiso   1.00
Cl1020 Cl    0.90655   0.55918   0.68291   0.00000  Uiso   1.00
Cu1021 Cu    0.71355   0.50001   0.75000   0.00000  Uiso   1.00
Cu1022 Cu    0.95311   0.49999   0.75000   0.00000  Uiso   1.00
H1023  H     0.78032   0.51097   0.61072   0.00000  Uiso   1.00
H1024  H     0.82180   0.57335   0.67829   0.00000  Uiso   1.00
H1025  H     0.88634   0.48903   0.88929   0.00000  Uiso   1.00
H1026  H     0.90997   0.56391   0.57705   0.00000  Uiso   1.00
H1027  H     0.75670   0.43609   0.92295   0.00000  Uiso   1.00
H1028  H     0.70190   0.54042   0.96847   0.00000  Uiso   1.00
H1029  H     0.96477   0.45958   0.53153   0.00000  Uiso   1.00
H1030  H     0.95886   0.59444   0.82877   0.00000  Uiso   1.00
H1031  H     0.70781   0.40556   0.67123   0.00000  Uiso   1.00
H1032  H     0.84485   0.42667   0.82174   0.00000  Uiso   1.00
N1033  N     0.78403   0.50001   0.74999   0.00000  Uiso   1.00
N1034  N     0.88264   0.49999   0.75001   0.00000  Uiso   1.00
O1035  O     0.70625   0.43989   0.75000   0.00000  Uiso   1.00
O1036  O     0.73944   0.43738   0.95554   0.00000  Uiso   1.00
O1037  O     0.66760   0.54614   0.98305   0.00000  Uiso   1.00
O1038  O     0.99907   0.45386   0.51696   0.00000  Uiso   1.00
O1039  O     0.95338   0.62465   0.83087   0.00000  Uiso   1.00
O1040  O     0.71329   0.37535   0.66913   0.00000  Uiso   1.00
O1041  O     0.86929   0.44728   0.80628   0.00000  Uiso   1.00
O1042  O     0.79738   0.55273   0.69372   0.00000  Uiso   1.00
O1043  O     0.96042   0.56011   0.75000   0.00000  Uiso   1.00
O1044  O     0.96039   0.43988   0.75001   0.00000  Uiso   1.00
O1045  O     0.70628   0.56012   0.75000   0.00000  Uiso   1.00
O1046  O     0.68519   0.50001   0.81492   0.00000  Uiso   1.00
O1047  O     0.98148   0.49999   0.68509   0.00000  Uiso   1.00
O1048  O     0.93933   0.50000   0.81492   0.00000  Uiso   1.00
O1049  O     0.72733   0.50000   0.68508   0.00000  Uiso   1.00
O1050  O     0.92723   0.56262   0.54446   0.00000  Uiso   1.00
C1051  C     0.00009   0.75423   0.74987   0.00000  Uiso   1.00
C1052  C     0.02367   0.68863   0.70961   0.00000  Uiso   1.00
C1053  C     0.33305   0.95703   0.75058   0.00000  Uiso   1.00
C1054  C     0.00028   0.70964   0.74943   0.00000  Uiso   1.00
C1055  C     0.18436   0.80689   0.77844   0.00000  Uiso   1.00
C1056  C     0.14897   0.85978   0.72156   0.00000  Uiso   1.00
C1057  C     0.13428   0.80713   0.77870   0.00000  Uiso   1.00
C1058  C     0.19905   0.85953   0.72130   0.00000  Uiso   1.00
C1059  C     0.30639   0.83482   0.83648   0.00000  Uiso   1.00
C1060  C     0.02695   0.83184   0.66352   0.00000  Uiso   1.00
C1061  C     0.29209   0.83930   0.88653   0.00000  Uiso   1.00
C1062  C     0.33324   0.91244   0.75013   0.00000  Uiso   1.00
C1063  C     0.04125   0.82737   0.61347   0.00000  Uiso   1.00
C1064  C     0.30507   0.86315   0.95806   0.00000  Uiso   1.00
C1065  C     0.02826   0.80351   0.54194   0.00000  Uiso   1.00
C1066  C     0.32354   0.85433   0.91142   0.00000  Uiso   1.00
C1067  C     0.00979   0.81233   0.58858   0.00000  Uiso   1.00
C1068  C     0.24409   0.83074   0.90921   0.00000  Uiso   1.00
C1069  C     0.08924   0.83593   0.59079   0.00000  Uiso   1.00
C1070  C     0.22597   0.83598   0.95599   0.00000  Uiso   1.00
C1071  C     0.10737   0.83069   0.54401   0.00000  Uiso   1.00
C1072  C     0.25524   0.85680   0.97938   0.00000  Uiso   1.00
C1073  C     0.18281   0.87072   0.53941   0.00000  Uiso   1.00
C1074  C     0.07810   0.80986   0.52062   0.00000  Uiso   1.00
C1075  C     0.17766   0.82450   0.97878   0.00000  Uiso   1.00
C1076  C     0.15568   0.84217   0.52122   0.00000  Uiso   1.00
C1077  C     0.15052   0.79594   0.96059   0.00000  Uiso   1.00
C1078  C     0.23327   0.87334   0.52224   0.00000  Uiso   1.00
C1079  C     0.10006   0.79332   0.97776   0.00000  Uiso   1.00
C1080  C     0.31007   0.68781   0.78937   0.00000  Uiso   1.00
C1081  C     0.02327   0.97886   0.71063   0.00000  Uiso   1.00
C1082  C     0.30966   0.97803   0.79039   0.00000  Uiso   1.00
Cl1083 Cl    0.28247   0.79902   0.61616   0.00000  Uiso   1.00
Cl1084 Cl    0.05086   0.86765   0.88384   0.00000  Uiso   1.00
Cl1085 Cl    0.15430   0.91137   0.57469   0.00000  Uiso   1.00
Cl1086 Cl    0.17903   0.75529   0.92532   0.00000  Uiso   1.00
Cl1087 Cl    0.28217   0.71424   0.83948   0.00000  Uiso   1.00
Cl1088 Cl    0.05116   0.95243   0.66052   0.00000  Uiso   1.00
Cl1089 Cl    0.09345   0.77415   0.81708   0.00000  Uiso   1.00
Cl1090 Cl    0.23988   0.89252   0.68291   0.00000  Uiso   1.00
Cu1091 Cu    0.04689   0.83334   0.75000   0.00000  Uiso   1.00
Cu1092 Cu    0.28645   0.83333   0.75000   0.00000  Uiso   1.00
H1093  H     0.11366   0.84430   0.61072   0.00000  Uiso   1.00
H1094  H     0.15514   0.90669   0.67829   0.00000  Uiso   1.00
H1095  H     0.21968   0.82237   0.88929   0.00000  Uiso   1.00
H1096  H     0.24330   0.89724   0.57705   0.00000  Uiso   1.00
H1097  H     0.09003   0.76942   0.92295   0.00000  Uiso   1.00
H1098  H     0.03523   0.87375   0.96847   0.00000  Uiso   1.00
H1099  H     0.29810   0.79292   0.53153   0.00000  Uiso   1.00
H1100  H     0.29219   0.92778   0.82877   0.00000  Uiso   1.00
H1101  H     0.04114   0.73889   0.67123   0.00000  Uiso   1.00
H1102  H     0.17819   0.76000   0.82174   0.00000  Uiso   1.00
N1103  N     0.11736   0.83334   0.74999   0.00000  Uiso   1.00
N1104  N     0.21597   0.83332   0.75001   0.00000  Uiso   1.00
O1105  O     0.03958   0.77322   0.75000   0.00000  Uiso   1.00
O1106  O     0.07277   0.77071   0.95554   0.00000  Uiso   1.00
O1107  O     0.00093   0.87947   0.98305   0.00000  Uiso   1.00
O1108  O     0.33240   0.78719   0.51696   0.00000  Uiso   1.00
O1109  O     0.28671   0.95798   0.83087   0.00000  Uiso   1.00
O1110  O     0.04662   0.70869   0.66913   0.00000  Uiso   1.00
O1111  O     0.20262   0.78061   0.80628   0.00000  Uiso   1.00
O1112  O     0.13071   0.88606   0.69372   0.00000  Uiso   1.00
O1113  O     0.29375   0.89345   0.75000   0.00000  Uiso   1.00
O1114  O     0.29372   0.77321   0.75001   0.00000  Uiso   1.00
O1115  O     0.03961   0.89346   0.75000   0.00000  Uiso   1.00
O1116  O     0.01852   0.83334   0.81492   0.00000  Uiso   1.00
O1117  O     0.31481   0.83332   0.68509   0.00000  Uiso   1.00
O1118  O     0.27267   0.83333   0.81492   0.00000  Uiso   1.00
O1119  O     0.06067   0.83333   0.68508   0.00000  Uiso   1.00
O1120  O     0.26057   0.89595   0.54446   0.00000  Uiso   1.00
C1121  C     0.33343   0.75423   0.74987   0.00000  Uiso   1.00
C1122  C     0.35701   0.68863   0.70961   0.00000  Uiso   1.00
C1123  C     0.66639   0.95703   0.75058   0.00000  Uiso   1.00
C1124  C     0.33361   0.70964   0.74943   0.00000  Uiso   1.00
C1125  C     0.51769   0.80689   0.77844   0.00000  Uiso   1.00
C1126  C     0.48231   0.85978   0.72156   0.00000  Uiso   1.00
C1127  C     0.46761   0.80713   0.77870   0.00000  Uiso   1.00
C1128  C     0.53239   0.85953   0.72130   0.00000  Uiso   1.00
C1129  C     0.63972   0.83482   0.83648   0.00000  Uiso   1.00
C1130  C     0.36028   0.83184   0.66352   0.00000  Uiso   1.00
C1131  C     0.62542   0.83930   0.88653   0.00000  Uiso   1.00
C1132  C     0.66657   0.91244   0.75013   0.00000  Uiso   1.00
C1133  C     0.37458   0.82737   0.61347   0.00000  Uiso   1.00
C1134  C     0.63840   0.86315   0.95806   0.00000  Uiso   1.00
C1135  C     0.36160   0.80351   0.54194   0.00000  Uiso   1.00
C1136  C     0.65688   0.85433   0.91142   0.00000  Uiso   1.00
C1137  C     0.34312   0.81233   0.58858   0.00000  Uiso   1.00
C1138  C     0.57743   0.83074   0.90921   0.00000  Uiso   1.00
C1139  C     0.42257   0.83593   0.59079   0.00000  Uiso   1.00
C1140  C     0.55930   0.83598   0.95599   0.00000  Uiso   1.00
C1141  C     0.44070   0.83069   0.54401   0.00000  Uiso   1.00
C1142  C     0.58857   0.85680   0.97938   0.00000  Uiso   1.00
C1143  C     0.51615   0.87072   0.53941   0.00000  Uiso   1.00
C1144  C     0.41143   0.80986   0.52062   0.00000  Uiso   1.00
C1145  C     0.51099   0.82450   0.97878   0.00000  Uiso   1.00
C1146  C     0.48901   0.84217   0.52122   0.00000  Uiso   1.00
C1147  C     0.48385   0.79594   0.96059   0.00000  Uiso   1.00
C1148  C     0.56661   0.87334   0.52224   0.00000  Uiso   1.00
C1149  C     0.43340   0.79332   0.97776   0.00000  Uiso   1.00
C1150  C     0.64340   0.68781   0.78937   0.00000  Uiso   1.00
C1151  C     0.35660   0.97886   0.71063   0.00000  Uiso   1.00
C1152  C     0.64299   0.97803   0.79039   0.00000  Uiso   1.00
Cl1153 Cl    0.61581   0.79902   0.61616   0.00000  Uiso   1.00
Cl1154 Cl    0.38419   0.86765   0.88384   0.00000  Uiso   1.00
Cl1155 Cl    0.48764   0.91137   0.57469   0.00000  Uiso   1.00
Cl1156 Cl    0.51237   0.75529   0.92532   0.00000  Uiso   1.00
Cl1157 Cl    0.61550   0.71424   0.83948   0.00000  Uiso   1.00
Cl1158 Cl    0.38450   0.95243   0.66052   0.00000  Uiso   1.00
Cl1159 Cl    0.42679   0.77415   0.81708   0.00000  Uiso   1.00
Cl1160 Cl    0.57321   0.89252   0.68291   0.00000  Uiso   1.00
Cu1161 Cu    0.38022   0.83334   0.75000   0.00000  Uiso   1.00
Cu1162 Cu    0.61978   0.83333   0.75000   0.00000  Uiso   1.00
H1163  H     0.44699   0.84430   0.61072   0.00000  Uiso   1.00
H1164  H     0.48847   0.90669   0.67829   0.00000  Uiso   1.00
H1165  H     0.55301   0.82237   0.88929   0.00000  Uiso   1.00
H1166  H     0.57663   0.89724   0.57705   0.00000  Uiso   1.00
H1167  H     0.42337   0.76942   0.92295   0.00000  Uiso   1.00
H1168  H     0.36856   0.87375   0.96847   0.00000  Uiso   1.00
H1169  H     0.63144   0.79292   0.53153   0.00000  Uiso   1.00
H1170  H     0.62553   0.92778   0.82877   0.00000  Uiso   1.00
H1171  H     0.37448   0.73889   0.67123   0.00000  Uiso   1.00
H1172  H     0.51152   0.76000   0.82174   0.00000  Uiso   1.00
N1173  N     0.45069   0.83334   0.74999   0.00000  Uiso   1.00
N1174  N     0.54931   0.83332   0.75001   0.00000  Uiso   1.00
O1175  O     0.37291   0.77322   0.75000   0.00000  Uiso   1.00
O1176  O     0.40610   0.77071   0.95554   0.00000  Uiso   1.00
O1177  O     0.33426   0.87947   0.98305   0.00000  Uiso   1.00
O1178  O     0.66574   0.78719   0.51696   0.00000  Uiso   1.00
O1179  O     0.62005   0.95798   0.83087   0.00000  Uiso   1.00
O1180  O     0.37995   0.70869   0.66913   0.00000  Uiso   1.00
O1181  O     0.53596   0.78061   0.80628   0.00000  Uiso   1.00
O1182  O     0.46404   0.88606   0.69372   0.00000  Uiso   1.00
O1183  O     0.62709   0.89345   0.75000   0.00000  Uiso   1.00
O1184  O     0.62706   0.77321   0.75001   0.00000  Uiso   1.00
O1185  O     0.37294   0.89346   0.75000   0.00000  Uiso   1.00
O1186  O     0.35186   0.83334   0.81492   0.00000  Uiso   1.00
O1187  O     0.64814   0.83332   0.68509   0.00000  Uiso   1.00
O1188  O     0.60600   0.83333   0.81492   0.00000  Uiso   1.00
O1189  O     0.39400   0.83333   0.68508   0.00000  Uiso   1.00
O1190  O     0.59390   0.89595   0.54446   0.00000  Uiso   1.00
C1191  C     0.66676   0.75423   0.74987   0.00000  Uiso   1.00
C1192  C     0.69034   0.68863   0.70961   0.00000  Uiso   1.00
C1193  C     0.99972   0.95703   0.75058   0.00000  Uiso   1.00
C1194  C     0.66695   0.70964   0.74943   0.00000  Uiso   1.00
C1195  C     0.85103   0.80689   0.77844   0.00000  Uiso   1.00
C1196  C     0.81564   0.85978   0.72156   0.00000  Uiso   1.00
C1197  C     0.80094   0.80713   0.77870   0.00000  Uiso   1.00
C1198  C     0.86572   0.85953   0.72130   0.00000  Uiso   1.00
C1199  C     0.97305   0.83482   0.83648   0.00000  Uiso   1.00
C1200  C     0.69361   0.83184   0.66352   0.00000  Uiso   1.00
C1201  C     0.95875   0.83930   0.88653   0.00000  Uiso   1.00
C1202  C     0.99991   0.91244   0.75013   0.00000  Uiso   1.00
C1203  C     0.70791   0.82737   0.61347   0.00000  Uiso   1.00
C1204  C     0.97174   0.86315   0.95806   0.00000  Uiso   1.00
C1205  C     0.69493   0.80351   0.54194   0.00000  Uiso   1.00
C1206  C     0.99021   0.85433   0.91142   0.00000  Uiso   1.00
C1207  C     0.67646   0.81233   0.58858   0.00000  Uiso   1.00
C1208  C     0.91076   0.83074   0.90921   0.00000  Uiso   1.00
C1209  C     0.75591   0.83593   0.59079   0.00000  Uiso   1.00
C1210  C     0.89263   0.83598   0.95599   0.00000  Uiso   1.00
C1211  C     0.77403   0.83069   0.54401   0.00000  Uiso   1.00
C1212  C     0.92190   0.85680   0.97938   0.00000  Uiso   1.00
C1213  C     0.84948   0.87072   0.53941   0.00000  Uiso   1.00
C1214  C     0.74476   0.80986   0.52062   0.00000  Uiso   1.00
C1215  C     0.84432   0.82450   0.97878   0.00000  Uiso   1.00
C1216  C     0.82235   0.84217   0.52122   0.00000  Uiso   1.00
C1217  C     0.81719   0.79594   0.96059   0.00000  Uiso   1.00
C1218  C     0.89994   0.87334   0.52224   0.00000  Uiso   1.00
C1219  C     0.76673   0.79332   0.97776   0.00000  Uiso   1.00
C1220  C     0.97673   0.68781   0.78937   0.00000  Uiso   1.00
C1221  C     0.68993   0.97886   0.71063   0.00000  Uiso   1.00
C1222  C     0.97633   0.97803   0.79039   0.00000  Uiso   1.00
Cl1223 Cl    0.94914   0.79902   0.61616   0.00000  Uiso   1.00
Cl1224 Cl    0.71753   0.86765   0.88384   0.00000  Uiso   1.00
Cl1225 Cl    0.82097   0.91137   0.57469   0.00000  Uiso   1.00
Cl1226 Cl    0.84570   0.75529   0.92532   0.00000  Uiso   1.00
Cl1227 Cl    0.94883   0.71424   0.83948   0.00000  Uiso   1.00
Cl1228 Cl    0.71783   0.95243   0.66052   0.00000  Uiso   1.00
Cl1229 Cl    0.76012   0.77415   0.81708   0.00000  Uiso   1.00
Cl1230 Cl    0.90655   0.89252   0.68291   0.00000  Uiso   1.00
Cu1231 Cu    0.71355   0.83334   0.75000   0.00000  Uiso   1.00
Cu1232 Cu    0.95311   0.83333   0.75000   0.00000  Uiso   1.00
H1233  H     0.78032   0.84430   0.61072   0.00000  Uiso   1.00
H1234  H     0.82180   0.90669   0.67829   0.00000  Uiso   1.00
H1235  H     0.88634   0.82237   0.88929   0.00000  Uiso   1.00
H1236  H     0.90997   0.89724   0.57705   0.00000  Uiso   1.00
H1237  H     0.75670   0.76942   0.92295   0.00000  Uiso   1.00
H1238  H     0.70190   0.87375   0.96847   0.00000  Uiso   1.00
H1239  H     0.96477   0.79292   0.53153   0.00000  Uiso   1.00
H1240  H     0.95886   0.92778   0.82877   0.00000  Uiso   1.00
H1241  H     0.70781   0.73889   0.67123   0.00000  Uiso   1.00
H1242  H     0.84485   0.76000   0.82174   0.00000  Uiso   1.00
N1243  N     0.78403   0.83334   0.74999   0.00000  Uiso   1.00
N1244  N     0.88264   0.83332   0.75001   0.00000  Uiso   1.00
O1245  O     0.70625   0.77322   0.75000   0.00000  Uiso   1.00
O1246  O     0.73944   0.77071   0.95554   0.00000  Uiso   1.00
O1247  O     0.66760   0.87947   0.98305   0.00000  Uiso   1.00
O1248  O     0.99907   0.78719   0.51696   0.00000  Uiso   1.00
O1249  O     0.95338   0.95798   0.83087   0.00000  Uiso   1.00
O1250  O     0.71329   0.70869   0.66913   0.00000  Uiso   1.00
O1251  O     0.86929   0.78061   0.80628   0.00000  Uiso   1.00
O1252  O     0.79738   0.88606   0.69372   0.00000  Uiso   1.00
O1253  O     0.96042   0.89345   0.75000   0.00000  Uiso   1.00
O1254  O     0.96039   0.77321   0.75001   0.00000  Uiso   1.00
O1255  O     0.70628   0.89346   0.75000   0.00000  Uiso   1.00
O1256  O     0.68519   0.83334   0.81492   0.00000  Uiso   1.00
O1257  O     0.98148   0.83332   0.68509   0.00000  Uiso   1.00
O1258  O     0.93933   0.83333   0.81492   0.00000  Uiso   1.00
O1259  O     0.72733   0.83333   0.68508   0.00000  Uiso   1.00
O1260  O     0.92723   0.89595   0.54446   0.00000  Uiso   1.00
loop_
_geom_bond_atom_site_label_1
_geom_bond_atom_site_label_2
_geom_bond_distance
_geom_bond_site_symmetry_2
_ccdc_geom_bond_type
C1     C4      1.440   .     S
C1     O55     1.291   .     A
C1     O204    1.290   1_455 S
C2     C4      1.414   .     A
C2     O60     1.385   .     S
C2     C451    1.391   1_545 S
C3     C12     1.440   .     S
C3     C32     1.414   .     A
C3     C101    1.404   .     S
C4     C170    1.404   1_455 S
C5     C7      1.435   .     A
C5     O61     1.381   .     S
C5     N54     1.365   .     A
C6     O62     1.381   .     S
C6     N53     1.365   .     A
C6     C8      1.435   .     A
C7     N53     1.378   .     A
C7     Cl39    1.764   .     S
C8     N54     1.378   .     A
C8     Cl40    1.764   .     S
C9     O68     1.305   .     A
C9     C11     1.485   .     S
C9     O136    1.301   .     S
C10    O69     1.305   .     A
C10    C13     1.485   .     S
C10    O207    1.301   1_455 S
C11    C18     1.396   .     A
C11    C16     1.416   .     A
C12    O63     1.291   .     A
C12    O135    1.290   .     S
C13    C17     1.416   .     A
C13    C19     1.396   .     A
C14    C22     1.422   .     A
C14    C16     1.419   .     A
C14    O127    1.384   .     S
C15    C24     1.422   .     A
C15    C17     1.419   .     A
C15    O198    1.384   1_455 S
C16    Cl104   1.774   .     S
C17    Cl173   1.774   1_455 S
C18    C20     1.400   .     A
C18    H45     1.079   .     S
C19    C21     1.400   .     A
C19    H43     1.079   .     S
C20    C22     1.417   .     A
C20    C25     1.426   .     A
C21    C26     1.426   .     A
C21    C24     1.417   .     A
C22    C658    1.413   .     S
C23    C26     1.421   .     A
C23    C28     1.408   .     A
C23    Cl35    1.776   .     S
C24    C659    1.413   1_554 S
C25    C27     1.421   .     A
C25    C656    1.418   .     S
C26    C655    1.418   1_554 S
C27    Cl36    1.776   .     S
C27    C29     1.408   .     A
C28    O70     1.383   .     S
C28    C652    1.413   1_554 S
C29    O56     1.383   .     S
C29    C654    1.413   .     S
C30    Cl37    1.769   .     S
C30    C74     1.404   .     S
C30    C452    1.391   1_545 S
C31    Cl38    1.769   .     S
C31    C143    1.404   1_455 S
C31    C212    1.391   .     S
C32    O59     1.385   .     S
C32    C240    1.391   .     S
Cl33   C87     1.774   .     S
Cl34   C156    1.774   1_455 S
Cu41   O66     1.936   .     S
Cu41   N53     2.022   .     S
Cu41   O65     1.951   .     S
Cu41   O69     1.916   .     S
Cu41   O55     1.953   .     S
Cu41   Cu182   2.690   1_455 S
Cu42   N54     2.022   .     S
Cu42   O68     1.916   .     S
Cu42   O67     1.936   .     S
Cu42   O64     1.951   .     S
Cu42   O63     1.953   .     S
Cu42   Cu111   2.690   .     S
H44    O62     0.986   .     S
H46    O70     0.991   .     S
H47    O56     0.991   .     S
H48    O57     0.988   .     S
H49    O58     0.988   .     S
H50    O59     0.988   .     S
H51    O60     0.988   .     S
H52    O61     0.986   .     S
O57    C154    1.384   1_455 S
O58    C85     1.384   .     S
O64    C71     1.290   .     S
O65    C152    1.290   1_455 S
O66    C149    1.301   1_455 S
O67    C80     1.301   .     S
C71    C74     1.440   .     S
C71    O125    1.291   .     A
C72    C74     1.414   .     A
C72    O130    1.385   .     S
C72    C521    1.391   1_545 S
C73    C82     1.440   .     S
C73    C102    1.414   .     A
C73    C171    1.404   .     S
C75    C77     1.435   .     A
C75    O131    1.381   .     S
C75    N124    1.365   .     A
C76    O132    1.381   .     S
C76    N123    1.365   .     A
C76    C78     1.435   .     A
C77    N123    1.378   .     A
C77    Cl109   1.764   .     S
C78    N124    1.378   .     A
C78    Cl110   1.764   .     S
C79    O138    1.305   .     A
C79    C81     1.485   .     S
C79    O206    1.301   .     S
C80    O139    1.305   .     A
C80    C83     1.485   .     S
C81    C88     1.396   .     A
C81    C86     1.416   .     A
C82    O133    1.291   .     A
C82    O205    1.290   .     S
C83    C87     1.416   .     A
C83    C89     1.396   .     A
C84    C92     1.422   .     A
C84    C86     1.419   .     A
C84    O197    1.384   .     S
C85    C94     1.422   .     A
C85    C87     1.419   .     A
C86    Cl174   1.774   .     S
C88    C90     1.400   .     A
C88    H115    1.079   .     S
C89    C91     1.400   .     A
C89    H113    1.079   .     S
C90    C92     1.417   .     A
C90    C95     1.426   .     A
C91    C96     1.426   .     A
C91    C94     1.417   .     A
C92    C728    1.413   .     S
C93    C96     1.421   .     A
C93    C98     1.408   .     A
C93    Cl105   1.776   .     S
C94    C729    1.413   1_554 S
C95    C97     1.421   .     A
C95    C726    1.418   .     S
C96    C725    1.418   1_554 S
C97    Cl106   1.776   .     S
C97    C99     1.408   .     A
C98    O140    1.383   .     S
C98    C722    1.413   1_554 S
C99    O126    1.383   .     S
C99    C724    1.413   .     S
C100   Cl107   1.769   .     S
C100   C144    1.404   .     S
C100   C522    1.391   1_545 S
C101   Cl108   1.769   .     S
C101   C282    1.391   .     S
C102   O129    1.385   .     S
C102   C310    1.391   .     S
Cl103  C157    1.774   .     S
Cu111  O136    1.936   .     S
Cu111  N123    2.022   .     S
Cu111  O135    1.951   .     S
Cu111  O139    1.916   .     S
Cu111  O125    1.953   .     S
Cu112  N124    2.022   .     S
Cu112  O138    1.916   .     S
Cu112  O137    1.936   .     S
Cu112  O134    1.951   .     S
Cu112  O133    1.953   .     S
Cu112  Cu181   2.690   .     S
H114   O132    0.986   .     S
H116   O140    0.991   .     S
H117   O126    0.991   .     S
H118   O127    0.988   .     S
H119   O128    0.988   .     S
H120   O129    0.988   .     S
H121   O130    0.988   .     S
H122   O131    0.986   .     S
O128   C155    1.384   .     S
O134   C141    1.290   .     S
O137   C150    1.301   .     S
C141   C144    1.440   .     S
C141   O195    1.291   .     A
C142   C144    1.414   .     A
C142   O200    1.385   .     S
C142   C591    1.391   1_545 S
C143   C152    1.440   .     S
C143   C172    1.414   .     A
C143   C31     1.404   1_655 S
C145   C147    1.435   .     A
C145   O201    1.381   .     S
C145   N194    1.365   .     A
C146   O202    1.381   .     S
C146   N193    1.365   .     A
C146   C148    1.435   .     A
C147   N193    1.378   .     A
C147   Cl179   1.764   .     S
C148   N194    1.378   .     A
C148   Cl180   1.764   .     S
C149   O208    1.305   .     A
C149   C151    1.485   .     S
C149   O66     1.301   1_655 S
C150   O209    1.305   .     A
C150   C153    1.485   .     S
C151   C158    1.396   .     A
C151   C156    1.416   .     A
C152   O203    1.291   .     A
C152   O65     1.290   1_655 S
C153   C157    1.416   .     A
C153   C159    1.396   .     A
C154   C162    1.422   .     A
C154   C156    1.419   .     A
C154   O57     1.384   1_655 S
C155   C164    1.422   .     A
C155   C157    1.419   .     A
C156   Cl34    1.774   1_655 S
C158   C160    1.400   .     A
C158   H185    1.079   .     S
C159   C161    1.400   .     A
C159   H183    1.079   .     S
C160   C162    1.417   .     A
C160   C165    1.426   .     A
C161   C166    1.426   .     A
C161   C164    1.417   .     A
C162   C798    1.413   .     S
C163   C166    1.421   .     A
C163   C168    1.408   .     A
C163   Cl175   1.776   .     S
C164   C799    1.413   1_554 S
C165   C167    1.421   .     A
C165   C796    1.418   .     S
C166   C795    1.418   1_554 S
C167   Cl176   1.776   .     S
C167   C169    1.408   .     A
C168   O210    1.383   .     S
C168   C792    1.413   1_554 S
C169   O196    1.383   .     S
C169   C794    1.413   .     S
C170   Cl177   1.769   .     S
C170   C4      1.404   1_655 S
C170   C592    1.391   1_545 S
C171   Cl178   1.769   .     S
C171   C352    1.391   .     S
C172   O199    1.385   .     S
C172   C380    1.391   .     S
Cl173  C17     1.774   1_655 S
Cu181  O206    1.936   .     S
Cu181  N193    2.022   .     S
Cu181  O205    1.951   .     S
Cu181  O209    1.916   .     S
Cu181  O195    1.953   .     S
Cu182  N194    2.022   .     S
Cu182  O208    1.916   .     S
Cu182  O207    1.936   .     S
Cu182  O204    1.951   .     S
Cu182  O203    1.953   .     S
Cu182  Cu41    2.690   1_655 S
H184   O202    0.986   .     S
H186   O210    0.991   .     S
H187   O196    0.991   .     S
H188   O197    0.988   .     S
H189   O198    0.988   .     S
H190   O199    0.988   .     S
H191   O200    0.988   .     S
H192   O201    0.986   .     S
O198   C15     1.384   1_655 S
O204   C1      1.290   1_655 S
O207   C10     1.301   1_655 S
C211   C214    1.440   .     S
C211   O265    1.291   .     A
C211   O414    1.290   1_455 S
C212   C214    1.414   .     A
C212   O270    1.385   .     S
C213   C222    1.440   .     S
C213   C242    1.414   .     A
C213   C311    1.404   .     S
C214   C380    1.404   1_455 S
C215   C217    1.435   .     A
C215   O271    1.381   .     S
C215   N264    1.365   .     A
C216   O272    1.381   .     S
C216   N263    1.365   .     A
C216   C218    1.435   .     A
C217   N263    1.378   .     A
C217   Cl249   1.764   .     S
C218   N264    1.378   .     A
C218   Cl250   1.764   .     S
C219   O278    1.305   .     A
C219   C221    1.485   .     S
C219   O346    1.301   .     S
C220   O279    1.305   .     A
C220   C223    1.485   .     S
C220   O417    1.301   1_455 S
C221   C228    1.396   .     A
C221   C226    1.416   .     A
C222   O273    1.291   .     A
C222   O345    1.290   .     S
C223   C227    1.416   .     A
C223   C229    1.396   .     A
C224   C232    1.422   .     A
C224   C226    1.419   .     A
C224   O337    1.384   .     S
C225   C234    1.422   .     A
C225   C227    1.419   .     A
C225   O408    1.384   1_455 S
C226   Cl314   1.774   .     S
C227   Cl383   1.774   1_455 S
C228   C230    1.400   .     A
C228   H255    1.079   .     S
C229   C231    1.400   .     A
C229   H253    1.079   .     S
C230   C232    1.417   .     A
C230   C235    1.426   .     A
C231   C236    1.426   .     A
C231   C234    1.417   .     A
C232   C868    1.413   .     S
C233   C236    1.421   .     A
C233   C238    1.408   .     A
C233   Cl245   1.776   .     S
C234   C869    1.413   1_554 S
C235   C237    1.421   .     A
C235   C866    1.418   .     S
C236   C865    1.418   1_554 S
C237   Cl246   1.776   .     S
C237   C239    1.408   .     A
C238   O280    1.383   .     S
C238   C862    1.413   1_554 S
C239   O266    1.383   .     S
C239   C864    1.413   .     S
C240   Cl247   1.769   .     S
C240   C284    1.404   .     S
C241   Cl248   1.769   .     S
C241   C353    1.404   1_455 S
C241   C422    1.391   .     S
C242   O269    1.385   .     S
C242   C450    1.391   .     S
Cl243  C297    1.774   .     S
Cl244  C366    1.774   1_455 S
Cu251  O276    1.936   .     S
Cu251  N263    2.022   .     S
Cu251  O275    1.951   .     S
Cu251  O279    1.916   .     S
Cu251  O265    1.953   .     S
Cu251  Cu392   2.690   1_455 S
Cu252  N264    2.022   .     S
Cu252  O278    1.916   .     S
Cu252  O277    1.936   .     S
Cu252  O274    1.951   .     S
Cu252  O273    1.953   .     S
Cu252  Cu321   2.690   .     S
H254   O272    0.986   .     S
H256   O280    0.991   .     S
H257   O266    0.991   .     S
H258   O267    0.988   .     S
H259   O268    0.988   .     S
H260   O269    0.988   .     S
H261   O270    0.988   .     S
H262   O271    0.986   .     S
O267   C364    1.384   1_455 S
O268   C295    1.384   .     S
O274   C281    1.290   .     S
O275   C362    1.290   1_455 S
O276   C359    1.301   1_455 S
O277   C290    1.301   .     S
C281   C284    1.440   .     S
C281   O335    1.291   .     A
C282   C284    1.414   .     A
C282   O340    1.385   .     S
C283   C292    1.440   .     S
C283   C312    1.414   .     A
C283   C381    1.404   .     S
C285   C287    1.435   .     A
C285   O341    1.381   .     S
C285   N334    1.365   .     A
C286   O342    1.381   .     S
C286   N333    1.365   .     A
C286   C288    1.435   .     A
C287   N333    1.378   .     A
C287   Cl319   1.764   .     S
C288   N334    1.378   .     A
C288   Cl320   1.764   .     S
C289   O348    1.305   .     A
C289   C291    1.485   .     S
C289   O416    1.301   .     S
C290   O349    1.305   .     A
C290   C293    1.485   .     S
C291   C298    1.396   .     A
C291   C296    1.416   .     A
C292   O343    1.291   .     A
C292   O415    1.290   .     S
C293   C297    1.416   .     A
C293   C299    1.396   .     A
C294   C302    1.422   .     A
C294   C296    1.419   .     A
C294   O407    1.384   .     S
C295   C304    1.422   .     A
C295   C297    1.419   .     A
C296   Cl384   1.774   .     S
C298   C300    1.400   .     A
C298   H325    1.079   .     S
C299   C301    1.400   .     A
C299   H323    1.079   .     S
C300   C302    1.417   .     A
C300   C305    1.426   .     A
C301   C306    1.426   .     A
C301   C304    1.417   .     A
C302   C938    1.413   .     S
C303   C306    1.421   .     A
C303   C308    1.408   .     A
C303   Cl315   1.776   .     S
C304   C939    1.413   1_554 S
C305   C307    1.421   .     A
C305   C936    1.418   .     S
C306   C935    1.418   1_554 S
C307   Cl316   1.776   .     S
C307   C309    1.408   .     A
C308   O350    1.383   .     S
C308   C932    1.413   1_554 S
C309   O336    1.383   .     S
C309   C934    1.413   .     S
C310   Cl317   1.769   .     S
C310   C354    1.404   .     S
C311   Cl318   1.769   .     S
C311   C492    1.391   .     S
C312   O339    1.385   .     S
C312   C520    1.391   .     S
Cl313  C367    1.774   .     S
Cu321  O346    1.936   .     S
Cu321  N333    2.022   .     S
Cu321  O345    1.951   .     S
Cu321  O349    1.916   .     S
Cu321  O335    1.953   .     S
Cu322  N334    2.022   .     S
Cu322  O348    1.916   .     S
Cu322  O347    1.936   .     S
Cu322  O344    1.951   .     S
Cu322  O343    1.953   .     S
Cu322  Cu391   2.690   .     S
H324   O342    0.986   .     S
H326   O350    0.991   .     S
H327   O336    0.991   .     S
H328   O337    0.988   .     S
H329   O338    0.988   .     S
H330   O339    0.988   .     S
H331   O340    0.988   .     S
H332   O341    0.986   .     S
O338   C365    1.384   .     S
O344   C351    1.290   .     S
O347   C360    1.301   .     S
C351   C354    1.440   .     S
C351   O405    1.291   .     A
C352   C354    1.414   .     A
C352   O410    1.385   .     S
C353   C362    1.440   .     S
C353   C382    1.414   .     A
C353   C241    1.404   1_655 S
C355   C357    1.435   .     A
C355   O411    1.381   .     S
C355   N404    1.365   .     A
C356   O412    1.381   .     S
C356   N403    1.365   .     A
C356   C358    1.435   .     A
C357   N403    1.378   .     A
C357   Cl389   1.764   .     S
C358   N404    1.378   .     A
C358   Cl390   1.764   .     S
C359   O418    1.305   .     A
C359   C361    1.485   .     S
C359   O276    1.301   1_655 S
C360   O419    1.305   .     A
C360   C363    1.485   .     S
C361   C368    1.396   .     A
C361   C366    1.416   .     A
C362   O413    1.291   .     A
C362   O275    1.290   1_655 S
C363   C367    1.416   .     A
C363   C369    1.396   .     A
C364   C372    1.422   .     A
C364   C366    1.419   .     A
C364   O267    1.384   1_655 S
C365   C374    1.422   .     A
C365   C367    1.419   .     A
C366   Cl244   1.774   1_655 S
C368   C370    1.400   .     A
C368   H395    1.079   .     S
C369   C371    1.400   .     A
C369   H393    1.079   .     S
C370   C372    1.417   .     A
C370   C375    1.426   .     A
C371   C376    1.426   .     A
C371   C374    1.417   .     A
C372   C1008   1.413   .     S
C373   C376    1.421   .     A
C373   C378    1.408   .     A
C373   Cl385   1.776   .     S
C374   C1009   1.413   1_554 S
C375   C377    1.421   .     A
C375   C1006   1.418   .     S
C376   C1005   1.418   1_554 S
C377   Cl386   1.776   .     S
C377   C379    1.408   .     A
C378   O420    1.383   .     S
C378   C1002   1.413   1_554 S
C379   O406    1.383   .     S
C379   C1004   1.413   .     S
C380   Cl387   1.769   .     S
C380   C214    1.404   1_655 S
C381   Cl388   1.769   .     S
C381   C562    1.391   .     S
C382   O409    1.385   .     S
C382   C590    1.391   .     S
Cl383  C227    1.774   1_655 S
Cu391  O416    1.936   .     S
Cu391  N403    2.022   .     S
Cu391  O415    1.951   .     S
Cu391  O419    1.916   .     S
Cu391  O405    1.953   .     S
Cu392  N404    2.022   .     S
Cu392  O418    1.916   .     S
Cu392  O417    1.936   .     S
Cu392  O414    1.951   .     S
Cu392  O413    1.953   .     S
Cu392  Cu251   2.690   1_655 S
H394   O412    0.986   .     S
H396   O420    0.991   .     S
H397   O406    0.991   .     S
H398   O407    0.988   .     S
H399   O408    0.988   .     S
H400   O409    0.988   .     S
H401   O410    0.988   .     S
H402   O411    0.986   .     S
O408   C225    1.384   1_655 S
O414   C211    1.290   1_655 S
O417   C220    1.301   1_655 S
C421   C424    1.440   .     S
C421   O475    1.291   .     A
C421   O624    1.290   1_455 S
C422   C424    1.414   .     A
C422   O480    1.385   .     S
C423   C432    1.440   .     S
C423   C452    1.414   .     A
C423   C521    1.404   .     S
C424   C590    1.404   1_455 S
C425   C427    1.435   .     A
C425   O481    1.381   .     S
C425   N474    1.365   .     A
C426   O482    1.381   .     S
C426   N473    1.365   .     A
C426   C428    1.435   .     A
C427   N473    1.378   .     A
C427   Cl459   1.764   .     S
C428   N474    1.378   .     A
C428   Cl460   1.764   .     S
C429   O488    1.305   .     A
C429   C431    1.485   .     S
C429   O556    1.301   .     S
C430   O489    1.305   .     A
C430   C433    1.485   .     S
C430   O627    1.301   1_455 S
C431   C438    1.396   .     A
C431   C436    1.416   .     A
C432   O483    1.291   .     A
C432   O555    1.290   .     S
C433   C437    1.416   .     A
C433   C439    1.396   .     A
C434   C442    1.422   .     A
C434   C436    1.419   .     A
C434   O547    1.384   .     S
C435   C444    1.422   .     A
C435   C437    1.419   .     A
C435   O618    1.384   1_455 S
C436   Cl524   1.774   .     S
C437   Cl593   1.774   1_455 S
C438   C440    1.400   .     A
C438   H465    1.079   .     S
C439   C441    1.400   .     A
C439   H463    1.079   .     S
C440   C442    1.417   .     A
C440   C445    1.426   .     A
C441   C446    1.426   .     A
C441   C444    1.417   .     A
C442   C1078   1.413   .     S
C443   C446    1.421   .     A
C443   C448    1.408   .     A
C443   Cl455   1.776   .     S
C444   C1079   1.413   1_554 S
C445   C447    1.421   .     A
C445   C1076   1.418   .     S
C446   C1075   1.418   1_554 S
C447   Cl456   1.776   .     S
C447   C449    1.408   .     A
C448   O490    1.383   .     S
C448   C1072   1.413   1_554 S
C449   O476    1.383   .     S
C449   C1074   1.413   .     S
C450   Cl457   1.769   .     S
C450   C494    1.404   .     S
C451   Cl458   1.769   .     S
C451   C563    1.404   1_455 S
C451   C2      1.391   1_565 S
C452   O479    1.385   .     S
C452   C30     1.391   1_565 S
Cl453  C507    1.774   .     S
Cl454  C576    1.774   1_455 S
Cu461  O486    1.936   .     S
Cu461  N473    2.022   .     S
Cu461  O485    1.951   .     S
Cu461  O489    1.916   .     S
Cu461  O475    1.953   .     S
Cu461  Cu602   2.690   1_455 S
Cu462  N474    2.022   .     S
Cu462  O488    1.916   .     S
Cu462  O487    1.936   .     S
Cu462  O484    1.951   .     S
Cu462  O483    1.953   .     S
Cu462  Cu531   2.690   .     S
H464   O482    0.986   .     S
H466   O490    0.991   .     S
H467   O476    0.991   .     S
H468   O477    0.988   .     S
H469   O478    0.988   .     S
H470   O479    0.988   .     S
H471   O480    0.988   .     S
H472   O481    0.986   .     S
O477   C574    1.384   1_455 S
O478   C505    1.384   .     S
O484   C491    1.290   .     S
O485   C572    1.290   1_455 S
O486   C569    1.301   1_455 S
O487   C500    1.301   .     S
C491   C494    1.440   .     S
C491   O545    1.291   .     A
C492   C494    1.414   .     A
C492   O550    1.385   .     S
C493   C502    1.440   .     S
C493   C522    1.414   .     A
C493   C591    1.404   .     S
C495   C497    1.435   .     A
C495   O551    1.381   .     S
C495   N544    1.365   .     A
C496   O552    1.381   .     S
C496   N543    1.365   .     A
C496   C498    1.435   .     A
C497   N543    1.378   .     A
C497   Cl529   1.764   .     S
C498   N544    1.378   .     A
C498   Cl530   1.764   .     S
C499   O558    1.305   .     A
C499   C501    1.485   .     S
C499   O626    1.301   .     S
C500   O559    1.305   .     A
C500   C503    1.485   .     S
C501   C508    1.396   .     A
C501   C506    1.416   .     A
C502   O553    1.291   .     A
C502   O625    1.290   .     S
C503   C507    1.416   .     A
C503   C509    1.396   .     A
C504   C512    1.422   .     A
C504   C506    1.419   .     A
C504   O617    1.384   .     S
C505   C514    1.422   .     A
C505   C507    1.419   .     A
C506   Cl594   1.774   .     S
C508   C510    1.400   .     A
C508   H535    1.079   .     S
C509   C511    1.400   .     A
C509   H533    1.079   .     S
C510   C512    1.417   .     A
C510   C515    1.426   .     A
C511   C516    1.426   .     A
C511   C514    1.417   .     A
C512   C1148   1.413   .     S
C513   C516    1.421   .     A
C513   C518    1.408   .     A
C513   Cl525   1.776   .     S
C514   C1149   1.413   1_554 S
C515   C517    1.421   .     A
C515   C1146   1.418   .     S
C516   C1145   1.418   1_554 S
C517   Cl526   1.776   .     S
C517   C519    1.408   .     A
C518   O560    1.383   .     S
C518   C1142   1.413   1_554 S
C519   O546    1.383   .     S
C519   C1144   1.413   .     S
C520   Cl527   1.769   .     S
C520   C564    1.404   .     S
C521   Cl528   1.769   .     S
C521   C72     1.391   1_565 S
C522   O549    1.385   .     S
C522   C100    1.391   1_565 S
Cl523  C577    1.774   .     S
Cu531  O556    1.936   .     S
Cu531  N543    2.022   .     S
Cu531  O555    1.951   .     S
Cu531  O559    1.916   .     S
Cu531  O545    1.953   .     S
Cu532  N544    2.022   .     S
Cu532  O558    1.916   .     S
Cu532  O557    1.936   .     S
Cu532  O554    1.951   .     S
Cu532  O553    1.953   .     S
Cu532  Cu601   2.690   .     S
H534   O552    0.986   .     S
H536   O560    0.991   .     S
H537   O546    0.991   .     S
H538   O547    0.988   .     S
H539   O548    0.988   .     S
H540   O549    0.988   .     S
H541   O550    0.988   .     S
H542   O551    0.986   .     S
O548   C575    1.384   .     S
O554   C561    1.290   .     S
O557   C570    1.301   .     S
C561   C564    1.440   .     S
C561   O615    1.291   .     A
C562   C564    1.414   .     A
C562   O620    1.385   .     S
C563   C572    1.440   .     S
C563   C592    1.414   .     A
C563   C451    1.404   1_655 S
C565   C567    1.435   .     A
C565   O621    1.381   .     S
C565   N614    1.365   .     A
C566   O622    1.381   .     S
C566   N613    1.365   .     A
C566   C568    1.435   .     A
C567   N613    1.378   .     A
C567   Cl599   1.764   .     S
C568   N614    1.378   .     A
C568   Cl600   1.764   .     S
C569   O628    1.305   .     A
C569   C571    1.485   .     S
C569   O486    1.301   1_655 S
C570   O629    1.305   .     A
C570   C573    1.485   .     S
C571   C578    1.396   .     A
C571   C576    1.416   .     A
C572   O623    1.291   .     A
C572   O485    1.290   1_655 S
C573   C577    1.416   .     A
C573   C579    1.396   .     A
C574   C582    1.422   .     A
C574   C576    1.419   .     A
C574   O477    1.384   1_655 S
C575   C584    1.422   .     A
C575   C577    1.419   .     A
C576   Cl454   1.774   1_655 S
C578   C580    1.400   .     A
C578   H605    1.079   .     S
C579   C581    1.400   .     A
C579   H603    1.079   .     S
C580   C582    1.417   .     A
C580   C585    1.426   .     A
C581   C586    1.426   .     A
C581   C584    1.417   .     A
C582   C1218   1.413   .     S
C583   C586    1.421   .     A
C583   C588    1.408   .     A
C583   Cl595   1.776   .     S
C584   C1219   1.413   1_554 S
C585   C587    1.421   .     A
C585   C1216   1.418   .     S
C586   C1215   1.418   1_554 S
C587   Cl596   1.776   .     S
C587   C589    1.408   .     A
C588   O630    1.383   .     S
C588   C1212   1.413   1_554 S
C589   O616    1.383   .     S
C589   C1214   1.413   .     S
C590   Cl597   1.769   .     S
C590   C424    1.404   1_655 S
C591   Cl598   1.769   .     S
C591   C142    1.391   1_565 S
C592   O619    1.385   .     S
C592   C170    1.391   1_565 S
Cl593  C437    1.774   1_655 S
Cu601  O626    1.936   .     S
Cu601  N613    2.022   .     S
Cu601  O625    1.951   .     S
Cu601  O629    1.916   .     S
Cu601  O615    1.953   .     S
Cu602  N614    2.022   .     S
Cu602  O628    1.916   .     S
Cu602  O627    1.936   .     S
Cu602  O624    1.951   .     S
Cu602  O623    1.953   .     S
Cu602  Cu461   2.690   1_655 S
H604   O622    0.986   .     S
H606   O630    0.991   .     S
H607   O616    0.991   .     S
H608   O617    0.988   .     S
H609   O618    0.988   .     S
H610   O619    0.988   .     S
H611   O620    0.988   .     S
H612   O621    0.986   .     S
O618   C435    1.384   1_655 S
O624   C421    1.290   1_655 S
O627   C430    1.301   1_655 S
C631   C634    1.440   .     S
C631   O685    1.291   .     A
C631   O834    1.290   1_455 S
C632   C634    1.414   .     A
C632   O690    1.385   .     S
C632   C1081   1.391   1_545 S
C633   C642    1.440   .     S
C633   C662    1.414   .     A
C633   C731    1.404   .     S
C634   C800    1.404   1_455 S
C635   C637    1.435   .     A
C635   O691    1.381   .     S
C635   N684    1.365   .     A
C636   O692    1.381   .     S
C636   N683    1.365   .     A
C636   C638    1.435   .     A
C637   N683    1.378   .     A
C637   Cl669   1.764   .     S
C638   N684    1.378   .     A
C638   Cl670   1.764   .     S
C639   O698    1.305   .     A
C639   C641    1.485   .     S
C639   O766    1.301   .     S
C640   O699    1.305   .     A
C640   C643    1.485   .     S
C640   O837    1.301   1_455 S
C641   C648    1.396   .     A
C641   C646    1.416   .     A
C642   O693    1.291   .     A
C642   O765    1.290   .     S
C643   C647    1.416   .     A
C643   C649    1.396   .     A
C644   C652    1.422   .     A
C644   C646    1.419   .     A
C644   O757    1.384   .     S
C645   C654    1.422   .     A
C645   C647    1.419   .     A
C645   O828    1.384   1_455 S
C646   Cl734   1.774   .     S
C647   Cl803   1.774   1_455 S
C648   C650    1.400   .     A
C648   H675    1.079   .     S
C649   C651    1.400   .     A
C649   H673    1.079   .     S
C650   C652    1.417   .     A
C650   C655    1.426   .     A
C651   C656    1.426   .     A
C651   C654    1.417   .     A
C652   C28     1.413   1_556 S
C653   C656    1.421   .     A
C653   C658    1.408   .     A
C653   Cl665   1.776   .     S
C655   C657    1.421   .     A
C655   C26     1.418   1_556 S
C657   Cl666   1.776   .     S
C657   C659    1.408   .     A
C658   O700    1.383   .     S
C659   O686    1.383   .     S
C659   C24     1.413   1_556 S
C660   Cl667   1.769   .     S
C660   C704    1.404   .     S
C660   C1082   1.391   1_545 S
C661   Cl668   1.769   .     S
C661   C773    1.404   1_455 S
C661   C842    1.391   .     S
C662   O689    1.385   .     S
C662   C870    1.391   .     S
Cl663  C717    1.774   .     S
Cl664  C786    1.774   1_455 S
Cu671  O696    1.936   .     S
Cu671  N683    2.022   .     S
Cu671  O695    1.951   .     S
Cu671  O699    1.916   .     S
Cu671  O685    1.953   .     S
Cu671  Cu812   2.690   1_455 S
Cu672  N684    2.022   .     S
Cu672  O698    1.916   .     S
Cu672  O697    1.936   .     S
Cu672  O694    1.951   .     S
Cu672  O693    1.953   .     S
Cu672  Cu741   2.690   .     S
H674   O692    0.986   .     S
H676   O700    0.991   .     S
H677   O686    0.991   .     S
H678   O687    0.988   .     S
H679   O688    0.988   .     S
H680   O689    0.988   .     S
H681   O690    0.988   .     S
H682   O691    0.986   .     S
O687   C784    1.384   1_455 S
O688   C715    1.384   .     S
O694   C701    1.290   .     S
O695   C782    1.290   1_455 S
O696   C779    1.301   1_455 S
O697   C710    1.301   .     S
C701   C704    1.440   .     S
C701   O755    1.291   .     A
C702   C704    1.414   .     A
C702   O760    1.385   .     S
C702   C1151   1.391   1_545 S
C703   C712    1.440   .     S
C703   C732    1.414   .     A
C703   C801    1.404   .     S
C705   C707    1.435   .     A
C705   O761    1.381   .     S
C705   N754    1.365   .     A
C706   O762    1.381   .     S
C706   N753    1.365   .     A
C706   C708    1.435   .     A
C707   N753    1.378   .     A
C707   Cl739   1.764   .     S
C708   N754    1.378   .     A
C708   Cl740   1.764   .     S
C709   O768    1.305   .     A
C709   C711    1.485   .     S
C709   O836    1.301   .     S
C710   O769    1.305   .     A
C710   C713    1.485   .     S
C711   C718    1.396   .     A
C711   C716    1.416   .     A
C712   O763    1.291   .     A
C712   O835    1.290   .     S
C713   C717    1.416   .     A
C713   C719    1.396   .     A
C714   C722    1.422   .     A
C714   C716    1.419   .     A
C714   O827    1.384   .     S
C715   C724    1.422   .     A
C715   C717    1.419   .     A
C716   Cl804   1.774   .     S
C718   C720    1.400   .     A
C718   H745    1.079   .     S
C719   C721    1.400   .     A
C719   H743    1.079   .     S
C720   C722    1.417   .     A
C720   C725    1.426   .     A
C721   C726    1.426   .     A
C721   C724    1.417   .     A
C722   C98     1.413   1_556 S
C723   C726    1.421   .     A
C723   C728    1.408   .     A
C723   Cl735   1.776   .     S
C725   C727    1.421   .     A
C725   C96     1.418   1_556 S
C727   Cl736   1.776   .     S
C727   C729    1.408   .     A
C728   O770    1.383   .     S
C729   O756    1.383   .     S
C729   C94     1.413   1_556 S
C730   Cl737   1.769   .     S
C730   C774    1.404   .     S
C730   C1152   1.391   1_545 S
C731   Cl738   1.769   .     S
C731   C912    1.391   .     S
C732   O759    1.385   .     S
C732   C940    1.391   .     S
Cl733  C787    1.774   .     S
Cu741  O766    1.936   .     S
Cu741  N753    2.022   .     S
Cu741  O765    1.951   .     S
Cu741  O769    1.916   .     S
Cu741  O755    1.953   .     S
Cu742  N754    2.022   .     S
Cu742  O768    1.916   .     S
Cu742  O767    1.936   .     S
Cu742  O764    1.951   .     S
Cu742  O763    1.953   .     S
Cu742  Cu811   2.690   .     S
H744   O762    0.986   .     S
H746   O770    0.991   .     S
H747   O756    0.991   .     S
H748   O757    0.988   .     S
H749   O758    0.988   .     S
H750   O759    0.988   .     S
H751   O760    0.988   .     S
H752   O761    0.986   .     S
O758   C785    1.384   .     S
O764   C771    1.290   .     S
O767   C780    1.301   .     S
C771   C774    1.440   .     S
C771   O825    1.291   .     A
C772   C774    1.414   .     A
C772   O830    1.385   .     S
C772   C1221   1.391   1_545 S
C773   C782    1.440   .     S
C773   C802    1.414   .     A
C773   C661    1.404   1_655 S
C775   C777    1.435   .     A
C775   O831    1.381   .     S
C775   N824    1.365   .     A
C776   O832    1.381   .     S
C776   N823    1.365   .     A
C776   C778    1.435   .     A
C777   N823    1.378   .     A
C777   Cl809   1.764   .     S
C778   N824    1.378   .     A
C778   Cl810   1.764   .     S
C779   O838    1.305   .     A
C779   C781    1.485   .     S
C779   O696    1.301   1_655 S
C780   O839    1.305   .     A
C780   C783    1.485   .     S
C781   C788    1.396   .     A
C781   C786    1.416   .     A
C782   O833    1.291   .     A
C782   O695    1.290   1_655 S
C783   C787    1.416   .     A
C783   C789    1.396   .     A
C784   C792    1.422   .     A
C784   C786    1.419   .     A
C784   O687    1.384   1_655 S
C785   C794    1.422   .     A
C785   C787    1.419   .     A
C786   Cl664   1.774   1_655 S
C788   C790    1.400   .     A
C788   H815    1.079   .     S
C789   C791    1.400   .     A
C789   H813    1.079   .     S
C790   C792    1.417   .     A
C790   C795    1.426   .     A
C791   C796    1.426   .     A
C791   C794    1.417   .     A
C792   C168    1.413   1_556 S
C793   C796    1.421   .     A
C793   C798    1.408   .     A
C793   Cl805   1.776   .     S
C795   C797    1.421   .     A
C795   C166    1.418   1_556 S
C797   Cl806   1.776   .     S
C797   C799    1.408   .     A
C798   O840    1.383   .     S
C799   O826    1.383   .     S
C799   C164    1.413   1_556 S
C800   Cl807   1.769   .     S
C800   C634    1.404   1_655 S
C800   C1222   1.391   1_545 S
C801   Cl808   1.769   .     S
C801   C982    1.391   .     S
C802   O829    1.385   .     S
C802   C1010   1.391   .     S
Cl803  C647    1.774   1_655 S
Cu811  O836    1.936   .     S
Cu811  N823    2.022   .     S
Cu811  O835    1.951   .     S
Cu811  O839    1.916   .     S
Cu811  O825    1.953   .     S
Cu812  N824    2.022   .     S
Cu812  O838    1.916   .     S
Cu812  O837    1.936   .     S
Cu812  O834    1.951   .     S
Cu812  O833    1.953   .     S
Cu812  Cu671   2.690   1_655 S
H814   O832    0.986   .     S
H816   O840    0.991   .     S
H817   O826    0.991   .     S
H818   O827    0.988   .     S
H819   O828    0.988   .     S
H820   O829    0.988   .     S
H821   O830    0.988   .     S
H822   O831    0.986   .     S
O828   C645    1.384   1_655 S
O834   C631    1.290   1_655 S
O837   C640    1.301   1_655 S
C841   C844    1.440   .     S
C841   O895    1.291   .     A
C841   O1044   1.290   1_455 S
C842   C844    1.414   .     A
C842   O900    1.385   .     S
C843   C852    1.440   .     S
C843   C872    1.414   .     A
C843   C941    1.404   .     S
C844   C1010   1.404   1_455 S
C845   C847    1.435   .     A
C845   O901    1.381   .     S
C845   N894    1.365   .     A
C846   O902    1.381   .     S
C846   N893    1.365   .     A
C846   C848    1.435   .     A
C847   N893    1.378   .     A
C847   Cl879   1.764   .     S
C848   N894    1.378   .     A
C848   Cl880   1.764   .     S
C849   O908    1.305   .     A
C849   C851    1.485   .     S
C849   O976    1.301   .     S
C850   O909    1.305   .     A
C850   C853    1.485   .     S
C850   O1047   1.301   1_455 S
C851   C858    1.396   .     A
C851   C856    1.416   .     A
C852   O903    1.291   .     A
C852   O975    1.290   .     S
C853   C857    1.416   .     A
C853   C859    1.396   .     A
C854   C862    1.422   .     A
C854   C856    1.419   .     A
C854   O967    1.384   .     S
C855   C864    1.422   .     A
C855   C857    1.419   .     A
C855   O1038   1.384   1_455 S
C856   Cl944   1.774   .     S
C857   Cl1013  1.774   1_455 S
C858   C860    1.400   .     A
C858   H885    1.079   .     S
C859   C861    1.400   .     A
C859   H883    1.079   .     S
C860   C862    1.417   .     A
C860   C865    1.426   .     A
C861   C866    1.426   .     A
C861   C864    1.417   .     A
C862   C238    1.413   1_556 S
C863   C866    1.421   .     A
C863   C868    1.408   .     A
C863   Cl875   1.776   .     S
C865   C867    1.421   .     A
C865   C236    1.418   1_556 S
C867   Cl876   1.776   .     S
C867   C869    1.408   .     A
C868   O910    1.383   .     S
C869   O896    1.383   .     S
C869   C234    1.413   1_556 S
C870   Cl877   1.769   .     S
C870   C914    1.404   .     S
C871   Cl878   1.769   .     S
C871   C983    1.404   1_455 S
C871   C1052   1.391   .     S
C872   O899    1.385   .     S
C872   C1080   1.391   .     S
Cl873  C927    1.774   .     S
Cl874  C996    1.774   1_455 S
Cu881  O906    1.936   .     S
Cu881  N893    2.022   .     S
Cu881  O905    1.951   .     S
Cu881  O909    1.916   .     S
Cu881  O895    1.953   .     S
Cu881  Cu1022  2.690   1_455 S
Cu882  N894    2.022   .     S
Cu882  O908    1.916   .     S
Cu882  O907    1.936   .     S
Cu882  O904    1.951   .     S
Cu882  O903    1.953   .     S
Cu882  Cu951   2.690   .     S
H884   O902    0.986   .     S
H886   O910    0.991   .     S
H887   O896    0.991   .     S
H888   O897    0.988   .     S
H889   O898    0.988   .     S
H890   O899    0.988   .     S
H891   O900    0.988   .     S
H892   O901    0.986   .     S
O897   C994    1.384   1_455 S
O898   C925    1.384   .     S
O904   C911    1.290   .     S
O905   C992    1.290   1_455 S
O906   C989    1.301   1_455 S
O907   C920    1.301   .     S
C911   C914    1.440   .     S
C911   O965    1.291   .     A
C912   C914    1.414   .     A
C912   O970    1.385   .     S
C913   C922    1.440   .     S
C913   C942    1.414   .     A
C913   C1011   1.404   .     S
C915   C917    1.435   .     A
C915   O971    1.381   .     S
C915   N964    1.365   .     A
C916   O972    1.381   .     S
C916   N963    1.365   .     A
C916   C918    1.435   .     A
C917   N963    1.378   .     A
C917   Cl949   1.764   .     S
C918   N964    1.378   .     A
C918   Cl950   1.764   .     S
C919   O978    1.305   .     A
C919   C921    1.485   .     S
C919   O1046   1.301   .     S
C920   O979    1.305   .     A
C920   C923    1.485   .     S
C921   C928    1.396   .     A
C921   C926    1.416   .     A
C922   O973    1.291   .     A
C922   O1045   1.290   .     S
C923   C927    1.416   .     A
C923   C929    1.396   .     A
C924   C932    1.422   .     A
C924   C926    1.419   .     A
C924   O1037   1.384   .     S
C925   C934    1.422   .     A
C925   C927    1.419   .     A
C926   Cl1014  1.774   .     S
C928   C930    1.400   .     A
C928   H955    1.079   .     S
C929   C931    1.400   .     A
C929   H953    1.079   .     S
C930   C932    1.417   .     A
C930   C935    1.426   .     A
C931   C936    1.426   .     A
C931   C934    1.417   .     A
C932   C308    1.413   1_556 S
C933   C936    1.421   .     A
C933   C938    1.408   .     A
C933   Cl945   1.776   .     S
C935   C937    1.421   .     A
C935   C306    1.418   1_556 S
C937   Cl946   1.776   .     S
C937   C939    1.408   .     A
C938   O980    1.383   .     S
C939   O966    1.383   .     S
C939   C304    1.413   1_556 S
C940   Cl947   1.769   .     S
C940   C984    1.404   .     S
C941   Cl948   1.769   .     S
C941   C1122   1.391   .     S
C942   O969    1.385   .     S
C942   C1150   1.391   .     S
Cl943  C997    1.774   .     S
Cu951  O976    1.936   .     S
Cu951  N963    2.022   .     S
Cu951  O975    1.951   .     S
Cu951  O979    1.916   .     S
Cu951  O965    1.953   .     S
Cu952  N964    2.022   .     S
Cu952  O978    1.916   .     S
Cu952  O977    1.936   .     S
Cu952  O974    1.951   .     S
Cu952  O973    1.953   .     S
Cu952  Cu1021  2.690   .     S
H954   O972    0.986   .     S
H956   O980    0.991   .     S
H957   O966    0.991   .     S
H958   O967    0.988   .     S
H959   O968    0.988   .     S
H960   O969    0.988   .     S
H961   O970    0.988   .     S
H962   O971    0.986   .     S
O968   C995    1.384   .     S
O974   C981    1.290   .     S
O977   C990    1.301   .     S
C981   C984    1.440   .     S
C981   O1035   1.291   .     A
C982   C984    1.414   .     A
C982   O1040   1.385   .     S
C983   C992    1.440   .     S
C983   C1012   1.414   .     A
C983   C871    1.404   1_655 S
C985   C987    1.435   .     A
C985   O1041   1.381   .     S
C985   N1034   1.365   .     A
C986   O1042   1.381   .     S
C986   N1033   1.365   .     A
C986   C988    1.435   .     A
C987   N1033   1.378   .     A
C987   Cl1019  1.764   .     S
C988   N1034   1.378   .     A
C988   Cl1020  1.764   .     S
C989   O1048   1.305   .     A
C989   C991    1.485   .     S
C989   O906    1.301   1_655 S
C990   O1049   1.305   .     A
C990   C993    1.485   .     S
C991   C998    1.396   .     A
C991   C996    1.416   .     A
C992   O1043   1.291   .     A
C992   O905    1.290   1_655 S
C993   C997    1.416   .     A
C993   C999    1.396   .     A
C994   C1002   1.422   .     A
C994   C996    1.419   .     A
C994   O897    1.384   1_655 S
C995   C1004   1.422   .     A
C995   C997    1.419   .     A
C996   Cl874   1.774   1_655 S
C998   C1000   1.400   .     A
C998   H1025   1.079   .     S
C999   C1001   1.400   .     A
C999   H1023   1.079   .     S
C1000  C1002   1.417   .     A
C1000  C1005   1.426   .     A
C1001  C1006   1.426   .     A
C1001  C1004   1.417   .     A
C1002  C378    1.413   1_556 S
C1003  C1006   1.421   .     A
C1003  C1008   1.408   .     A
C1003  Cl1015  1.776   .     S
C1005  C1007   1.421   .     A
C1005  C376    1.418   1_556 S
C1007  Cl1016  1.776   .     S
C1007  C1009   1.408   .     A
C1008  O1050   1.383   .     S
C1009  O1036   1.383   .     S
C1009  C374    1.413   1_556 S
C1010  Cl1017  1.769   .     S
C1010  C844    1.404   1_655 S
C1011  Cl1018  1.769   .     S
C1011  C1192   1.391   .     S
C1012  O1039   1.385   .     S
C1012  C1220   1.391   .     S
Cl1013 C857    1.774   1_655 S
Cu1021 O1046   1.936   .     S
Cu1021 N1033   2.022   .     S
Cu1021 O1045   1.951   .     S
Cu1021 O1049   1.916   .     S
Cu1021 O1035   1.953   .     S
Cu1022 N1034   2.022   .     S
Cu1022 O1048   1.916   .     S
Cu1022 O1047   1.936   .     S
Cu1022 O1044   1.951   .     S
Cu1022 O1043   1.953   .     S
Cu1022 Cu881   2.690   1_655 S
H1024  O1042   0.986   .     S
H1026  O1050   0.991   .     S
H1027  O1036   0.991   .     S
H1028  O1037   0.988   .     S
H1029  O1038   0.988   .     S
H1030  O1039   0.988   .     S
H1031  O1040   0.988   .     S
H1032  O1041   0.986   .     S
O1038  C855    1.384   1_655 S
O1044  C841    1.290   1_655 S
O1047  C850    1.301   1_655 S
C1051  C1054   1.440   .     S
C1051  O1105   1.291   .     A
C1051  O1254   1.290   1_455 S
C1052  C1054   1.414   .     A
C1052  O1110   1.385   .     S
C1053  C1062   1.440   .     S
C1053  C1082   1.414   .     A
C1053  C1151   1.404   .     S
C1054  C1220   1.404   1_455 S
C1055  C1057   1.435   .     A
C1055  O1111   1.381   .     S
C1055  N1104   1.365   .     A
C1056  O1112   1.381   .     S
C1056  N1103   1.365   .     A
C1056  C1058   1.435   .     A
C1057  N1103   1.378   .     A
C1057  Cl1089  1.764   .     S
C1058  N1104   1.378   .     A
C1058  Cl1090  1.764   .     S
C1059  O1118   1.305   .     A
C1059  C1061   1.485   .     S
C1059  O1186   1.301   .     S
C1060  O1119   1.305   .     A
C1060  C1063   1.485   .     S
C1060  O1257   1.301   1_455 S
C1061  C1068   1.396   .     A
C1061  C1066   1.416   .     A
C1062  O1113   1.291   .     A
C1062  O1185   1.290   .     S
C1063  C1067   1.416   .     A
C1063  C1069   1.396   .     A
C1064  C1072   1.422   .     A
C1064  C1066   1.419   .     A
C1064  O1177   1.384   .     S
C1065  C1074   1.422   .     A
C1065  C1067   1.419   .     A
C1065  O1248   1.384   1_455 S
C1066  Cl1154  1.774   .     S
C1067  Cl1223  1.774   1_455 S
C1068  C1070   1.400   .     A
C1068  H1095   1.079   .     S
C1069  C1071   1.400   .     A
C1069  H1093   1.079   .     S
C1070  C1072   1.417   .     A
C1070  C1075   1.426   .     A
C1071  C1076   1.426   .     A
C1071  C1074   1.417   .     A
C1072  C448    1.413   1_556 S
C1073  C1076   1.421   .     A
C1073  C1078   1.408   .     A
C1073  Cl1085  1.776   .     S
C1075  C1077   1.421   .     A
C1075  C446    1.418   1_556 S
C1077  Cl1086  1.776   .     S
C1077  C1079   1.408   .     A
C1078  O1120   1.383   .     S
C1079  O1106   1.383   .     S
C1079  C444    1.413   1_556 S
C1080  Cl1087  1.769   .     S
C1080  C1124   1.404   .     S
C1081  Cl1088  1.769   .     S
C1081  C1193   1.404   1_455 S
C1081  C632    1.391   1_565 S
C1082  O1109   1.385   .     S
C1082  C660    1.391   1_565 S
Cl1083 C1137   1.774   .     S
Cl1084 C1206   1.774   1_455 S
Cu1091 O1116   1.936   .     S
Cu1091 N1103   2.022   .     S
Cu1091 O1115   1.951   .     S
Cu1091 O1119   1.916   .     S
Cu1091 O1105   1.953   .     S
Cu1091 Cu1232  2.690   1_455 S
Cu1092 N1104   2.022   .     S
Cu1092 O1118   1.916   .     S
Cu1092 O1117   1.936   .     S
Cu1092 O1114   1.951   .     S
Cu1092 O1113   1.953   .     S
Cu1092 Cu1161  2.690   .     S
H1094  O1112   0.986   .     S
H1096  O1120   0.991   .     S
H1097  O1106   0.991   .     S
H1098  O1107   0.988   .     S
H1099  O1108   0.988   .     S
H1100  O1109   0.988   .     S
H1101  O1110   0.988   .     S
H1102  O1111   0.986   .     S
O1107  C1204   1.384   1_455 S
O1108  C1135   1.384   .     S
O1114  C1121   1.290   .     S
O1115  C1202   1.290   1_455 S
O1116  C1199   1.301   1_455 S
O1117  C1130   1.301   .     S
C1121  C1124   1.440   .     S
C1121  O1175   1.291   .     A
C1122  C1124   1.414   .     A
C1122  O1180   1.385   .     S
C1123  C1132   1.440   .     S
C1123  C1152   1.414   .     A
C1123  C1221   1.404   .     S
C1125  C1127   1.435   .     A
C1125  O1181   1.381   .     S
C1125  N1174   1.365   .     A
C1126  O1182   1.381   .     S
C1126  N1173   1.365   .     A
C1126  C1128   1.435   .     A
C1127  N1173   1.378   .     A
C1127  Cl1159  1.764   .     S
C1128  N1174   1.378   .     A
C1128  Cl1160  1.764   .     S
C1129  O1188   1.305   .     A
C1129  C1131   1.485   .     S
C1129  O1256   1.301   .     S
C1130  O1189   1.305   .     A
C1130  C1133   1.485   .     S
C1131  C1138   1.396   .     A
C1131  C1136   1.416   .     A
C1132  O1183   1.291   .     A
C1132  O1255   1.290   .     S
C1133  C1137   1.416   .     A
C1133  C1139   1.396   .     A
C1134  C1142   1.422   .     A
C1134  C1136   1.419   .     A
C1134  O1247   1.384   .     S
C1135  C1144   1.422   .     A
C1135  C1137   1.419   .     A
C1136  Cl1224  1.774   .     S
C1138  C1140   1.400   .     A
C1138  H1165   1.079   .     S
C1139  C1141   1.400   .     A
C1139  H1163   1.079   .     S
C1140  C1142   1.417   .     A
C1140  C1145   1.426   .     A
C1141  C1146   1.426   .     A
C1141  C1144   1.417   .     A
C1142  C518    1.413   1_556 S
C1143  C1146   1.421   .     A
C1143  C1148   1.408   .     A
C1143  Cl1155  1.776   .     S
C1145  C1147   1.421   .     A
C1145  C516    1.418   1_556 S
C1147  Cl1156  1.776   .     S
C1147  C1149   1.408   .     A
C1148  O1190   1.383   .     S
C1149  O1176   1.383   .     S
C1149  C514    1.413   1_556 S
C1150  Cl1157  1.769   .     S
C1150  C1194   1.404   .     S
C1151  Cl1158  1.769   .     S
C1151  C702    1.391   1_565 S
C1152  O1179   1.385   .     S
C1152  C730    1.391   1_565 S
Cl1153 C1207   1.774   .     S
Cu1161 O1186   1.936   .     S
Cu1161 N1173   2.022   .     S
Cu1161 O1185   1.951   .     S
Cu1161 O1189   1.916   .     S
Cu1161 O1175   1.953   .     S
Cu1162 N1174   2.022   .     S
Cu1162 O1188   1.916   .     S
Cu1162 O1187   1.936   .     S
Cu1162 O1184   1.951   .     S
Cu1162 O1183   1.953   .     S
Cu1162 Cu1231  2.690   .     S
H1164  O1182   0.986   .     S
H1166  O1190   0.991   .     S
H1167  O1176   0.991   .     S
H1168  O1177   0.988   .     S
H1169  O1178   0.988   .     S
H1170  O1179   0.988   .     S
H1171  O1180   0.988   .     S
H1172  O1181   0.986   .     S
O1178  C1205   1.384   .     S
O1184  C1191   1.290   .     S
O1187  C1200   1.301   .     S
C1191  C1194   1.440   .     S
C1191  O1245   1.291   .     A
C1192  C1194   1.414   .     A
C1192  O1250   1.385   .     S
C1193  C1202   1.440   .     S
C1193  C1222   1.414   .     A
C1193  C1081   1.404   1_655 S
C1195  C1197   1.435   .     A
C1195  O1251   1.381   .     S
C1195  N1244   1.365   .     A
C1196  O1252   1.381   .     S
C1196  N1243   1.365   .     A
C1196  C1198   1.435   .     A
C1197  N1243   1.378   .     A
C1197  Cl1229  1.764   .     S
C1198  N1244   1.378   .     A
C1198  Cl1230  1.764   .     S
C1199  O1258   1.305   .     A
C1199  C1201   1.485   .     S
C1199  O1116   1.301   1_655 S
C1200  O1259   1.305   .     A
C1200  C1203   1.485   .     S
C1201  C1208   1.396   .     A
C1201  C1206   1.416   .     A
C1202  O1253   1.291   .     A
C1202  O1115   1.290   1_655 S
C1203  C1207   1.416   .     A
C1203  C1209   1.396   .     A
C1204  C1212   1.422   .     A
C1204  C1206   1.419   .     A
C1204  O1107   1.384   1_655 S
C1205  C1214   1.422   .     A
C1205  C1207   1.419   .     A
C1206  Cl1084  1.774   1_655 S
C1208  C1210   1.400   .     A
C1208  H1235   1.079   .     S
C1209  C1211   1.400   .     A
C1209  H1233   1.079   .     S
C1210  C1212   1.417   .     A
C1210  C1215   1.426   .     A
C1211  C1216   1.426   .     A
C1211  C1214   1.417   .     A
C1212  C588    1.413   1_556 S
C1213  C1216   1.421   .     A
C1213  C1218   1.408   .     A
C1213  Cl1225  1.776   .     S
C1215  C1217   1.421   .     A
C1215  C586    1.418   1_556 S
C1217  Cl1226  1.776   .     S
C1217  C1219   1.408   .     A
C1218  O1260   1.383   .     S
C1219  O1246   1.383   .     S
C1219  C584    1.413   1_556 S
C1220  Cl1227  1.769   .     S
C1220  C1054   1.404   1_655 S
C1221  Cl1228  1.769   .     S
C1221  C772    1.391   1_565 S
C1222  O1249   1.385   .     S
C1222  C800    1.391   1_565 S
Cl1223 C1067   1.774   1_655 S
Cu1231 O1256   1.936   .     S
Cu1231 N1243   2.022   .     S
Cu1231 O1255   1.951   .     S
Cu1231 O1259   1.916   .     S
Cu1231 O1245   1.953   .     S
Cu1232 N1244   2.022   .     S
Cu1232 O1258   1.916   .     S
Cu1232 O1257   1.936   .     S
Cu1232 O1254   1.951   .     S
Cu1232 O1253   1.953   .     S
Cu1232 Cu1091  2.690   1_655 S
H1234  O1252   0.986   .     S
H1236  O1260   0.991   .     S
H1237  O1246   0.991   .     S
H1238  O1247   0.988   .     S
H1239  O1248   0.988   .     S
H1240  O1249   0.988   .     S
H1241  O1250   0.988   .     S
H1242  O1251   0.986   .     S
O1248  C1065   1.384   1_655 S
O1254  C1051   1.290   1_655 S
O1257  C1060   1.301   1_655 S
