data_str_m2_o1_o18_pcu_sym.47
_audit_creation_date              2020-01-03
_audit_creation_method            'Materials Studio'
_symmetry_space_group_name_H-M    'P1'
_symmetry_Int_Tables_number       1
_symmetry_cell_setting            triclinic
loop_
_symmetry_equiv_pos_as_xyz
  x,y,z
_cell_length_a                    28.9278
_cell_length_b                    32.1435
_cell_length_c                    31.1952
_cell_angle_alpha                 88.9266
_cell_angle_beta                  73.3584
_cell_angle_gamma                 91.8085
loop_
_atom_site_label
_atom_site_type_symbol
_atom_site_fract_x
_atom_site_fract_y
_atom_site_fract_z
_atom_site_U_iso_or_equiv
_atom_site_adp_type
_atom_site_occupancy
Br1    Br    0.19007   0.13962   0.10413   0.00000  Uiso   1.00
Br2    Br    0.14326   0.19371   0.39587   0.00000  Uiso   1.00
C3     C     0.33276   0.08753   0.25019   0.00000  Uiso   1.00
C4     C     0.01303   0.02140   0.28368   0.00000  Uiso   1.00
C5     C     0.00122   0.29046   0.24953   0.00000  Uiso   1.00
C6     C     0.33212   0.04288   0.25047   0.00000  Uiso   1.00
C7     C     0.18439   0.13237   0.26502   0.00000  Uiso   1.00
C8     C     0.14894   0.20096   0.23498   0.00000  Uiso   1.00
C9     C     0.13540   0.13289   0.26510   0.00000  Uiso   1.00
C10    C     0.19794   0.20045   0.23490   0.00000  Uiso   1.00
C11    C     0.30592   0.16785   0.33585   0.00000  Uiso   1.00
C12    C     0.02742   0.16548   0.16415   0.00000  Uiso   1.00
C13    C     0.29064   0.17265   0.38458   0.00000  Uiso   1.00
C14    C     0.00057   0.24580   0.24981   0.00000  Uiso   1.00
C15    C     0.04269   0.16068   0.11542   0.00000  Uiso   1.00
C16    C     0.30651   0.19061   0.45413   0.00000  Uiso   1.00
C17    C     0.02682   0.14272   0.04587   0.00000  Uiso   1.00
C18    C     0.32291   0.18622   0.40786   0.00000  Uiso   1.00
C19    C     0.01042   0.14712   0.09214   0.00000  Uiso   1.00
C20    C     0.24208   0.16545   0.40778   0.00000  Uiso   1.00
C21    C     0.09125   0.16788   0.09222   0.00000  Uiso   1.00
C22    C     0.22387   0.17353   0.45323   0.00000  Uiso   1.00
C23    C     0.10946   0.15980   0.04677   0.00000  Uiso   1.00
C24    C     0.25755   0.18269   0.47712   0.00000  Uiso   1.00
C25    C     0.19612   0.16589   0.04644   0.00000  Uiso   1.00
C26    C     0.07578   0.15064   0.02288   0.00000  Uiso   1.00
C27    C     0.17377   0.16869   0.47616   0.00000  Uiso   1.00
C28    C     0.15956   0.16464   0.02384   0.00000  Uiso   1.00
C29    C     0.19832   0.09327   0.28224   0.00000  Uiso   1.00
C30    C     0.20427   0.05769   0.25597   0.00000  Uiso   1.00
C31    C     0.21068   0.01901   0.27436   0.00000  Uiso   1.00
C32    C     0.21146   0.01562   0.31886   0.00000  Uiso   1.00
C33    C     0.20424   0.05067   0.34545   0.00000  Uiso   1.00
C34    C     0.19659   0.08910   0.32739   0.00000  Uiso   1.00
C35    C     0.13501   0.24007   0.21776   0.00000  Uiso   1.00
C36    C     0.13721   0.16744   0.45356   0.00000  Uiso   1.00
C37    C     0.12906   0.27565   0.24403   0.00000  Uiso   1.00
C38    C     0.12266   0.31432   0.22563   0.00000  Uiso   1.00
C39    C     0.12187   0.31771   0.18114   0.00000  Uiso   1.00
C40    C     0.12910   0.28266   0.15455   0.00000  Uiso   1.00
C41    C     0.13674   0.24423   0.17261   0.00000  Uiso   1.00
C42    C     0.24302   0.17940   0.02359   0.00000  Uiso   1.00
C43    C     0.09031   0.15393   0.47641   0.00000  Uiso   1.00
C44    C     0.31944   0.02168   0.21658   0.00000  Uiso   1.00
C45    C     0.01389   0.31165   0.28342   0.00000  Uiso   1.00
C46    C     0.32030   0.31194   0.21632   0.00000  Uiso   1.00
Cu47   Cu    0.04689   0.16667   0.25000   0.00000  Uiso   1.00
Cu48   Cu    0.28645   0.16666   0.25000   0.00000  Uiso   1.00
H49    H     0.26955   0.18266   0.04187   0.00000  Uiso   1.00
H50    H     0.02441   0.29488   0.30939   0.00000  Uiso   1.00
H51    H     0.31013   0.29536   0.19026   0.00000  Uiso   1.00
H52    H     0.02321   0.03798   0.30973   0.00000  Uiso   1.00
H53    H     0.11173   0.10592   0.27775   0.00000  Uiso   1.00
H54    H     0.22160   0.22742   0.22225   0.00000  Uiso   1.00
H55    H     0.20327   0.05984   0.22155   0.00000  Uiso   1.00
H56    H     0.21530   0.32502   0.25404   0.00000  Uiso   1.00
H57    H     0.21687   0.31907   0.33288   0.00000  Uiso   1.00
H58    H     0.20328   0.04787   0.38032   0.00000  Uiso   1.00
H59    H     0.18712   0.11519   0.34878   0.00000  Uiso   1.00
H60    H     0.06378   0.15067   0.45813   0.00000  Uiso   1.00
H61    H     0.13006   0.27349   0.27844   0.00000  Uiso   1.00
H62    H     0.11803   0.00831   0.24596   0.00000  Uiso   1.00
H63    H     0.11646   0.01426   0.16712   0.00000  Uiso   1.00
H64    H     0.13005   0.28547   0.11968   0.00000  Uiso   1.00
H65    H     0.14621   0.21814   0.15122   0.00000  Uiso   1.00
H66    H     0.11415   0.18228   0.10947   0.00000  Uiso   1.00
H67    H     0.21918   0.15105   0.39053   0.00000  Uiso   1.00
H68    H     0.30594   0.14078   0.10943   0.00000  Uiso   1.00
H69    H     0.02739   0.19255   0.39057   0.00000  Uiso   1.00
H70    H     0.33218   0.19918   0.47211   0.00000  Uiso   1.00
H71    H     0.00116   0.13415   0.02789   0.00000  Uiso   1.00
H72    H     0.30892   0.03845   0.19061   0.00000  Uiso   1.00
N73    N     0.11736   0.16668   0.24999   0.00000  Uiso   1.00
N74    N     0.21597   0.16666   0.25001   0.00000  Uiso   1.00
O75    O     0.03958   0.10655   0.25000   0.00000  Uiso   1.00
O76    O     0.29375   0.22678   0.25000   0.00000  Uiso   1.00
O77    O     0.29372   0.10654   0.25000   0.00000  Uiso   1.00
O78    O     0.03961   0.22679   0.25000   0.00000  Uiso   1.00
O79    O     0.01852   0.16668   0.31492   0.00000  Uiso   1.00
O80    O     0.31481   0.16666   0.18508   0.00000  Uiso   1.00
O81    O     0.27267   0.16667   0.31492   0.00000  Uiso   1.00
O82    O     0.06067   0.16667   0.18508   0.00000  Uiso   1.00
Br83   Br    0.52341   0.13962   0.10413   0.00000  Uiso   1.00
Br84   Br    0.47659   0.19371   0.39587   0.00000  Uiso   1.00
C85    C     0.66610   0.08753   0.25019   0.00000  Uiso   1.00
C86    C     0.34636   0.02140   0.28368   0.00000  Uiso   1.00
C87    C     0.33455   0.29046   0.24953   0.00000  Uiso   1.00
C88    C     0.66545   0.04288   0.25047   0.00000  Uiso   1.00
C89    C     0.51773   0.13237   0.26502   0.00000  Uiso   1.00
C90    C     0.48227   0.20096   0.23498   0.00000  Uiso   1.00
C91    C     0.46873   0.13289   0.26510   0.00000  Uiso   1.00
C92    C     0.53127   0.20045   0.23490   0.00000  Uiso   1.00
C93    C     0.63925   0.16785   0.33585   0.00000  Uiso   1.00
C94    C     0.36075   0.16548   0.16415   0.00000  Uiso   1.00
C95    C     0.62398   0.17265   0.38458   0.00000  Uiso   1.00
C96    C     0.33390   0.24580   0.24981   0.00000  Uiso   1.00
C97    C     0.37602   0.16068   0.11542   0.00000  Uiso   1.00
C98    C     0.63985   0.19061   0.45413   0.00000  Uiso   1.00
C99    C     0.36015   0.14272   0.04587   0.00000  Uiso   1.00
C100   C     0.65625   0.18622   0.40786   0.00000  Uiso   1.00
C101   C     0.34375   0.14712   0.09214   0.00000  Uiso   1.00
C102   C     0.57541   0.16545   0.40778   0.00000  Uiso   1.00
C103   C     0.42459   0.16788   0.09222   0.00000  Uiso   1.00
C104   C     0.55721   0.17353   0.45323   0.00000  Uiso   1.00
C105   C     0.44279   0.15980   0.04677   0.00000  Uiso   1.00
C106   C     0.59089   0.18269   0.47712   0.00000  Uiso   1.00
C107   C     0.52945   0.16589   0.04644   0.00000  Uiso   1.00
C108   C     0.40911   0.15064   0.02288   0.00000  Uiso   1.00
C109   C     0.50710   0.16869   0.47616   0.00000  Uiso   1.00
C110   C     0.49290   0.16464   0.02384   0.00000  Uiso   1.00
C111   C     0.53166   0.09327   0.28224   0.00000  Uiso   1.00
C112   C     0.53761   0.05769   0.25597   0.00000  Uiso   1.00
C113   C     0.54401   0.01901   0.27436   0.00000  Uiso   1.00
C114   C     0.54479   0.01562   0.31886   0.00000  Uiso   1.00
C115   C     0.53757   0.05067   0.34545   0.00000  Uiso   1.00
C116   C     0.52992   0.08910   0.32739   0.00000  Uiso   1.00
C117   C     0.46834   0.24007   0.21776   0.00000  Uiso   1.00
C118   C     0.47054   0.16744   0.45356   0.00000  Uiso   1.00
C119   C     0.46240   0.27565   0.24403   0.00000  Uiso   1.00
C120   C     0.45599   0.31432   0.22563   0.00000  Uiso   1.00
C121   C     0.45521   0.31771   0.18114   0.00000  Uiso   1.00
C122   C     0.46243   0.28266   0.15455   0.00000  Uiso   1.00
C123   C     0.47008   0.24423   0.17261   0.00000  Uiso   1.00
C124   C     0.57635   0.17940   0.02359   0.00000  Uiso   1.00
C125   C     0.42365   0.15393   0.47641   0.00000  Uiso   1.00
C126   C     0.65277   0.02168   0.21658   0.00000  Uiso   1.00
C127   C     0.34723   0.31165   0.28342   0.00000  Uiso   1.00
C128   C     0.65364   0.31194   0.21632   0.00000  Uiso   1.00
Cu129  Cu    0.38022   0.16667   0.25000   0.00000  Uiso   1.00
Cu130  Cu    0.61978   0.16666   0.25000   0.00000  Uiso   1.00
H131   H     0.60289   0.18266   0.04187   0.00000  Uiso   1.00
H132   H     0.35774   0.29488   0.30939   0.00000  Uiso   1.00
H133   H     0.64346   0.29536   0.19026   0.00000  Uiso   1.00
H134   H     0.35654   0.03798   0.30973   0.00000  Uiso   1.00
H135   H     0.44506   0.10592   0.27775   0.00000  Uiso   1.00
H136   H     0.55494   0.22742   0.22225   0.00000  Uiso   1.00
H137   H     0.53660   0.05984   0.22155   0.00000  Uiso   1.00
H138   H     0.54864   0.32502   0.25404   0.00000  Uiso   1.00
H139   H     0.55021   0.31907   0.33288   0.00000  Uiso   1.00
H140   H     0.53661   0.04787   0.38032   0.00000  Uiso   1.00
H141   H     0.52045   0.11519   0.34878   0.00000  Uiso   1.00
H142   H     0.39711   0.15067   0.45813   0.00000  Uiso   1.00
H143   H     0.46340   0.27349   0.27844   0.00000  Uiso   1.00
H144   H     0.45136   0.00831   0.24596   0.00000  Uiso   1.00
H145   H     0.44979   0.01426   0.16712   0.00000  Uiso   1.00
H146   H     0.46338   0.28547   0.11968   0.00000  Uiso   1.00
H147   H     0.47955   0.21814   0.15122   0.00000  Uiso   1.00
H148   H     0.44749   0.18228   0.10947   0.00000  Uiso   1.00
H149   H     0.55252   0.15105   0.39053   0.00000  Uiso   1.00
H150   H     0.63927   0.14078   0.10943   0.00000  Uiso   1.00
H151   H     0.36073   0.19255   0.39057   0.00000  Uiso   1.00
H152   H     0.66551   0.19918   0.47211   0.00000  Uiso   1.00
H153   H     0.33449   0.13415   0.02789   0.00000  Uiso   1.00
H154   H     0.64226   0.03845   0.19061   0.00000  Uiso   1.00
N155   N     0.45069   0.16668   0.24999   0.00000  Uiso   1.00
N156   N     0.54931   0.16666   0.25001   0.00000  Uiso   1.00
O157   O     0.37291   0.10655   0.25000   0.00000  Uiso   1.00
O158   O     0.62709   0.22678   0.25000   0.00000  Uiso   1.00
O159   O     0.62706   0.10654   0.25000   0.00000  Uiso   1.00
O160   O     0.37294   0.22679   0.25000   0.00000  Uiso   1.00
O161   O     0.35186   0.16668   0.31492   0.00000  Uiso   1.00
O162   O     0.64814   0.16666   0.18508   0.00000  Uiso   1.00
O163   O     0.60600   0.16667   0.31492   0.00000  Uiso   1.00
O164   O     0.39400   0.16667   0.18508   0.00000  Uiso   1.00
Br165  Br    0.85674   0.13962   0.10413   0.00000  Uiso   1.00
Br166  Br    0.80993   0.19371   0.39587   0.00000  Uiso   1.00
C167   C     0.99943   0.08753   0.25019   0.00000  Uiso   1.00
C168   C     0.67970   0.02140   0.28368   0.00000  Uiso   1.00
C169   C     0.66788   0.29046   0.24953   0.00000  Uiso   1.00
C170   C     0.99878   0.04288   0.25047   0.00000  Uiso   1.00
C171   C     0.85106   0.13237   0.26502   0.00000  Uiso   1.00
C172   C     0.81561   0.20096   0.23498   0.00000  Uiso   1.00
C173   C     0.80206   0.13289   0.26510   0.00000  Uiso   1.00
C174   C     0.86460   0.20045   0.23490   0.00000  Uiso   1.00
C175   C     0.97259   0.16785   0.33585   0.00000  Uiso   1.00
C176   C     0.69408   0.16548   0.16415   0.00000  Uiso   1.00
C177   C     0.95731   0.17265   0.38458   0.00000  Uiso   1.00
C178   C     0.66724   0.24580   0.24981   0.00000  Uiso   1.00
C179   C     0.70936   0.16068   0.11542   0.00000  Uiso   1.00
C180   C     0.97318   0.19061   0.45413   0.00000  Uiso   1.00
C181   C     0.69349   0.14272   0.04587   0.00000  Uiso   1.00
C182   C     0.98958   0.18622   0.40786   0.00000  Uiso   1.00
C183   C     0.67709   0.14712   0.09214   0.00000  Uiso   1.00
C184   C     0.90875   0.16545   0.40778   0.00000  Uiso   1.00
C185   C     0.75792   0.16788   0.09222   0.00000  Uiso   1.00
C186   C     0.89054   0.17353   0.45323   0.00000  Uiso   1.00
C187   C     0.77613   0.15980   0.04677   0.00000  Uiso   1.00
C188   C     0.92422   0.18269   0.47712   0.00000  Uiso   1.00
C189   C     0.86279   0.16589   0.04644   0.00000  Uiso   1.00
C190   C     0.74245   0.15064   0.02288   0.00000  Uiso   1.00
C191   C     0.84044   0.16869   0.47616   0.00000  Uiso   1.00
C192   C     0.82623   0.16464   0.02384   0.00000  Uiso   1.00
C193   C     0.86499   0.09327   0.28224   0.00000  Uiso   1.00
C194   C     0.87094   0.05769   0.25597   0.00000  Uiso   1.00
C195   C     0.87734   0.01901   0.27436   0.00000  Uiso   1.00
C196   C     0.87812   0.01562   0.31886   0.00000  Uiso   1.00
C197   C     0.87090   0.05067   0.34545   0.00000  Uiso   1.00
C198   C     0.86325   0.08910   0.32739   0.00000  Uiso   1.00
C199   C     0.80168   0.24007   0.21776   0.00000  Uiso   1.00
C200   C     0.80388   0.16744   0.45356   0.00000  Uiso   1.00
C201   C     0.79573   0.27565   0.24403   0.00000  Uiso   1.00
C202   C     0.78932   0.31432   0.22563   0.00000  Uiso   1.00
C203   C     0.78854   0.31771   0.18114   0.00000  Uiso   1.00
C204   C     0.79576   0.28266   0.15455   0.00000  Uiso   1.00
C205   C     0.80341   0.24423   0.17261   0.00000  Uiso   1.00
C206   C     0.90968   0.17940   0.02359   0.00000  Uiso   1.00
C207   C     0.75698   0.15393   0.47641   0.00000  Uiso   1.00
C208   C     0.98611   0.02168   0.21658   0.00000  Uiso   1.00
C209   C     0.68056   0.31165   0.28342   0.00000  Uiso   1.00
C210   C     0.98697   0.31194   0.21632   0.00000  Uiso   1.00
Cu211  Cu    0.71355   0.16667   0.25000   0.00000  Uiso   1.00
Cu212  Cu    0.95311   0.16666   0.25000   0.00000  Uiso   1.00
H213   H     0.93622   0.18266   0.04187   0.00000  Uiso   1.00
H214   H     0.69108   0.29488   0.30939   0.00000  Uiso   1.00
H215   H     0.97679   0.29536   0.19026   0.00000  Uiso   1.00
H216   H     0.68987   0.03798   0.30973   0.00000  Uiso   1.00
H217   H     0.77840   0.10592   0.27775   0.00000  Uiso   1.00
H218   H     0.88827   0.22742   0.22225   0.00000  Uiso   1.00
H219   H     0.86994   0.05984   0.22155   0.00000  Uiso   1.00
H220   H     0.88197   0.32502   0.25404   0.00000  Uiso   1.00
H221   H     0.88354   0.31907   0.33288   0.00000  Uiso   1.00
H222   H     0.86995   0.04787   0.38032   0.00000  Uiso   1.00
H223   H     0.85378   0.11519   0.34878   0.00000  Uiso   1.00
H224   H     0.73045   0.15067   0.45813   0.00000  Uiso   1.00
H225   H     0.79673   0.27349   0.27844   0.00000  Uiso   1.00
H226   H     0.78470   0.00831   0.24596   0.00000  Uiso   1.00
H227   H     0.78312   0.01426   0.16712   0.00000  Uiso   1.00
H228   H     0.79672   0.28547   0.11968   0.00000  Uiso   1.00
H229   H     0.81288   0.21814   0.15122   0.00000  Uiso   1.00
H230   H     0.78082   0.18228   0.10947   0.00000  Uiso   1.00
H231   H     0.88585   0.15105   0.39053   0.00000  Uiso   1.00
H232   H     0.97261   0.14078   0.10943   0.00000  Uiso   1.00
H233   H     0.69406   0.19255   0.39057   0.00000  Uiso   1.00
H234   H     0.99884   0.19918   0.47211   0.00000  Uiso   1.00
H235   H     0.66782   0.13415   0.02789   0.00000  Uiso   1.00
H236   H     0.97559   0.03845   0.19061   0.00000  Uiso   1.00
N237   N     0.78403   0.16668   0.24999   0.00000  Uiso   1.00
N238   N     0.88264   0.16666   0.25001   0.00000  Uiso   1.00
O239   O     0.70625   0.10655   0.25000   0.00000  Uiso   1.00
O240   O     0.96042   0.22678   0.25000   0.00000  Uiso   1.00
O241   O     0.96039   0.10654   0.25000   0.00000  Uiso   1.00
O242   O     0.70628   0.22679   0.25000   0.00000  Uiso   1.00
O243   O     0.68519   0.16668   0.31492   0.00000  Uiso   1.00
O244   O     0.98148   0.16666   0.18508   0.00000  Uiso   1.00
O245   O     0.93933   0.16667   0.31492   0.00000  Uiso   1.00
O246   O     0.72733   0.16667   0.18508   0.00000  Uiso   1.00
Br247  Br    0.19007   0.47296   0.10413   0.00000  Uiso   1.00
Br248  Br    0.14326   0.52704   0.39587   0.00000  Uiso   1.00
C249   C     0.33276   0.42087   0.25019   0.00000  Uiso   1.00
C250   C     0.01303   0.35473   0.28368   0.00000  Uiso   1.00
C251   C     0.00122   0.62379   0.24953   0.00000  Uiso   1.00
C252   C     0.33212   0.37621   0.25047   0.00000  Uiso   1.00
C253   C     0.18439   0.46571   0.26502   0.00000  Uiso   1.00
C254   C     0.14894   0.53429   0.23498   0.00000  Uiso   1.00
C255   C     0.13540   0.46622   0.26510   0.00000  Uiso   1.00
C256   C     0.19794   0.53378   0.23490   0.00000  Uiso   1.00
C257   C     0.30592   0.50118   0.33585   0.00000  Uiso   1.00
C258   C     0.02742   0.49882   0.16415   0.00000  Uiso   1.00
C259   C     0.29064   0.50598   0.38458   0.00000  Uiso   1.00
C260   C     0.00057   0.57913   0.24981   0.00000  Uiso   1.00
C261   C     0.04269   0.49402   0.11542   0.00000  Uiso   1.00
C262   C     0.30651   0.52394   0.45413   0.00000  Uiso   1.00
C263   C     0.02682   0.47606   0.04587   0.00000  Uiso   1.00
C264   C     0.32291   0.51955   0.40786   0.00000  Uiso   1.00
C265   C     0.01042   0.48045   0.09214   0.00000  Uiso   1.00
C266   C     0.24208   0.49879   0.40778   0.00000  Uiso   1.00
C267   C     0.09125   0.50121   0.09222   0.00000  Uiso   1.00
C268   C     0.22387   0.50686   0.45323   0.00000  Uiso   1.00
C269   C     0.10946   0.49313   0.04677   0.00000  Uiso   1.00
C270   C     0.25755   0.51602   0.47712   0.00000  Uiso   1.00
C271   C     0.19612   0.49922   0.04644   0.00000  Uiso   1.00
C272   C     0.07578   0.48398   0.02288   0.00000  Uiso   1.00
C273   C     0.17377   0.50202   0.47616   0.00000  Uiso   1.00
C274   C     0.15956   0.49798   0.02384   0.00000  Uiso   1.00
C275   C     0.19832   0.42660   0.28224   0.00000  Uiso   1.00
C276   C     0.20427   0.39102   0.25597   0.00000  Uiso   1.00
C277   C     0.21068   0.35234   0.27436   0.00000  Uiso   1.00
C278   C     0.21146   0.34895   0.31886   0.00000  Uiso   1.00
C279   C     0.20424   0.38401   0.34545   0.00000  Uiso   1.00
C280   C     0.19659   0.42244   0.32739   0.00000  Uiso   1.00
C281   C     0.13501   0.57340   0.21776   0.00000  Uiso   1.00
C282   C     0.13721   0.50077   0.45356   0.00000  Uiso   1.00
C283   C     0.12906   0.60898   0.24403   0.00000  Uiso   1.00
C284   C     0.12266   0.64766   0.22563   0.00000  Uiso   1.00
C285   C     0.12187   0.65105   0.18114   0.00000  Uiso   1.00
C286   C     0.12910   0.61599   0.15455   0.00000  Uiso   1.00
C287   C     0.13674   0.57756   0.17261   0.00000  Uiso   1.00
C288   C     0.24302   0.51273   0.02359   0.00000  Uiso   1.00
C289   C     0.09031   0.48727   0.47641   0.00000  Uiso   1.00
C290   C     0.31944   0.35502   0.21658   0.00000  Uiso   1.00
C291   C     0.01389   0.64498   0.28342   0.00000  Uiso   1.00
C292   C     0.32030   0.64527   0.21632   0.00000  Uiso   1.00
Cu293  Cu    0.04689   0.50001   0.25000   0.00000  Uiso   1.00
Cu294  Cu    0.28645   0.49999   0.25000   0.00000  Uiso   1.00
H295   H     0.26955   0.51599   0.04187   0.00000  Uiso   1.00
H296   H     0.02441   0.62822   0.30939   0.00000  Uiso   1.00
H297   H     0.31013   0.62869   0.19026   0.00000  Uiso   1.00
H298   H     0.02321   0.37131   0.30973   0.00000  Uiso   1.00
H299   H     0.11173   0.43925   0.27775   0.00000  Uiso   1.00
H300   H     0.22160   0.56075   0.22225   0.00000  Uiso   1.00
H301   H     0.20327   0.39318   0.22155   0.00000  Uiso   1.00
H302   H     0.21530   0.65836   0.25404   0.00000  Uiso   1.00
H303   H     0.21687   0.65240   0.33288   0.00000  Uiso   1.00
H304   H     0.20328   0.38120   0.38032   0.00000  Uiso   1.00
H305   H     0.18712   0.44852   0.34878   0.00000  Uiso   1.00
H306   H     0.06378   0.48401   0.45813   0.00000  Uiso   1.00
H307   H     0.13006   0.60683   0.27844   0.00000  Uiso   1.00
H308   H     0.11803   0.34164   0.24596   0.00000  Uiso   1.00
H309   H     0.11646   0.34760   0.16712   0.00000  Uiso   1.00
H310   H     0.13005   0.61880   0.11968   0.00000  Uiso   1.00
H311   H     0.14621   0.55148   0.15122   0.00000  Uiso   1.00
H312   H     0.11415   0.51562   0.10947   0.00000  Uiso   1.00
H313   H     0.21918   0.48438   0.39053   0.00000  Uiso   1.00
H314   H     0.30594   0.47412   0.10943   0.00000  Uiso   1.00
H315   H     0.02739   0.52588   0.39057   0.00000  Uiso   1.00
H316   H     0.33218   0.53252   0.47211   0.00000  Uiso   1.00
H317   H     0.00116   0.46748   0.02789   0.00000  Uiso   1.00
H318   H     0.30892   0.37178   0.19061   0.00000  Uiso   1.00
N319   N     0.11736   0.50001   0.24999   0.00000  Uiso   1.00
N320   N     0.21597   0.49999   0.25001   0.00000  Uiso   1.00
O321   O     0.03958   0.43989   0.25000   0.00000  Uiso   1.00
O322   O     0.29375   0.56011   0.25000   0.00000  Uiso   1.00
O323   O     0.29372   0.43988   0.25000   0.00000  Uiso   1.00
O324   O     0.03961   0.56012   0.25000   0.00000  Uiso   1.00
O325   O     0.01852   0.50001   0.31492   0.00000  Uiso   1.00
O326   O     0.31481   0.49999   0.18508   0.00000  Uiso   1.00
O327   O     0.27267   0.50000   0.31492   0.00000  Uiso   1.00
O328   O     0.06067   0.50000   0.18508   0.00000  Uiso   1.00
Br329  Br    0.52341   0.47296   0.10413   0.00000  Uiso   1.00
Br330  Br    0.47659   0.52704   0.39587   0.00000  Uiso   1.00
C331   C     0.66610   0.42087   0.25019   0.00000  Uiso   1.00
C332   C     0.34636   0.35473   0.28368   0.00000  Uiso   1.00
C333   C     0.33455   0.62379   0.24953   0.00000  Uiso   1.00
C334   C     0.66545   0.37621   0.25047   0.00000  Uiso   1.00
C335   C     0.51773   0.46571   0.26502   0.00000  Uiso   1.00
C336   C     0.48227   0.53429   0.23498   0.00000  Uiso   1.00
C337   C     0.46873   0.46622   0.26510   0.00000  Uiso   1.00
C338   C     0.53127   0.53378   0.23490   0.00000  Uiso   1.00
C339   C     0.63925   0.50118   0.33585   0.00000  Uiso   1.00
C340   C     0.36075   0.49882   0.16415   0.00000  Uiso   1.00
C341   C     0.62398   0.50598   0.38458   0.00000  Uiso   1.00
C342   C     0.33390   0.57913   0.24981   0.00000  Uiso   1.00
C343   C     0.37602   0.49402   0.11542   0.00000  Uiso   1.00
C344   C     0.63985   0.52394   0.45413   0.00000  Uiso   1.00
C345   C     0.36015   0.47606   0.04587   0.00000  Uiso   1.00
C346   C     0.65625   0.51955   0.40786   0.00000  Uiso   1.00
C347   C     0.34375   0.48045   0.09214   0.00000  Uiso   1.00
C348   C     0.57541   0.49879   0.40778   0.00000  Uiso   1.00
C349   C     0.42459   0.50121   0.09222   0.00000  Uiso   1.00
C350   C     0.55721   0.50686   0.45323   0.00000  Uiso   1.00
C351   C     0.44279   0.49313   0.04677   0.00000  Uiso   1.00
C352   C     0.59089   0.51602   0.47712   0.00000  Uiso   1.00
C353   C     0.52945   0.49922   0.04644   0.00000  Uiso   1.00
C354   C     0.40911   0.48398   0.02288   0.00000  Uiso   1.00
C355   C     0.50710   0.50202   0.47616   0.00000  Uiso   1.00
C356   C     0.49290   0.49798   0.02384   0.00000  Uiso   1.00
C357   C     0.53166   0.42660   0.28224   0.00000  Uiso   1.00
C358   C     0.53761   0.39102   0.25597   0.00000  Uiso   1.00
C359   C     0.54401   0.35234   0.27436   0.00000  Uiso   1.00
C360   C     0.54479   0.34895   0.31886   0.00000  Uiso   1.00
C361   C     0.53757   0.38401   0.34545   0.00000  Uiso   1.00
C362   C     0.52992   0.42244   0.32739   0.00000  Uiso   1.00
C363   C     0.46834   0.57340   0.21776   0.00000  Uiso   1.00
C364   C     0.47054   0.50077   0.45356   0.00000  Uiso   1.00
C365   C     0.46240   0.60898   0.24403   0.00000  Uiso   1.00
C366   C     0.45599   0.64766   0.22563   0.00000  Uiso   1.00
C367   C     0.45521   0.65105   0.18114   0.00000  Uiso   1.00
C368   C     0.46243   0.61599   0.15455   0.00000  Uiso   1.00
C369   C     0.47008   0.57756   0.17261   0.00000  Uiso   1.00
C370   C     0.57635   0.51273   0.02359   0.00000  Uiso   1.00
C371   C     0.42365   0.48727   0.47641   0.00000  Uiso   1.00
C372   C     0.65277   0.35502   0.21658   0.00000  Uiso   1.00
C373   C     0.34723   0.64498   0.28342   0.00000  Uiso   1.00
C374   C     0.65364   0.64527   0.21632   0.00000  Uiso   1.00
Cu375  Cu    0.38022   0.50001   0.25000   0.00000  Uiso   1.00
Cu376  Cu    0.61978   0.49999   0.25000   0.00000  Uiso   1.00
H377   H     0.60289   0.51599   0.04187   0.00000  Uiso   1.00
H378   H     0.35774   0.62822   0.30939   0.00000  Uiso   1.00
H379   H     0.64346   0.62869   0.19026   0.00000  Uiso   1.00
H380   H     0.35654   0.37131   0.30973   0.00000  Uiso   1.00
H381   H     0.44506   0.43925   0.27775   0.00000  Uiso   1.00
H382   H     0.55494   0.56075   0.22225   0.00000  Uiso   1.00
H383   H     0.53660   0.39318   0.22155   0.00000  Uiso   1.00
H384   H     0.54864   0.65836   0.25404   0.00000  Uiso   1.00
H385   H     0.55021   0.65240   0.33288   0.00000  Uiso   1.00
H386   H     0.53661   0.38120   0.38032   0.00000  Uiso   1.00
H387   H     0.52045   0.44852   0.34878   0.00000  Uiso   1.00
H388   H     0.39711   0.48401   0.45813   0.00000  Uiso   1.00
H389   H     0.46340   0.60683   0.27844   0.00000  Uiso   1.00
H390   H     0.45136   0.34164   0.24596   0.00000  Uiso   1.00
H391   H     0.44979   0.34760   0.16712   0.00000  Uiso   1.00
H392   H     0.46338   0.61880   0.11968   0.00000  Uiso   1.00
H393   H     0.47955   0.55148   0.15122   0.00000  Uiso   1.00
H394   H     0.44749   0.51562   0.10947   0.00000  Uiso   1.00
H395   H     0.55252   0.48438   0.39053   0.00000  Uiso   1.00
H396   H     0.63927   0.47412   0.10943   0.00000  Uiso   1.00
H397   H     0.36073   0.52588   0.39057   0.00000  Uiso   1.00
H398   H     0.66551   0.53252   0.47211   0.00000  Uiso   1.00
H399   H     0.33449   0.46748   0.02789   0.00000  Uiso   1.00
H400   H     0.64226   0.37178   0.19061   0.00000  Uiso   1.00
N401   N     0.45069   0.50001   0.24999   0.00000  Uiso   1.00
N402   N     0.54931   0.49999   0.25001   0.00000  Uiso   1.00
O403   O     0.37291   0.43989   0.25000   0.00000  Uiso   1.00
O404   O     0.62709   0.56011   0.25000   0.00000  Uiso   1.00
O405   O     0.62706   0.43988   0.25000   0.00000  Uiso   1.00
O406   O     0.37294   0.56012   0.25000   0.00000  Uiso   1.00
O407   O     0.35186   0.50001   0.31492   0.00000  Uiso   1.00
O408   O     0.64814   0.49999   0.18508   0.00000  Uiso   1.00
O409   O     0.60600   0.50000   0.31492   0.00000  Uiso   1.00
O410   O     0.39400   0.50000   0.18508   0.00000  Uiso   1.00
Br411  Br    0.85674   0.47296   0.10413   0.00000  Uiso   1.00
Br412  Br    0.80993   0.52704   0.39587   0.00000  Uiso   1.00
C413   C     0.99943   0.42087   0.25019   0.00000  Uiso   1.00
C414   C     0.67970   0.35473   0.28368   0.00000  Uiso   1.00
C415   C     0.66788   0.62379   0.24953   0.00000  Uiso   1.00
C416   C     0.99878   0.37621   0.25047   0.00000  Uiso   1.00
C417   C     0.85106   0.46571   0.26502   0.00000  Uiso   1.00
C418   C     0.81561   0.53429   0.23498   0.00000  Uiso   1.00
C419   C     0.80206   0.46622   0.26510   0.00000  Uiso   1.00
C420   C     0.86460   0.53378   0.23490   0.00000  Uiso   1.00
C421   C     0.97259   0.50118   0.33585   0.00000  Uiso   1.00
C422   C     0.69408   0.49882   0.16415   0.00000  Uiso   1.00
C423   C     0.95731   0.50598   0.38458   0.00000  Uiso   1.00
C424   C     0.66724   0.57913   0.24981   0.00000  Uiso   1.00
C425   C     0.70936   0.49402   0.11542   0.00000  Uiso   1.00
C426   C     0.97318   0.52394   0.45413   0.00000  Uiso   1.00
C427   C     0.69349   0.47606   0.04587   0.00000  Uiso   1.00
C428   C     0.98958   0.51955   0.40786   0.00000  Uiso   1.00
C429   C     0.67709   0.48045   0.09214   0.00000  Uiso   1.00
C430   C     0.90875   0.49879   0.40778   0.00000  Uiso   1.00
C431   C     0.75792   0.50121   0.09222   0.00000  Uiso   1.00
C432   C     0.89054   0.50686   0.45323   0.00000  Uiso   1.00
C433   C     0.77613   0.49313   0.04677   0.00000  Uiso   1.00
C434   C     0.92422   0.51602   0.47712   0.00000  Uiso   1.00
C435   C     0.86279   0.49922   0.04644   0.00000  Uiso   1.00
C436   C     0.74245   0.48398   0.02288   0.00000  Uiso   1.00
C437   C     0.84044   0.50202   0.47616   0.00000  Uiso   1.00
C438   C     0.82623   0.49798   0.02384   0.00000  Uiso   1.00
C439   C     0.86499   0.42660   0.28224   0.00000  Uiso   1.00
C440   C     0.87094   0.39102   0.25597   0.00000  Uiso   1.00
C441   C     0.87734   0.35234   0.27436   0.00000  Uiso   1.00
C442   C     0.87812   0.34895   0.31886   0.00000  Uiso   1.00
C443   C     0.87090   0.38401   0.34545   0.00000  Uiso   1.00
C444   C     0.86325   0.42244   0.32739   0.00000  Uiso   1.00
C445   C     0.80168   0.57340   0.21776   0.00000  Uiso   1.00
C446   C     0.80388   0.50077   0.45356   0.00000  Uiso   1.00
C447   C     0.79573   0.60898   0.24403   0.00000  Uiso   1.00
C448   C     0.78932   0.64766   0.22563   0.00000  Uiso   1.00
C449   C     0.78854   0.65105   0.18114   0.00000  Uiso   1.00
C450   C     0.79576   0.61599   0.15455   0.00000  Uiso   1.00
C451   C     0.80341   0.57756   0.17261   0.00000  Uiso   1.00
C452   C     0.90968   0.51273   0.02359   0.00000  Uiso   1.00
C453   C     0.75698   0.48727   0.47641   0.00000  Uiso   1.00
C454   C     0.98611   0.35502   0.21658   0.00000  Uiso   1.00
C455   C     0.68056   0.64498   0.28342   0.00000  Uiso   1.00
C456   C     0.98697   0.64527   0.21632   0.00000  Uiso   1.00
Cu457  Cu    0.71355   0.50001   0.25000   0.00000  Uiso   1.00
Cu458  Cu    0.95311   0.49999   0.25000   0.00000  Uiso   1.00
H459   H     0.93622   0.51599   0.04187   0.00000  Uiso   1.00
H460   H     0.69108   0.62822   0.30939   0.00000  Uiso   1.00
H461   H     0.97679   0.62869   0.19026   0.00000  Uiso   1.00
H462   H     0.68987   0.37131   0.30973   0.00000  Uiso   1.00
H463   H     0.77840   0.43925   0.27775   0.00000  Uiso   1.00
H464   H     0.88827   0.56075   0.22225   0.00000  Uiso   1.00
H465   H     0.86994   0.39318   0.22155   0.00000  Uiso   1.00
H466   H     0.88197   0.65836   0.25404   0.00000  Uiso   1.00
H467   H     0.88354   0.65240   0.33288   0.00000  Uiso   1.00
H468   H     0.86995   0.38120   0.38032   0.00000  Uiso   1.00
H469   H     0.85378   0.44852   0.34878   0.00000  Uiso   1.00
H470   H     0.73045   0.48401   0.45813   0.00000  Uiso   1.00
H471   H     0.79673   0.60683   0.27844   0.00000  Uiso   1.00
H472   H     0.78470   0.34164   0.24596   0.00000  Uiso   1.00
H473   H     0.78312   0.34760   0.16712   0.00000  Uiso   1.00
H474   H     0.79672   0.61880   0.11968   0.00000  Uiso   1.00
H475   H     0.81288   0.55148   0.15122   0.00000  Uiso   1.00
H476   H     0.78082   0.51562   0.10947   0.00000  Uiso   1.00
H477   H     0.88585   0.48438   0.39053   0.00000  Uiso   1.00
H478   H     0.97261   0.47412   0.10943   0.00000  Uiso   1.00
H479   H     0.69406   0.52588   0.39057   0.00000  Uiso   1.00
H480   H     0.99884   0.53252   0.47211   0.00000  Uiso   1.00
H481   H     0.66782   0.46748   0.02789   0.00000  Uiso   1.00
H482   H     0.97559   0.37178   0.19061   0.00000  Uiso   1.00
N483   N     0.78403   0.50001   0.24999   0.00000  Uiso   1.00
N484   N     0.88264   0.49999   0.25001   0.00000  Uiso   1.00
O485   O     0.70625   0.43989   0.25000   0.00000  Uiso   1.00
O486   O     0.96042   0.56011   0.25000   0.00000  Uiso   1.00
O487   O     0.96039   0.43988   0.25000   0.00000  Uiso   1.00
O488   O     0.70628   0.56012   0.25000   0.00000  Uiso   1.00
O489   O     0.68519   0.50001   0.31492   0.00000  Uiso   1.00
O490   O     0.98148   0.49999   0.18508   0.00000  Uiso   1.00
O491   O     0.93933   0.50000   0.31492   0.00000  Uiso   1.00
O492   O     0.72733   0.50000   0.18508   0.00000  Uiso   1.00
Br493  Br    0.19007   0.80629   0.10413   0.00000  Uiso   1.00
Br494  Br    0.14326   0.86037   0.39587   0.00000  Uiso   1.00
C495   C     0.33276   0.75420   0.25019   0.00000  Uiso   1.00
C496   C     0.01303   0.68807   0.28368   0.00000  Uiso   1.00
C497   C     0.00122   0.95712   0.24953   0.00000  Uiso   1.00
C498   C     0.33212   0.70955   0.25047   0.00000  Uiso   1.00
C499   C     0.18439   0.79904   0.26502   0.00000  Uiso   1.00
C500   C     0.14894   0.86763   0.23498   0.00000  Uiso   1.00
C501   C     0.13540   0.79955   0.26510   0.00000  Uiso   1.00
C502   C     0.19794   0.86711   0.23490   0.00000  Uiso   1.00
C503   C     0.30592   0.83452   0.33585   0.00000  Uiso   1.00
C504   C     0.02742   0.83215   0.16415   0.00000  Uiso   1.00
C505   C     0.29064   0.83932   0.38458   0.00000  Uiso   1.00
C506   C     0.00057   0.91247   0.24981   0.00000  Uiso   1.00
C507   C     0.04269   0.82735   0.11542   0.00000  Uiso   1.00
C508   C     0.30651   0.85728   0.45413   0.00000  Uiso   1.00
C509   C     0.02682   0.80939   0.04587   0.00000  Uiso   1.00
C510   C     0.32291   0.85288   0.40786   0.00000  Uiso   1.00
C511   C     0.01042   0.81378   0.09214   0.00000  Uiso   1.00
C512   C     0.24208   0.83212   0.40778   0.00000  Uiso   1.00
C513   C     0.09125   0.83454   0.09222   0.00000  Uiso   1.00
C514   C     0.22387   0.84020   0.45323   0.00000  Uiso   1.00
C515   C     0.10946   0.82647   0.04677   0.00000  Uiso   1.00
C516   C     0.25755   0.84935   0.47712   0.00000  Uiso   1.00
C517   C     0.19612   0.83256   0.04644   0.00000  Uiso   1.00
C518   C     0.07578   0.81731   0.02288   0.00000  Uiso   1.00
C519   C     0.17377   0.83535   0.47616   0.00000  Uiso   1.00
C520   C     0.15956   0.83131   0.02384   0.00000  Uiso   1.00
C521   C     0.19832   0.75993   0.28224   0.00000  Uiso   1.00
C522   C     0.20427   0.72435   0.25597   0.00000  Uiso   1.00
C523   C     0.21068   0.68568   0.27436   0.00000  Uiso   1.00
C524   C     0.21146   0.68229   0.31886   0.00000  Uiso   1.00
C525   C     0.20424   0.71734   0.34545   0.00000  Uiso   1.00
C526   C     0.19659   0.75577   0.32739   0.00000  Uiso   1.00
C527   C     0.13501   0.90673   0.21776   0.00000  Uiso   1.00
C528   C     0.13721   0.83411   0.45356   0.00000  Uiso   1.00
C529   C     0.12906   0.94231   0.24403   0.00000  Uiso   1.00
C530   C     0.12266   0.98099   0.22563   0.00000  Uiso   1.00
C531   C     0.12187   0.98438   0.18114   0.00000  Uiso   1.00
C532   C     0.12910   0.94932   0.15455   0.00000  Uiso   1.00
C533   C     0.13674   0.91090   0.17261   0.00000  Uiso   1.00
C534   C     0.24302   0.84606   0.02359   0.00000  Uiso   1.00
C535   C     0.09031   0.82060   0.47641   0.00000  Uiso   1.00
C536   C     0.31944   0.68835   0.21658   0.00000  Uiso   1.00
C537   C     0.01389   0.97832   0.28342   0.00000  Uiso   1.00
C538   C     0.32030   0.97860   0.21632   0.00000  Uiso   1.00
Cu539  Cu    0.04689   0.83334   0.25000   0.00000  Uiso   1.00
Cu540  Cu    0.28645   0.83333   0.25000   0.00000  Uiso   1.00
H541   H     0.26955   0.84932   0.04187   0.00000  Uiso   1.00
H542   H     0.02441   0.96155   0.30939   0.00000  Uiso   1.00
H543   H     0.31013   0.96202   0.19026   0.00000  Uiso   1.00
H544   H     0.02321   0.70464   0.30973   0.00000  Uiso   1.00
H545   H     0.11173   0.77258   0.27775   0.00000  Uiso   1.00
H546   H     0.22160   0.89408   0.22225   0.00000  Uiso   1.00
H547   H     0.20327   0.72651   0.22155   0.00000  Uiso   1.00
H548   H     0.21530   0.99169   0.25404   0.00000  Uiso   1.00
H549   H     0.21687   0.98574   0.33288   0.00000  Uiso   1.00
H550   H     0.20328   0.71453   0.38032   0.00000  Uiso   1.00
H551   H     0.18712   0.78186   0.34878   0.00000  Uiso   1.00
H552   H     0.06378   0.81734   0.45813   0.00000  Uiso   1.00
H553   H     0.13006   0.94016   0.27844   0.00000  Uiso   1.00
H554   H     0.11803   0.67498   0.24596   0.00000  Uiso   1.00
H555   H     0.11646   0.68093   0.16712   0.00000  Uiso   1.00
H556   H     0.13005   0.95213   0.11968   0.00000  Uiso   1.00
H557   H     0.14621   0.88481   0.15122   0.00000  Uiso   1.00
H558   H     0.11415   0.84895   0.10947   0.00000  Uiso   1.00
H559   H     0.21918   0.81771   0.39053   0.00000  Uiso   1.00
H560   H     0.30594   0.80745   0.10943   0.00000  Uiso   1.00
H561   H     0.02739   0.85922   0.39057   0.00000  Uiso   1.00
H562   H     0.33218   0.86585   0.47211   0.00000  Uiso   1.00
H563   H     0.00116   0.80081   0.02789   0.00000  Uiso   1.00
H564   H     0.30892   0.70512   0.19061   0.00000  Uiso   1.00
N565   N     0.11736   0.83334   0.24999   0.00000  Uiso   1.00
N566   N     0.21597   0.83332   0.25001   0.00000  Uiso   1.00
O567   O     0.03958   0.77322   0.25000   0.00000  Uiso   1.00
O568   O     0.29375   0.89345   0.25000   0.00000  Uiso   1.00
O569   O     0.29372   0.77321   0.25000   0.00000  Uiso   1.00
O570   O     0.03961   0.89346   0.25000   0.00000  Uiso   1.00
O571   O     0.01852   0.83334   0.31492   0.00000  Uiso   1.00
O572   O     0.31481   0.83332   0.18508   0.00000  Uiso   1.00
O573   O     0.27267   0.83333   0.31492   0.00000  Uiso   1.00
O574   O     0.06067   0.83333   0.18508   0.00000  Uiso   1.00
Br575  Br    0.52341   0.80629   0.10413   0.00000  Uiso   1.00
Br576  Br    0.47659   0.86037   0.39587   0.00000  Uiso   1.00
C577   C     0.66610   0.75420   0.25019   0.00000  Uiso   1.00
C578   C     0.34636   0.68807   0.28368   0.00000  Uiso   1.00
C579   C     0.33455   0.95712   0.24953   0.00000  Uiso   1.00
C580   C     0.66545   0.70955   0.25047   0.00000  Uiso   1.00
C581   C     0.51773   0.79904   0.26502   0.00000  Uiso   1.00
C582   C     0.48227   0.86763   0.23498   0.00000  Uiso   1.00
C583   C     0.46873   0.79955   0.26510   0.00000  Uiso   1.00
C584   C     0.53127   0.86711   0.23490   0.00000  Uiso   1.00
C585   C     0.63925   0.83452   0.33585   0.00000  Uiso   1.00
C586   C     0.36075   0.83215   0.16415   0.00000  Uiso   1.00
C587   C     0.62398   0.83932   0.38458   0.00000  Uiso   1.00
C588   C     0.33390   0.91247   0.24981   0.00000  Uiso   1.00
C589   C     0.37602   0.82735   0.11542   0.00000  Uiso   1.00
C590   C     0.63985   0.85728   0.45413   0.00000  Uiso   1.00
C591   C     0.36015   0.80939   0.04587   0.00000  Uiso   1.00
C592   C     0.65625   0.85288   0.40786   0.00000  Uiso   1.00
C593   C     0.34375   0.81378   0.09214   0.00000  Uiso   1.00
C594   C     0.57541   0.83212   0.40778   0.00000  Uiso   1.00
C595   C     0.42459   0.83454   0.09222   0.00000  Uiso   1.00
C596   C     0.55721   0.84020   0.45323   0.00000  Uiso   1.00
C597   C     0.44279   0.82647   0.04677   0.00000  Uiso   1.00
C598   C     0.59089   0.84935   0.47712   0.00000  Uiso   1.00
C599   C     0.52945   0.83256   0.04644   0.00000  Uiso   1.00
C600   C     0.40911   0.81731   0.02288   0.00000  Uiso   1.00
C601   C     0.50710   0.83535   0.47616   0.00000  Uiso   1.00
C602   C     0.49290   0.83131   0.02384   0.00000  Uiso   1.00
C603   C     0.53166   0.75993   0.28224   0.00000  Uiso   1.00
C604   C     0.53761   0.72435   0.25597   0.00000  Uiso   1.00
C605   C     0.54401   0.68568   0.27436   0.00000  Uiso   1.00
C606   C     0.54479   0.68229   0.31886   0.00000  Uiso   1.00
C607   C     0.53757   0.71734   0.34545   0.00000  Uiso   1.00
C608   C     0.52992   0.75577   0.32739   0.00000  Uiso   1.00
C609   C     0.46834   0.90673   0.21776   0.00000  Uiso   1.00
C610   C     0.47054   0.83411   0.45356   0.00000  Uiso   1.00
C611   C     0.46240   0.94231   0.24403   0.00000  Uiso   1.00
C612   C     0.45599   0.98099   0.22563   0.00000  Uiso   1.00
C613   C     0.45521   0.98438   0.18114   0.00000  Uiso   1.00
C614   C     0.46243   0.94932   0.15455   0.00000  Uiso   1.00
C615   C     0.47008   0.91090   0.17261   0.00000  Uiso   1.00
C616   C     0.57635   0.84606   0.02359   0.00000  Uiso   1.00
C617   C     0.42365   0.82060   0.47641   0.00000  Uiso   1.00
C618   C     0.65277   0.68835   0.21658   0.00000  Uiso   1.00
C619   C     0.34723   0.97832   0.28342   0.00000  Uiso   1.00
C620   C     0.65364   0.97860   0.21632   0.00000  Uiso   1.00
Cu621  Cu    0.38022   0.83334   0.25000   0.00000  Uiso   1.00
Cu622  Cu    0.61978   0.83333   0.25000   0.00000  Uiso   1.00
H623   H     0.60289   0.84932   0.04187   0.00000  Uiso   1.00
H624   H     0.35774   0.96155   0.30939   0.00000  Uiso   1.00
H625   H     0.64346   0.96202   0.19026   0.00000  Uiso   1.00
H626   H     0.35654   0.70464   0.30973   0.00000  Uiso   1.00
H627   H     0.44506   0.77258   0.27775   0.00000  Uiso   1.00
H628   H     0.55494   0.89408   0.22225   0.00000  Uiso   1.00
H629   H     0.53660   0.72651   0.22155   0.00000  Uiso   1.00
H630   H     0.54864   0.99169   0.25404   0.00000  Uiso   1.00
H631   H     0.55021   0.98574   0.33288   0.00000  Uiso   1.00
H632   H     0.53661   0.71453   0.38032   0.00000  Uiso   1.00
H633   H     0.52045   0.78186   0.34878   0.00000  Uiso   1.00
H634   H     0.39711   0.81734   0.45813   0.00000  Uiso   1.00
H635   H     0.46340   0.94016   0.27844   0.00000  Uiso   1.00
H636   H     0.45136   0.67498   0.24596   0.00000  Uiso   1.00
H637   H     0.44979   0.68093   0.16712   0.00000  Uiso   1.00
H638   H     0.46338   0.95213   0.11968   0.00000  Uiso   1.00
H639   H     0.47955   0.88481   0.15122   0.00000  Uiso   1.00
H640   H     0.44749   0.84895   0.10947   0.00000  Uiso   1.00
H641   H     0.55252   0.81771   0.39053   0.00000  Uiso   1.00
H642   H     0.63927   0.80745   0.10943   0.00000  Uiso   1.00
H643   H     0.36073   0.85922   0.39057   0.00000  Uiso   1.00
H644   H     0.66551   0.86585   0.47211   0.00000  Uiso   1.00
H645   H     0.33449   0.80081   0.02789   0.00000  Uiso   1.00
H646   H     0.64226   0.70512   0.19061   0.00000  Uiso   1.00
N647   N     0.45069   0.83334   0.24999   0.00000  Uiso   1.00
N648   N     0.54931   0.83332   0.25001   0.00000  Uiso   1.00
O649   O     0.37291   0.77322   0.25000   0.00000  Uiso   1.00
O650   O     0.62709   0.89345   0.25000   0.00000  Uiso   1.00
O651   O     0.62706   0.77321   0.25000   0.00000  Uiso   1.00
O652   O     0.37294   0.89346   0.25000   0.00000  Uiso   1.00
O653   O     0.35186   0.83334   0.31492   0.00000  Uiso   1.00
O654   O     0.64814   0.83332   0.18508   0.00000  Uiso   1.00
O655   O     0.60600   0.83333   0.31492   0.00000  Uiso   1.00
O656   O     0.39400   0.83333   0.18508   0.00000  Uiso   1.00
Br657  Br    0.85674   0.80629   0.10413   0.00000  Uiso   1.00
Br658  Br    0.80993   0.86037   0.39587   0.00000  Uiso   1.00
C659   C     0.99943   0.75420   0.25019   0.00000  Uiso   1.00
C660   C     0.67970   0.68807   0.28368   0.00000  Uiso   1.00
C661   C     0.66788   0.95712   0.24953   0.00000  Uiso   1.00
C662   C     0.99878   0.70955   0.25047   0.00000  Uiso   1.00
C663   C     0.85106   0.79904   0.26502   0.00000  Uiso   1.00
C664   C     0.81561   0.86763   0.23498   0.00000  Uiso   1.00
C665   C     0.80206   0.79955   0.26510   0.00000  Uiso   1.00
C666   C     0.86460   0.86711   0.23490   0.00000  Uiso   1.00
C667   C     0.97259   0.83452   0.33585   0.00000  Uiso   1.00
C668   C     0.69408   0.83215   0.16415   0.00000  Uiso   1.00
C669   C     0.95731   0.83932   0.38458   0.00000  Uiso   1.00
C670   C     0.66724   0.91247   0.24981   0.00000  Uiso   1.00
C671   C     0.70936   0.82735   0.11542   0.00000  Uiso   1.00
C672   C     0.97318   0.85728   0.45413   0.00000  Uiso   1.00
C673   C     0.69349   0.80939   0.04587   0.00000  Uiso   1.00
C674   C     0.98958   0.85288   0.40786   0.00000  Uiso   1.00
C675   C     0.67709   0.81378   0.09214   0.00000  Uiso   1.00
C676   C     0.90875   0.83212   0.40778   0.00000  Uiso   1.00
C677   C     0.75792   0.83454   0.09222   0.00000  Uiso   1.00
C678   C     0.89054   0.84020   0.45323   0.00000  Uiso   1.00
C679   C     0.77613   0.82647   0.04677   0.00000  Uiso   1.00
C680   C     0.92422   0.84935   0.47712   0.00000  Uiso   1.00
C681   C     0.86279   0.83256   0.04644   0.00000  Uiso   1.00
C682   C     0.74245   0.81731   0.02288   0.00000  Uiso   1.00
C683   C     0.84044   0.83535   0.47616   0.00000  Uiso   1.00
C684   C     0.82623   0.83131   0.02384   0.00000  Uiso   1.00
C685   C     0.86499   0.75993   0.28224   0.00000  Uiso   1.00
C686   C     0.87094   0.72435   0.25597   0.00000  Uiso   1.00
C687   C     0.87734   0.68568   0.27436   0.00000  Uiso   1.00
C688   C     0.87812   0.68229   0.31886   0.00000  Uiso   1.00
C689   C     0.87090   0.71734   0.34545   0.00000  Uiso   1.00
C690   C     0.86325   0.75577   0.32739   0.00000  Uiso   1.00
C691   C     0.80168   0.90673   0.21776   0.00000  Uiso   1.00
C692   C     0.80388   0.83411   0.45356   0.00000  Uiso   1.00
C693   C     0.79573   0.94231   0.24403   0.00000  Uiso   1.00
C694   C     0.78932   0.98099   0.22563   0.00000  Uiso   1.00
C695   C     0.78854   0.98438   0.18114   0.00000  Uiso   1.00
C696   C     0.79576   0.94932   0.15455   0.00000  Uiso   1.00
C697   C     0.80341   0.91090   0.17261   0.00000  Uiso   1.00
C698   C     0.90968   0.84606   0.02359   0.00000  Uiso   1.00
C699   C     0.75698   0.82060   0.47641   0.00000  Uiso   1.00
C700   C     0.98611   0.68835   0.21658   0.00000  Uiso   1.00
C701   C     0.68056   0.97832   0.28342   0.00000  Uiso   1.00
C702   C     0.98697   0.97860   0.21632   0.00000  Uiso   1.00
Cu703  Cu    0.71355   0.83334   0.25000   0.00000  Uiso   1.00
Cu704  Cu    0.95311   0.83333   0.25000   0.00000  Uiso   1.00
H705   H     0.93622   0.84932   0.04187   0.00000  Uiso   1.00
H706   H     0.69108   0.96155   0.30939   0.00000  Uiso   1.00
H707   H     0.97679   0.96202   0.19026   0.00000  Uiso   1.00
H708   H     0.68987   0.70464   0.30973   0.00000  Uiso   1.00
H709   H     0.77840   0.77258   0.27775   0.00000  Uiso   1.00
H710   H     0.88827   0.89408   0.22225   0.00000  Uiso   1.00
H711   H     0.86994   0.72651   0.22155   0.00000  Uiso   1.00
H712   H     0.88197   0.99169   0.25404   0.00000  Uiso   1.00
H713   H     0.88354   0.98574   0.33288   0.00000  Uiso   1.00
H714   H     0.86995   0.71453   0.38032   0.00000  Uiso   1.00
H715   H     0.85378   0.78186   0.34878   0.00000  Uiso   1.00
H716   H     0.73045   0.81734   0.45813   0.00000  Uiso   1.00
H717   H     0.79673   0.94016   0.27844   0.00000  Uiso   1.00
H718   H     0.78470   0.67498   0.24596   0.00000  Uiso   1.00
H719   H     0.78312   0.68093   0.16712   0.00000  Uiso   1.00
H720   H     0.79672   0.95213   0.11968   0.00000  Uiso   1.00
H721   H     0.81288   0.88481   0.15122   0.00000  Uiso   1.00
H722   H     0.78082   0.84895   0.10947   0.00000  Uiso   1.00
H723   H     0.88585   0.81771   0.39053   0.00000  Uiso   1.00
H724   H     0.97261   0.80745   0.10943   0.00000  Uiso   1.00
H725   H     0.69406   0.85922   0.39057   0.00000  Uiso   1.00
H726   H     0.99884   0.86585   0.47211   0.00000  Uiso   1.00
H727   H     0.66782   0.80081   0.02789   0.00000  Uiso   1.00
H728   H     0.97559   0.70512   0.19061   0.00000  Uiso   1.00
N729   N     0.78403   0.83334   0.24999   0.00000  Uiso   1.00
N730   N     0.88264   0.83332   0.25001   0.00000  Uiso   1.00
O731   O     0.70625   0.77322   0.25000   0.00000  Uiso   1.00
O732   O     0.96042   0.89345   0.25000   0.00000  Uiso   1.00
O733   O     0.96039   0.77321   0.25000   0.00000  Uiso   1.00
O734   O     0.70628   0.89346   0.25000   0.00000  Uiso   1.00
O735   O     0.68519   0.83334   0.31492   0.00000  Uiso   1.00
O736   O     0.98148   0.83332   0.18508   0.00000  Uiso   1.00
O737   O     0.93933   0.83333   0.31492   0.00000  Uiso   1.00
O738   O     0.72733   0.83333   0.18508   0.00000  Uiso   1.00
Br739  Br    0.19007   0.13962   0.60413   0.00000  Uiso   1.00
Br740  Br    0.14326   0.19371   0.89587   0.00000  Uiso   1.00
C741   C     0.33276   0.08753   0.75019   0.00000  Uiso   1.00
C742   C     0.01303   0.02140   0.78368   0.00000  Uiso   1.00
C743   C     0.00122   0.29046   0.74953   0.00000  Uiso   1.00
C744   C     0.33212   0.04288   0.75047   0.00000  Uiso   1.00
C745   C     0.18439   0.13237   0.76502   0.00000  Uiso   1.00
C746   C     0.14894   0.20096   0.73498   0.00000  Uiso   1.00
C747   C     0.13540   0.13289   0.76510   0.00000  Uiso   1.00
C748   C     0.19794   0.20045   0.73490   0.00000  Uiso   1.00
C749   C     0.30592   0.16785   0.83585   0.00000  Uiso   1.00
C750   C     0.02742   0.16548   0.66415   0.00000  Uiso   1.00
C751   C     0.29064   0.17265   0.88458   0.00000  Uiso   1.00
C752   C     0.00057   0.24580   0.74981   0.00000  Uiso   1.00
C753   C     0.04269   0.16068   0.61542   0.00000  Uiso   1.00
C754   C     0.30651   0.19061   0.95413   0.00000  Uiso   1.00
C755   C     0.02682   0.14272   0.54587   0.00000  Uiso   1.00
C756   C     0.32291   0.18622   0.90786   0.00000  Uiso   1.00
C757   C     0.01042   0.14712   0.59214   0.00000  Uiso   1.00
C758   C     0.24208   0.16545   0.90778   0.00000  Uiso   1.00
C759   C     0.09125   0.16788   0.59222   0.00000  Uiso   1.00
C760   C     0.22387   0.17353   0.95323   0.00000  Uiso   1.00
C761   C     0.10946   0.15980   0.54677   0.00000  Uiso   1.00
C762   C     0.25755   0.18269   0.97712   0.00000  Uiso   1.00
C763   C     0.19612   0.16589   0.54644   0.00000  Uiso   1.00
C764   C     0.07578   0.15064   0.52288   0.00000  Uiso   1.00
C765   C     0.17377   0.16869   0.97616   0.00000  Uiso   1.00
C766   C     0.15956   0.16464   0.52384   0.00000  Uiso   1.00
C767   C     0.19832   0.09327   0.78224   0.00000  Uiso   1.00
C768   C     0.20427   0.05769   0.75597   0.00000  Uiso   1.00
C769   C     0.21068   0.01901   0.77436   0.00000  Uiso   1.00
C770   C     0.21146   0.01562   0.81886   0.00000  Uiso   1.00
C771   C     0.20424   0.05067   0.84545   0.00000  Uiso   1.00
C772   C     0.19659   0.08910   0.82739   0.00000  Uiso   1.00
C773   C     0.13501   0.24007   0.71776   0.00000  Uiso   1.00
C774   C     0.13721   0.16744   0.95356   0.00000  Uiso   1.00
C775   C     0.12906   0.27565   0.74403   0.00000  Uiso   1.00
C776   C     0.12266   0.31432   0.72563   0.00000  Uiso   1.00
C777   C     0.12187   0.31771   0.68114   0.00000  Uiso   1.00
C778   C     0.12910   0.28266   0.65455   0.00000  Uiso   1.00
C779   C     0.13674   0.24423   0.67261   0.00000  Uiso   1.00
C780   C     0.24302   0.17940   0.52359   0.00000  Uiso   1.00
C781   C     0.09031   0.15393   0.97641   0.00000  Uiso   1.00
C782   C     0.31944   0.02168   0.71658   0.00000  Uiso   1.00
C783   C     0.01389   0.31165   0.78342   0.00000  Uiso   1.00
C784   C     0.32030   0.31194   0.71632   0.00000  Uiso   1.00
Cu785  Cu    0.04689   0.16667   0.75000   0.00000  Uiso   1.00
Cu786  Cu    0.28645   0.16666   0.75000   0.00000  Uiso   1.00
H787   H     0.26955   0.18266   0.54187   0.00000  Uiso   1.00
H788   H     0.02441   0.29488   0.80939   0.00000  Uiso   1.00
H789   H     0.31013   0.29536   0.69026   0.00000  Uiso   1.00
H790   H     0.02321   0.03798   0.80973   0.00000  Uiso   1.00
H791   H     0.11173   0.10592   0.77775   0.00000  Uiso   1.00
H792   H     0.22160   0.22742   0.72225   0.00000  Uiso   1.00
H793   H     0.20327   0.05984   0.72155   0.00000  Uiso   1.00
H794   H     0.21530   0.32502   0.75404   0.00000  Uiso   1.00
H795   H     0.21687   0.31907   0.83288   0.00000  Uiso   1.00
H796   H     0.20328   0.04787   0.88032   0.00000  Uiso   1.00
H797   H     0.18712   0.11519   0.84878   0.00000  Uiso   1.00
H798   H     0.06378   0.15067   0.95813   0.00000  Uiso   1.00
H799   H     0.13006   0.27349   0.77844   0.00000  Uiso   1.00
H800   H     0.11803   0.00831   0.74596   0.00000  Uiso   1.00
H801   H     0.11646   0.01426   0.66712   0.00000  Uiso   1.00
H802   H     0.13005   0.28547   0.61968   0.00000  Uiso   1.00
H803   H     0.14621   0.21814   0.65122   0.00000  Uiso   1.00
H804   H     0.11415   0.18228   0.60947   0.00000  Uiso   1.00
H805   H     0.21918   0.15105   0.89053   0.00000  Uiso   1.00
H806   H     0.30594   0.14078   0.60943   0.00000  Uiso   1.00
H807   H     0.02739   0.19255   0.89057   0.00000  Uiso   1.00
H808   H     0.33218   0.19918   0.97211   0.00000  Uiso   1.00
H809   H     0.00116   0.13415   0.52789   0.00000  Uiso   1.00
H810   H     0.30892   0.03845   0.69061   0.00000  Uiso   1.00
N811   N     0.11736   0.16668   0.74999   0.00000  Uiso   1.00
N812   N     0.21597   0.16666   0.75001   0.00000  Uiso   1.00
O813   O     0.03958   0.10655   0.75000   0.00000  Uiso   1.00
O814   O     0.29375   0.22678   0.75000   0.00000  Uiso   1.00
O815   O     0.29372   0.10654   0.75000   0.00000  Uiso   1.00
O816   O     0.03961   0.22679   0.75000   0.00000  Uiso   1.00
O817   O     0.01852   0.16668   0.81492   0.00000  Uiso   1.00
O818   O     0.31481   0.16666   0.68508   0.00000  Uiso   1.00
O819   O     0.27267   0.16667   0.81492   0.00000  Uiso   1.00
O820   O     0.06067   0.16667   0.68508   0.00000  Uiso   1.00
Br821  Br    0.52341   0.13962   0.60413   0.00000  Uiso   1.00
Br822  Br    0.47659   0.19371   0.89587   0.00000  Uiso   1.00
C823   C     0.66610   0.08753   0.75019   0.00000  Uiso   1.00
C824   C     0.34636   0.02140   0.78368   0.00000  Uiso   1.00
C825   C     0.33455   0.29046   0.74953   0.00000  Uiso   1.00
C826   C     0.66545   0.04288   0.75047   0.00000  Uiso   1.00
C827   C     0.51773   0.13237   0.76502   0.00000  Uiso   1.00
C828   C     0.48227   0.20096   0.73498   0.00000  Uiso   1.00
C829   C     0.46873   0.13289   0.76510   0.00000  Uiso   1.00
C830   C     0.53127   0.20045   0.73490   0.00000  Uiso   1.00
C831   C     0.63925   0.16785   0.83585   0.00000  Uiso   1.00
C832   C     0.36075   0.16548   0.66415   0.00000  Uiso   1.00
C833   C     0.62398   0.17265   0.88458   0.00000  Uiso   1.00
C834   C     0.33390   0.24580   0.74981   0.00000  Uiso   1.00
C835   C     0.37602   0.16068   0.61542   0.00000  Uiso   1.00
C836   C     0.63985   0.19061   0.95413   0.00000  Uiso   1.00
C837   C     0.36015   0.14272   0.54587   0.00000  Uiso   1.00
C838   C     0.65625   0.18622   0.90786   0.00000  Uiso   1.00
C839   C     0.34375   0.14712   0.59214   0.00000  Uiso   1.00
C840   C     0.57541   0.16545   0.90778   0.00000  Uiso   1.00
C841   C     0.42459   0.16788   0.59222   0.00000  Uiso   1.00
C842   C     0.55721   0.17353   0.95323   0.00000  Uiso   1.00
C843   C     0.44279   0.15980   0.54677   0.00000  Uiso   1.00
C844   C     0.59089   0.18269   0.97712   0.00000  Uiso   1.00
C845   C     0.52945   0.16589   0.54644   0.00000  Uiso   1.00
C846   C     0.40911   0.15064   0.52288   0.00000  Uiso   1.00
C847   C     0.50710   0.16869   0.97616   0.00000  Uiso   1.00
C848   C     0.49290   0.16464   0.52384   0.00000  Uiso   1.00
C849   C     0.53166   0.09327   0.78224   0.00000  Uiso   1.00
C850   C     0.53761   0.05769   0.75597   0.00000  Uiso   1.00
C851   C     0.54401   0.01901   0.77436   0.00000  Uiso   1.00
C852   C     0.54479   0.01562   0.81886   0.00000  Uiso   1.00
C853   C     0.53757   0.05067   0.84545   0.00000  Uiso   1.00
C854   C     0.52992   0.08910   0.82739   0.00000  Uiso   1.00
C855   C     0.46834   0.24007   0.71776   0.00000  Uiso   1.00
C856   C     0.47054   0.16744   0.95356   0.00000  Uiso   1.00
C857   C     0.46240   0.27565   0.74403   0.00000  Uiso   1.00
C858   C     0.45599   0.31432   0.72563   0.00000  Uiso   1.00
C859   C     0.45521   0.31771   0.68114   0.00000  Uiso   1.00
C860   C     0.46243   0.28266   0.65455   0.00000  Uiso   1.00
C861   C     0.47008   0.24423   0.67261   0.00000  Uiso   1.00
C862   C     0.57635   0.17940   0.52359   0.00000  Uiso   1.00
C863   C     0.42365   0.15393   0.97641   0.00000  Uiso   1.00
C864   C     0.65277   0.02168   0.71658   0.00000  Uiso   1.00
C865   C     0.34723   0.31165   0.78342   0.00000  Uiso   1.00
C866   C     0.65364   0.31194   0.71632   0.00000  Uiso   1.00
Cu867  Cu    0.38022   0.16667   0.75000   0.00000  Uiso   1.00
Cu868  Cu    0.61978   0.16666   0.75000   0.00000  Uiso   1.00
H869   H     0.60289   0.18266   0.54187   0.00000  Uiso   1.00
H870   H     0.35774   0.29488   0.80939   0.00000  Uiso   1.00
H871   H     0.64346   0.29536   0.69026   0.00000  Uiso   1.00
H872   H     0.35654   0.03798   0.80973   0.00000  Uiso   1.00
H873   H     0.44506   0.10592   0.77775   0.00000  Uiso   1.00
H874   H     0.55494   0.22742   0.72225   0.00000  Uiso   1.00
H875   H     0.53660   0.05984   0.72155   0.00000  Uiso   1.00
H876   H     0.54864   0.32502   0.75404   0.00000  Uiso   1.00
H877   H     0.55021   0.31907   0.83288   0.00000  Uiso   1.00
H878   H     0.53661   0.04787   0.88032   0.00000  Uiso   1.00
H879   H     0.52045   0.11519   0.84878   0.00000  Uiso   1.00
H880   H     0.39711   0.15067   0.95813   0.00000  Uiso   1.00
H881   H     0.46340   0.27349   0.77844   0.00000  Uiso   1.00
H882   H     0.45136   0.00831   0.74596   0.00000  Uiso   1.00
H883   H     0.44979   0.01426   0.66712   0.00000  Uiso   1.00
H884   H     0.46338   0.28547   0.61968   0.00000  Uiso   1.00
H885   H     0.47955   0.21814   0.65122   0.00000  Uiso   1.00
H886   H     0.44749   0.18228   0.60947   0.00000  Uiso   1.00
H887   H     0.55252   0.15105   0.89053   0.00000  Uiso   1.00
H888   H     0.63927   0.14078   0.60943   0.00000  Uiso   1.00
H889   H     0.36073   0.19255   0.89057   0.00000  Uiso   1.00
H890   H     0.66551   0.19918   0.97211   0.00000  Uiso   1.00
H891   H     0.33449   0.13415   0.52789   0.00000  Uiso   1.00
H892   H     0.64226   0.03845   0.69061   0.00000  Uiso   1.00
N893   N     0.45069   0.16668   0.74999   0.00000  Uiso   1.00
N894   N     0.54931   0.16666   0.75001   0.00000  Uiso   1.00
O895   O     0.37291   0.10655   0.75000   0.00000  Uiso   1.00
O896   O     0.62709   0.22678   0.75000   0.00000  Uiso   1.00
O897   O     0.62706   0.10654   0.75000   0.00000  Uiso   1.00
O898   O     0.37294   0.22679   0.75000   0.00000  Uiso   1.00
O899   O     0.35186   0.16668   0.81492   0.00000  Uiso   1.00
O900   O     0.64814   0.16666   0.68508   0.00000  Uiso   1.00
O901   O     0.60600   0.16667   0.81492   0.00000  Uiso   1.00
O902   O     0.39400   0.16667   0.68508   0.00000  Uiso   1.00
Br903  Br    0.85674   0.13962   0.60413   0.00000  Uiso   1.00
Br904  Br    0.80993   0.19371   0.89587   0.00000  Uiso   1.00
C905   C     0.99943   0.08753   0.75019   0.00000  Uiso   1.00
C906   C     0.67970   0.02140   0.78368   0.00000  Uiso   1.00
C907   C     0.66788   0.29046   0.74953   0.00000  Uiso   1.00
C908   C     0.99878   0.04288   0.75047   0.00000  Uiso   1.00
C909   C     0.85106   0.13237   0.76502   0.00000  Uiso   1.00
C910   C     0.81561   0.20096   0.73498   0.00000  Uiso   1.00
C911   C     0.80206   0.13289   0.76510   0.00000  Uiso   1.00
C912   C     0.86460   0.20045   0.73490   0.00000  Uiso   1.00
C913   C     0.97259   0.16785   0.83585   0.00000  Uiso   1.00
C914   C     0.69408   0.16548   0.66415   0.00000  Uiso   1.00
C915   C     0.95731   0.17265   0.88458   0.00000  Uiso   1.00
C916   C     0.66724   0.24580   0.74981   0.00000  Uiso   1.00
C917   C     0.70936   0.16068   0.61542   0.00000  Uiso   1.00
C918   C     0.97318   0.19061   0.95413   0.00000  Uiso   1.00
C919   C     0.69349   0.14272   0.54587   0.00000  Uiso   1.00
C920   C     0.98958   0.18622   0.90786   0.00000  Uiso   1.00
C921   C     0.67709   0.14712   0.59214   0.00000  Uiso   1.00
C922   C     0.90875   0.16545   0.90778   0.00000  Uiso   1.00
C923   C     0.75792   0.16788   0.59222   0.00000  Uiso   1.00
C924   C     0.89054   0.17353   0.95323   0.00000  Uiso   1.00
C925   C     0.77613   0.15980   0.54677   0.00000  Uiso   1.00
C926   C     0.92422   0.18269   0.97712   0.00000  Uiso   1.00
C927   C     0.86279   0.16589   0.54644   0.00000  Uiso   1.00
C928   C     0.74245   0.15064   0.52288   0.00000  Uiso   1.00
C929   C     0.84044   0.16869   0.97616   0.00000  Uiso   1.00
C930   C     0.82623   0.16464   0.52384   0.00000  Uiso   1.00
C931   C     0.86499   0.09327   0.78224   0.00000  Uiso   1.00
C932   C     0.87094   0.05769   0.75597   0.00000  Uiso   1.00
C933   C     0.87734   0.01901   0.77436   0.00000  Uiso   1.00
C934   C     0.87812   0.01562   0.81886   0.00000  Uiso   1.00
C935   C     0.87090   0.05067   0.84545   0.00000  Uiso   1.00
C936   C     0.86325   0.08910   0.82739   0.00000  Uiso   1.00
C937   C     0.80168   0.24007   0.71776   0.00000  Uiso   1.00
C938   C     0.80388   0.16744   0.95356   0.00000  Uiso   1.00
C939   C     0.79573   0.27565   0.74403   0.00000  Uiso   1.00
C940   C     0.78932   0.31432   0.72563   0.00000  Uiso   1.00
C941   C     0.78854   0.31771   0.68114   0.00000  Uiso   1.00
C942   C     0.79576   0.28266   0.65455   0.00000  Uiso   1.00
C943   C     0.80341   0.24423   0.67261   0.00000  Uiso   1.00
C944   C     0.90968   0.17940   0.52359   0.00000  Uiso   1.00
C945   C     0.75698   0.15393   0.97641   0.00000  Uiso   1.00
C946   C     0.98611   0.02168   0.71658   0.00000  Uiso   1.00
C947   C     0.68056   0.31165   0.78342   0.00000  Uiso   1.00
C948   C     0.98697   0.31194   0.71632   0.00000  Uiso   1.00
Cu949  Cu    0.71355   0.16667   0.75000   0.00000  Uiso   1.00
Cu950  Cu    0.95311   0.16666   0.75000   0.00000  Uiso   1.00
H951   H     0.93622   0.18266   0.54187   0.00000  Uiso   1.00
H952   H     0.69108   0.29488   0.80939   0.00000  Uiso   1.00
H953   H     0.97679   0.29536   0.69026   0.00000  Uiso   1.00
H954   H     0.68987   0.03798   0.80973   0.00000  Uiso   1.00
H955   H     0.77840   0.10592   0.77775   0.00000  Uiso   1.00
H956   H     0.88827   0.22742   0.72225   0.00000  Uiso   1.00
H957   H     0.86994   0.05984   0.72155   0.00000  Uiso   1.00
H958   H     0.88197   0.32502   0.75404   0.00000  Uiso   1.00
H959   H     0.88354   0.31907   0.83288   0.00000  Uiso   1.00
H960   H     0.86995   0.04787   0.88032   0.00000  Uiso   1.00
H961   H     0.85378   0.11519   0.84878   0.00000  Uiso   1.00
H962   H     0.73045   0.15067   0.95813   0.00000  Uiso   1.00
H963   H     0.79673   0.27349   0.77844   0.00000  Uiso   1.00
H964   H     0.78470   0.00831   0.74596   0.00000  Uiso   1.00
H965   H     0.78312   0.01426   0.66712   0.00000  Uiso   1.00
H966   H     0.79672   0.28547   0.61968   0.00000  Uiso   1.00
H967   H     0.81288   0.21814   0.65122   0.00000  Uiso   1.00
H968   H     0.78082   0.18228   0.60947   0.00000  Uiso   1.00
H969   H     0.88585   0.15105   0.89053   0.00000  Uiso   1.00
H970   H     0.97261   0.14078   0.60943   0.00000  Uiso   1.00
H971   H     0.69406   0.19255   0.89057   0.00000  Uiso   1.00
H972   H     0.99884   0.19918   0.97211   0.00000  Uiso   1.00
H973   H     0.66782   0.13415   0.52789   0.00000  Uiso   1.00
H974   H     0.97559   0.03845   0.69061   0.00000  Uiso   1.00
N975   N     0.78403   0.16668   0.74999   0.00000  Uiso   1.00
N976   N     0.88264   0.16666   0.75001   0.00000  Uiso   1.00
O977   O     0.70625   0.10655   0.75000   0.00000  Uiso   1.00
O978   O     0.96042   0.22678   0.75000   0.00000  Uiso   1.00
O979   O     0.96039   0.10654   0.75000   0.00000  Uiso   1.00
O980   O     0.70628   0.22679   0.75000   0.00000  Uiso   1.00
O981   O     0.68519   0.16668   0.81492   0.00000  Uiso   1.00
O982   O     0.98148   0.16666   0.68508   0.00000  Uiso   1.00
O983   O     0.93933   0.16667   0.81492   0.00000  Uiso   1.00
O984   O     0.72733   0.16667   0.68508   0.00000  Uiso   1.00
Br985  Br    0.19007   0.47296   0.60413   0.00000  Uiso   1.00
Br986  Br    0.14326   0.52704   0.89587   0.00000  Uiso   1.00
C987   C     0.33276   0.42087   0.75019   0.00000  Uiso   1.00
C988   C     0.01303   0.35473   0.78368   0.00000  Uiso   1.00
C989   C     0.00122   0.62379   0.74953   0.00000  Uiso   1.00
C990   C     0.33212   0.37621   0.75047   0.00000  Uiso   1.00
C991   C     0.18439   0.46571   0.76502   0.00000  Uiso   1.00
C992   C     0.14894   0.53429   0.73498   0.00000  Uiso   1.00
C993   C     0.13540   0.46622   0.76510   0.00000  Uiso   1.00
C994   C     0.19794   0.53378   0.73490   0.00000  Uiso   1.00
C995   C     0.30592   0.50118   0.83585   0.00000  Uiso   1.00
C996   C     0.02742   0.49882   0.66415   0.00000  Uiso   1.00
C997   C     0.29064   0.50598   0.88458   0.00000  Uiso   1.00
C998   C     0.00057   0.57913   0.74981   0.00000  Uiso   1.00
C999   C     0.04269   0.49402   0.61542   0.00000  Uiso   1.00
C1000  C     0.30651   0.52394   0.95413   0.00000  Uiso   1.00
C1001  C     0.02682   0.47606   0.54587   0.00000  Uiso   1.00
C1002  C     0.32291   0.51955   0.90786   0.00000  Uiso   1.00
C1003  C     0.01042   0.48045   0.59214   0.00000  Uiso   1.00
C1004  C     0.24208   0.49879   0.90778   0.00000  Uiso   1.00
C1005  C     0.09125   0.50121   0.59222   0.00000  Uiso   1.00
C1006  C     0.22387   0.50686   0.95323   0.00000  Uiso   1.00
C1007  C     0.10946   0.49313   0.54677   0.00000  Uiso   1.00
C1008  C     0.25755   0.51602   0.97712   0.00000  Uiso   1.00
C1009  C     0.19612   0.49922   0.54644   0.00000  Uiso   1.00
C1010  C     0.07578   0.48398   0.52288   0.00000  Uiso   1.00
C1011  C     0.17377   0.50202   0.97616   0.00000  Uiso   1.00
C1012  C     0.15956   0.49798   0.52384   0.00000  Uiso   1.00
C1013  C     0.19832   0.42660   0.78224   0.00000  Uiso   1.00
C1014  C     0.20427   0.39102   0.75597   0.00000  Uiso   1.00
C1015  C     0.21068   0.35234   0.77436   0.00000  Uiso   1.00
C1016  C     0.21146   0.34895   0.81886   0.00000  Uiso   1.00
C1017  C     0.20424   0.38401   0.84545   0.00000  Uiso   1.00
C1018  C     0.19659   0.42244   0.82739   0.00000  Uiso   1.00
C1019  C     0.13501   0.57340   0.71776   0.00000  Uiso   1.00
C1020  C     0.13721   0.50077   0.95356   0.00000  Uiso   1.00
C1021  C     0.12906   0.60898   0.74403   0.00000  Uiso   1.00
C1022  C     0.12266   0.64766   0.72563   0.00000  Uiso   1.00
C1023  C     0.12187   0.65105   0.68114   0.00000  Uiso   1.00
C1024  C     0.12910   0.61599   0.65455   0.00000  Uiso   1.00
C1025  C     0.13674   0.57756   0.67261   0.00000  Uiso   1.00
C1026  C     0.24302   0.51273   0.52359   0.00000  Uiso   1.00
C1027  C     0.09031   0.48727   0.97641   0.00000  Uiso   1.00
C1028  C     0.31944   0.35502   0.71658   0.00000  Uiso   1.00
C1029  C     0.01389   0.64498   0.78342   0.00000  Uiso   1.00
C1030  C     0.32030   0.64527   0.71632   0.00000  Uiso   1.00
Cu1031 Cu    0.04689   0.50001   0.75000   0.00000  Uiso   1.00
Cu1032 Cu    0.28645   0.49999   0.75000   0.00000  Uiso   1.00
H1033  H     0.26955   0.51599   0.54187   0.00000  Uiso   1.00
H1034  H     0.02441   0.62822   0.80939   0.00000  Uiso   1.00
H1035  H     0.31013   0.62869   0.69026   0.00000  Uiso   1.00
H1036  H     0.02321   0.37131   0.80973   0.00000  Uiso   1.00
H1037  H     0.11173   0.43925   0.77775   0.00000  Uiso   1.00
H1038  H     0.22160   0.56075   0.72225   0.00000  Uiso   1.00
H1039  H     0.20327   0.39318   0.72155   0.00000  Uiso   1.00
H1040  H     0.21530   0.65836   0.75404   0.00000  Uiso   1.00
H1041  H     0.21687   0.65240   0.83288   0.00000  Uiso   1.00
H1042  H     0.20328   0.38120   0.88032   0.00000  Uiso   1.00
H1043  H     0.18712   0.44852   0.84878   0.00000  Uiso   1.00
H1044  H     0.06378   0.48401   0.95813   0.00000  Uiso   1.00
H1045  H     0.13006   0.60683   0.77844   0.00000  Uiso   1.00
H1046  H     0.11803   0.34164   0.74596   0.00000  Uiso   1.00
H1047  H     0.11646   0.34760   0.66712   0.00000  Uiso   1.00
H1048  H     0.13005   0.61880   0.61968   0.00000  Uiso   1.00
H1049  H     0.14621   0.55148   0.65122   0.00000  Uiso   1.00
H1050  H     0.11415   0.51562   0.60947   0.00000  Uiso   1.00
H1051  H     0.21918   0.48438   0.89053   0.00000  Uiso   1.00
H1052  H     0.30594   0.47412   0.60943   0.00000  Uiso   1.00
H1053  H     0.02739   0.52588   0.89057   0.00000  Uiso   1.00
H1054  H     0.33218   0.53252   0.97211   0.00000  Uiso   1.00
H1055  H     0.00116   0.46748   0.52789   0.00000  Uiso   1.00
H1056  H     0.30892   0.37178   0.69061   0.00000  Uiso   1.00
N1057  N     0.11736   0.50001   0.74999   0.00000  Uiso   1.00
N1058  N     0.21597   0.49999   0.75001   0.00000  Uiso   1.00
O1059  O     0.03958   0.43989   0.75000   0.00000  Uiso   1.00
O1060  O     0.29375   0.56011   0.75000   0.00000  Uiso   1.00
O1061  O     0.29372   0.43988   0.75000   0.00000  Uiso   1.00
O1062  O     0.03961   0.56012   0.75000   0.00000  Uiso   1.00
O1063  O     0.01852   0.50001   0.81492   0.00000  Uiso   1.00
O1064  O     0.31481   0.49999   0.68508   0.00000  Uiso   1.00
O1065  O     0.27267   0.50000   0.81492   0.00000  Uiso   1.00
O1066  O     0.06067   0.50000   0.68508   0.00000  Uiso   1.00
Br1067 Br    0.52341   0.47296   0.60413   0.00000  Uiso   1.00
Br1068 Br    0.47659   0.52704   0.89587   0.00000  Uiso   1.00
C1069  C     0.66610   0.42087   0.75019   0.00000  Uiso   1.00
C1070  C     0.34636   0.35473   0.78368   0.00000  Uiso   1.00
C1071  C     0.33455   0.62379   0.74953   0.00000  Uiso   1.00
C1072  C     0.66545   0.37621   0.75047   0.00000  Uiso   1.00
C1073  C     0.51773   0.46571   0.76502   0.00000  Uiso   1.00
C1074  C     0.48227   0.53429   0.73498   0.00000  Uiso   1.00
C1075  C     0.46873   0.46622   0.76510   0.00000  Uiso   1.00
C1076  C     0.53127   0.53378   0.73490   0.00000  Uiso   1.00
C1077  C     0.63925   0.50118   0.83585   0.00000  Uiso   1.00
C1078  C     0.36075   0.49882   0.66415   0.00000  Uiso   1.00
C1079  C     0.62398   0.50598   0.88458   0.00000  Uiso   1.00
C1080  C     0.33390   0.57913   0.74981   0.00000  Uiso   1.00
C1081  C     0.37602   0.49402   0.61542   0.00000  Uiso   1.00
C1082  C     0.63985   0.52394   0.95413   0.00000  Uiso   1.00
C1083  C     0.36015   0.47606   0.54587   0.00000  Uiso   1.00
C1084  C     0.65625   0.51955   0.90786   0.00000  Uiso   1.00
C1085  C     0.34375   0.48045   0.59214   0.00000  Uiso   1.00
C1086  C     0.57541   0.49879   0.90778   0.00000  Uiso   1.00
C1087  C     0.42459   0.50121   0.59222   0.00000  Uiso   1.00
C1088  C     0.55721   0.50686   0.95323   0.00000  Uiso   1.00
C1089  C     0.44279   0.49313   0.54677   0.00000  Uiso   1.00
C1090  C     0.59089   0.51602   0.97712   0.00000  Uiso   1.00
C1091  C     0.52945   0.49922   0.54644   0.00000  Uiso   1.00
C1092  C     0.40911   0.48398   0.52288   0.00000  Uiso   1.00
C1093  C     0.50710   0.50202   0.97616   0.00000  Uiso   1.00
C1094  C     0.49290   0.49798   0.52384   0.00000  Uiso   1.00
C1095  C     0.53166   0.42660   0.78224   0.00000  Uiso   1.00
C1096  C     0.53761   0.39102   0.75597   0.00000  Uiso   1.00
C1097  C     0.54401   0.35234   0.77436   0.00000  Uiso   1.00
C1098  C     0.54479   0.34895   0.81886   0.00000  Uiso   1.00
C1099  C     0.53757   0.38401   0.84545   0.00000  Uiso   1.00
C1100  C     0.52992   0.42244   0.82739   0.00000  Uiso   1.00
C1101  C     0.46834   0.57340   0.71776   0.00000  Uiso   1.00
C1102  C     0.47054   0.50077   0.95356   0.00000  Uiso   1.00
C1103  C     0.46240   0.60898   0.74403   0.00000  Uiso   1.00
C1104  C     0.45599   0.64766   0.72563   0.00000  Uiso   1.00
C1105  C     0.45521   0.65105   0.68114   0.00000  Uiso   1.00
C1106  C     0.46243   0.61599   0.65455   0.00000  Uiso   1.00
C1107  C     0.47008   0.57756   0.67261   0.00000  Uiso   1.00
C1108  C     0.57635   0.51273   0.52359   0.00000  Uiso   1.00
C1109  C     0.42365   0.48727   0.97641   0.00000  Uiso   1.00
C1110  C     0.65277   0.35502   0.71658   0.00000  Uiso   1.00
C1111  C     0.34723   0.64498   0.78342   0.00000  Uiso   1.00
C1112  C     0.65364   0.64527   0.71632   0.00000  Uiso   1.00
Cu1113 Cu    0.38022   0.50001   0.75000   0.00000  Uiso   1.00
Cu1114 Cu    0.61978   0.49999   0.75000   0.00000  Uiso   1.00
H1115  H     0.60289   0.51599   0.54187   0.00000  Uiso   1.00
H1116  H     0.35774   0.62822   0.80939   0.00000  Uiso   1.00
H1117  H     0.64346   0.62869   0.69026   0.00000  Uiso   1.00
H1118  H     0.35654   0.37131   0.80973   0.00000  Uiso   1.00
H1119  H     0.44506   0.43925   0.77775   0.00000  Uiso   1.00
H1120  H     0.55494   0.56075   0.72225   0.00000  Uiso   1.00
H1121  H     0.53660   0.39318   0.72155   0.00000  Uiso   1.00
H1122  H     0.54864   0.65836   0.75404   0.00000  Uiso   1.00
H1123  H     0.55021   0.65240   0.83288   0.00000  Uiso   1.00
H1124  H     0.53661   0.38120   0.88032   0.00000  Uiso   1.00
H1125  H     0.52045   0.44852   0.84878   0.00000  Uiso   1.00
H1126  H     0.39711   0.48401   0.95813   0.00000  Uiso   1.00
H1127  H     0.46340   0.60683   0.77844   0.00000  Uiso   1.00
H1128  H     0.45136   0.34164   0.74596   0.00000  Uiso   1.00
H1129  H     0.44979   0.34760   0.66712   0.00000  Uiso   1.00
H1130  H     0.46338   0.61880   0.61968   0.00000  Uiso   1.00
H1131  H     0.47955   0.55148   0.65122   0.00000  Uiso   1.00
H1132  H     0.44749   0.51562   0.60947   0.00000  Uiso   1.00
H1133  H     0.55252   0.48438   0.89053   0.00000  Uiso   1.00
H1134  H     0.63927   0.47412   0.60943   0.00000  Uiso   1.00
H1135  H     0.36073   0.52588   0.89057   0.00000  Uiso   1.00
H1136  H     0.66551   0.53252   0.97211   0.00000  Uiso   1.00
H1137  H     0.33449   0.46748   0.52789   0.00000  Uiso   1.00
H1138  H     0.64226   0.37178   0.69061   0.00000  Uiso   1.00
N1139  N     0.45069   0.50001   0.74999   0.00000  Uiso   1.00
N1140  N     0.54931   0.49999   0.75001   0.00000  Uiso   1.00
O1141  O     0.37291   0.43989   0.75000   0.00000  Uiso   1.00
O1142  O     0.62709   0.56011   0.75000   0.00000  Uiso   1.00
O1143  O     0.62706   0.43988   0.75000   0.00000  Uiso   1.00
O1144  O     0.37294   0.56012   0.75000   0.00000  Uiso   1.00
O1145  O     0.35186   0.50001   0.81492   0.00000  Uiso   1.00
O1146  O     0.64814   0.49999   0.68508   0.00000  Uiso   1.00
O1147  O     0.60600   0.50000   0.81492   0.00000  Uiso   1.00
O1148  O     0.39400   0.50000   0.68508   0.00000  Uiso   1.00
Br1149 Br    0.85674   0.47296   0.60413   0.00000  Uiso   1.00
Br1150 Br    0.80993   0.52704   0.89587   0.00000  Uiso   1.00
C1151  C     0.99943   0.42087   0.75019   0.00000  Uiso   1.00
C1152  C     0.67970   0.35473   0.78368   0.00000  Uiso   1.00
C1153  C     0.66788   0.62379   0.74953   0.00000  Uiso   1.00
C1154  C     0.99878   0.37621   0.75047   0.00000  Uiso   1.00
C1155  C     0.85106   0.46571   0.76502   0.00000  Uiso   1.00
C1156  C     0.81561   0.53429   0.73498   0.00000  Uiso   1.00
C1157  C     0.80206   0.46622   0.76510   0.00000  Uiso   1.00
C1158  C     0.86460   0.53378   0.73490   0.00000  Uiso   1.00
C1159  C     0.97259   0.50118   0.83585   0.00000  Uiso   1.00
C1160  C     0.69408   0.49882   0.66415   0.00000  Uiso   1.00
C1161  C     0.95731   0.50598   0.88458   0.00000  Uiso   1.00
C1162  C     0.66724   0.57913   0.74981   0.00000  Uiso   1.00
C1163  C     0.70936   0.49402   0.61542   0.00000  Uiso   1.00
C1164  C     0.97318   0.52394   0.95413   0.00000  Uiso   1.00
C1165  C     0.69349   0.47606   0.54587   0.00000  Uiso   1.00
C1166  C     0.98958   0.51955   0.90786   0.00000  Uiso   1.00
C1167  C     0.67709   0.48045   0.59214   0.00000  Uiso   1.00
C1168  C     0.90875   0.49879   0.90778   0.00000  Uiso   1.00
C1169  C     0.75792   0.50121   0.59222   0.00000  Uiso   1.00
C1170  C     0.89054   0.50686   0.95323   0.00000  Uiso   1.00
C1171  C     0.77613   0.49313   0.54677   0.00000  Uiso   1.00
C1172  C     0.92422   0.51602   0.97712   0.00000  Uiso   1.00
C1173  C     0.86279   0.49922   0.54644   0.00000  Uiso   1.00
C1174  C     0.74245   0.48398   0.52288   0.00000  Uiso   1.00
C1175  C     0.84044   0.50202   0.97616   0.00000  Uiso   1.00
C1176  C     0.82623   0.49798   0.52384   0.00000  Uiso   1.00
C1177  C     0.86499   0.42660   0.78224   0.00000  Uiso   1.00
C1178  C     0.87094   0.39102   0.75597   0.00000  Uiso   1.00
C1179  C     0.87734   0.35234   0.77436   0.00000  Uiso   1.00
C1180  C     0.87812   0.34895   0.81886   0.00000  Uiso   1.00
C1181  C     0.87090   0.38401   0.84545   0.00000  Uiso   1.00
C1182  C     0.86325   0.42244   0.82739   0.00000  Uiso   1.00
C1183  C     0.80168   0.57340   0.71776   0.00000  Uiso   1.00
C1184  C     0.80388   0.50077   0.95356   0.00000  Uiso   1.00
C1185  C     0.79573   0.60898   0.74403   0.00000  Uiso   1.00
C1186  C     0.78932   0.64766   0.72563   0.00000  Uiso   1.00
C1187  C     0.78854   0.65105   0.68114   0.00000  Uiso   1.00
C1188  C     0.79576   0.61599   0.65455   0.00000  Uiso   1.00
C1189  C     0.80341   0.57756   0.67261   0.00000  Uiso   1.00
C1190  C     0.90968   0.51273   0.52359   0.00000  Uiso   1.00
C1191  C     0.75698   0.48727   0.97641   0.00000  Uiso   1.00
C1192  C     0.98611   0.35502   0.71658   0.00000  Uiso   1.00
C1193  C     0.68056   0.64498   0.78342   0.00000  Uiso   1.00
C1194  C     0.98697   0.64527   0.71632   0.00000  Uiso   1.00
Cu1195 Cu    0.71355   0.50001   0.75000   0.00000  Uiso   1.00
Cu1196 Cu    0.95311   0.49999   0.75000   0.00000  Uiso   1.00
H1197  H     0.93622   0.51599   0.54187   0.00000  Uiso   1.00
H1198  H     0.69108   0.62822   0.80939   0.00000  Uiso   1.00
H1199  H     0.97679   0.62869   0.69026   0.00000  Uiso   1.00
H1200  H     0.68987   0.37131   0.80973   0.00000  Uiso   1.00
H1201  H     0.77840   0.43925   0.77775   0.00000  Uiso   1.00
H1202  H     0.88827   0.56075   0.72225   0.00000  Uiso   1.00
H1203  H     0.86994   0.39318   0.72155   0.00000  Uiso   1.00
H1204  H     0.88197   0.65836   0.75404   0.00000  Uiso   1.00
H1205  H     0.88354   0.65240   0.83288   0.00000  Uiso   1.00
H1206  H     0.86995   0.38120   0.88032   0.00000  Uiso   1.00
H1207  H     0.85378   0.44852   0.84878   0.00000  Uiso   1.00
H1208  H     0.73045   0.48401   0.95813   0.00000  Uiso   1.00
H1209  H     0.79673   0.60683   0.77844   0.00000  Uiso   1.00
H1210  H     0.78470   0.34164   0.74596   0.00000  Uiso   1.00
H1211  H     0.78312   0.34760   0.66712   0.00000  Uiso   1.00
H1212  H     0.79672   0.61880   0.61968   0.00000  Uiso   1.00
H1213  H     0.81288   0.55148   0.65122   0.00000  Uiso   1.00
H1214  H     0.78082   0.51562   0.60947   0.00000  Uiso   1.00
H1215  H     0.88585   0.48438   0.89053   0.00000  Uiso   1.00
H1216  H     0.97261   0.47412   0.60943   0.00000  Uiso   1.00
H1217  H     0.69406   0.52588   0.89057   0.00000  Uiso   1.00
H1218  H     0.99884   0.53252   0.97211   0.00000  Uiso   1.00
H1219  H     0.66782   0.46748   0.52789   0.00000  Uiso   1.00
H1220  H     0.97559   0.37178   0.69061   0.00000  Uiso   1.00
N1221  N     0.78403   0.50001   0.74999   0.00000  Uiso   1.00
N1222  N     0.88264   0.49999   0.75001   0.00000  Uiso   1.00
O1223  O     0.70625   0.43989   0.75000   0.00000  Uiso   1.00
O1224  O     0.96042   0.56011   0.75000   0.00000  Uiso   1.00
O1225  O     0.96039   0.43988   0.75000   0.00000  Uiso   1.00
O1226  O     0.70628   0.56012   0.75000   0.00000  Uiso   1.00
O1227  O     0.68519   0.50001   0.81492   0.00000  Uiso   1.00
O1228  O     0.98148   0.49999   0.68508   0.00000  Uiso   1.00
O1229  O     0.93933   0.50000   0.81492   0.00000  Uiso   1.00
O1230  O     0.72733   0.50000   0.68508   0.00000  Uiso   1.00
Br1231 Br    0.19007   0.80629   0.60413   0.00000  Uiso   1.00
Br1232 Br    0.14326   0.86037   0.89587   0.00000  Uiso   1.00
C1233  C     0.33276   0.75420   0.75019   0.00000  Uiso   1.00
C1234  C     0.01303   0.68807   0.78368   0.00000  Uiso   1.00
C1235  C     0.00122   0.95712   0.74953   0.00000  Uiso   1.00
C1236  C     0.33212   0.70955   0.75047   0.00000  Uiso   1.00
C1237  C     0.18439   0.79904   0.76502   0.00000  Uiso   1.00
C1238  C     0.14894   0.86763   0.73498   0.00000  Uiso   1.00
C1239  C     0.13540   0.79955   0.76510   0.00000  Uiso   1.00
C1240  C     0.19794   0.86711   0.73490   0.00000  Uiso   1.00
C1241  C     0.30592   0.83452   0.83585   0.00000  Uiso   1.00
C1242  C     0.02742   0.83215   0.66415   0.00000  Uiso   1.00
C1243  C     0.29064   0.83932   0.88458   0.00000  Uiso   1.00
C1244  C     0.00057   0.91247   0.74981   0.00000  Uiso   1.00
C1245  C     0.04269   0.82735   0.61542   0.00000  Uiso   1.00
C1246  C     0.30651   0.85728   0.95413   0.00000  Uiso   1.00
C1247  C     0.02682   0.80939   0.54587   0.00000  Uiso   1.00
C1248  C     0.32291   0.85288   0.90786   0.00000  Uiso   1.00
C1249  C     0.01042   0.81378   0.59214   0.00000  Uiso   1.00
C1250  C     0.24208   0.83212   0.90778   0.00000  Uiso   1.00
C1251  C     0.09125   0.83454   0.59222   0.00000  Uiso   1.00
C1252  C     0.22387   0.84020   0.95323   0.00000  Uiso   1.00
C1253  C     0.10946   0.82647   0.54677   0.00000  Uiso   1.00
C1254  C     0.25755   0.84935   0.97712   0.00000  Uiso   1.00
C1255  C     0.19612   0.83256   0.54644   0.00000  Uiso   1.00
C1256  C     0.07578   0.81731   0.52288   0.00000  Uiso   1.00
C1257  C     0.17377   0.83535   0.97616   0.00000  Uiso   1.00
C1258  C     0.15956   0.83131   0.52384   0.00000  Uiso   1.00
C1259  C     0.19832   0.75993   0.78224   0.00000  Uiso   1.00
C1260  C     0.20427   0.72435   0.75597   0.00000  Uiso   1.00
C1261  C     0.21068   0.68568   0.77436   0.00000  Uiso   1.00
C1262  C     0.21146   0.68229   0.81886   0.00000  Uiso   1.00
C1263  C     0.20424   0.71734   0.84545   0.00000  Uiso   1.00
C1264  C     0.19659   0.75577   0.82739   0.00000  Uiso   1.00
C1265  C     0.13501   0.90673   0.71776   0.00000  Uiso   1.00
C1266  C     0.13721   0.83411   0.95356   0.00000  Uiso   1.00
C1267  C     0.12906   0.94231   0.74403   0.00000  Uiso   1.00
C1268  C     0.12266   0.98099   0.72563   0.00000  Uiso   1.00
C1269  C     0.12187   0.98438   0.68114   0.00000  Uiso   1.00
C1270  C     0.12910   0.94932   0.65455   0.00000  Uiso   1.00
C1271  C     0.13674   0.91090   0.67261   0.00000  Uiso   1.00
C1272  C     0.24302   0.84606   0.52359   0.00000  Uiso   1.00
C1273  C     0.09031   0.82060   0.97641   0.00000  Uiso   1.00
C1274  C     0.31944   0.68835   0.71658   0.00000  Uiso   1.00
C1275  C     0.01389   0.97832   0.78342   0.00000  Uiso   1.00
C1276  C     0.32030   0.97860   0.71632   0.00000  Uiso   1.00
Cu1277 Cu    0.04689   0.83334   0.75000   0.00000  Uiso   1.00
Cu1278 Cu    0.28645   0.83333   0.75000   0.00000  Uiso   1.00
H1279  H     0.26955   0.84932   0.54187   0.00000  Uiso   1.00
H1280  H     0.02441   0.96155   0.80939   0.00000  Uiso   1.00
H1281  H     0.31013   0.96202   0.69026   0.00000  Uiso   1.00
H1282  H     0.02321   0.70464   0.80973   0.00000  Uiso   1.00
H1283  H     0.11173   0.77258   0.77775   0.00000  Uiso   1.00
H1284  H     0.22160   0.89408   0.72225   0.00000  Uiso   1.00
H1285  H     0.20327   0.72651   0.72155   0.00000  Uiso   1.00
H1286  H     0.21530   0.99169   0.75404   0.00000  Uiso   1.00
H1287  H     0.21687   0.98574   0.83288   0.00000  Uiso   1.00
H1288  H     0.20328   0.71453   0.88032   0.00000  Uiso   1.00
H1289  H     0.18712   0.78186   0.84878   0.00000  Uiso   1.00
H1290  H     0.06378   0.81734   0.95813   0.00000  Uiso   1.00
H1291  H     0.13006   0.94016   0.77844   0.00000  Uiso   1.00
H1292  H     0.11803   0.67498   0.74596   0.00000  Uiso   1.00
H1293  H     0.11646   0.68093   0.66712   0.00000  Uiso   1.00
H1294  H     0.13005   0.95213   0.61968   0.00000  Uiso   1.00
H1295  H     0.14621   0.88481   0.65122   0.00000  Uiso   1.00
H1296  H     0.11415   0.84895   0.60947   0.00000  Uiso   1.00
H1297  H     0.21918   0.81771   0.89053   0.00000  Uiso   1.00
H1298  H     0.30594   0.80745   0.60943   0.00000  Uiso   1.00
H1299  H     0.02739   0.85922   0.89057   0.00000  Uiso   1.00
H1300  H     0.33218   0.86585   0.97211   0.00000  Uiso   1.00
H1301  H     0.00116   0.80081   0.52789   0.00000  Uiso   1.00
H1302  H     0.30892   0.70512   0.69061   0.00000  Uiso   1.00
N1303  N     0.11736   0.83334   0.74999   0.00000  Uiso   1.00
N1304  N     0.21597   0.83332   0.75001   0.00000  Uiso   1.00
O1305  O     0.03958   0.77322   0.75000   0.00000  Uiso   1.00
O1306  O     0.29375   0.89345   0.75000   0.00000  Uiso   1.00
O1307  O     0.29372   0.77321   0.75000   0.00000  Uiso   1.00
O1308  O     0.03961   0.89346   0.75000   0.00000  Uiso   1.00
O1309  O     0.01852   0.83334   0.81492   0.00000  Uiso   1.00
O1310  O     0.31481   0.83332   0.68508   0.00000  Uiso   1.00
O1311  O     0.27267   0.83333   0.81492   0.00000  Uiso   1.00
O1312  O     0.06067   0.83333   0.68508   0.00000  Uiso   1.00
Br1313 Br    0.52341   0.80629   0.60413   0.00000  Uiso   1.00
Br1314 Br    0.47659   0.86037   0.89587   0.00000  Uiso   1.00
C1315  C     0.66610   0.75420   0.75019   0.00000  Uiso   1.00
C1316  C     0.34636   0.68807   0.78368   0.00000  Uiso   1.00
C1317  C     0.33455   0.95712   0.74953   0.00000  Uiso   1.00
C1318  C     0.66545   0.70955   0.75047   0.00000  Uiso   1.00
C1319  C     0.51773   0.79904   0.76502   0.00000  Uiso   1.00
C1320  C     0.48227   0.86763   0.73498   0.00000  Uiso   1.00
C1321  C     0.46873   0.79955   0.76510   0.00000  Uiso   1.00
C1322  C     0.53127   0.86711   0.73490   0.00000  Uiso   1.00
C1323  C     0.63925   0.83452   0.83585   0.00000  Uiso   1.00
C1324  C     0.36075   0.83215   0.66415   0.00000  Uiso   1.00
C1325  C     0.62398   0.83932   0.88458   0.00000  Uiso   1.00
C1326  C     0.33390   0.91247   0.74981   0.00000  Uiso   1.00
C1327  C     0.37602   0.82735   0.61542   0.00000  Uiso   1.00
C1328  C     0.63985   0.85728   0.95413   0.00000  Uiso   1.00
C1329  C     0.36015   0.80939   0.54587   0.00000  Uiso   1.00
C1330  C     0.65625   0.85288   0.90786   0.00000  Uiso   1.00
C1331  C     0.34375   0.81378   0.59214   0.00000  Uiso   1.00
C1332  C     0.57541   0.83212   0.90778   0.00000  Uiso   1.00
C1333  C     0.42459   0.83454   0.59222   0.00000  Uiso   1.00
C1334  C     0.55721   0.84020   0.95323   0.00000  Uiso   1.00
C1335  C     0.44279   0.82647   0.54677   0.00000  Uiso   1.00
C1336  C     0.59089   0.84935   0.97712   0.00000  Uiso   1.00
C1337  C     0.52945   0.83256   0.54644   0.00000  Uiso   1.00
C1338  C     0.40911   0.81731   0.52288   0.00000  Uiso   1.00
C1339  C     0.50710   0.83535   0.97616   0.00000  Uiso   1.00
C1340  C     0.49290   0.83131   0.52384   0.00000  Uiso   1.00
C1341  C     0.53166   0.75993   0.78224   0.00000  Uiso   1.00
C1342  C     0.53761   0.72435   0.75597   0.00000  Uiso   1.00
C1343  C     0.54401   0.68568   0.77436   0.00000  Uiso   1.00
C1344  C     0.54479   0.68229   0.81886   0.00000  Uiso   1.00
C1345  C     0.53757   0.71734   0.84545   0.00000  Uiso   1.00
C1346  C     0.52992   0.75577   0.82739   0.00000  Uiso   1.00
C1347  C     0.46834   0.90673   0.71776   0.00000  Uiso   1.00
C1348  C     0.47054   0.83411   0.95356   0.00000  Uiso   1.00
C1349  C     0.46240   0.94231   0.74403   0.00000  Uiso   1.00
C1350  C     0.45599   0.98099   0.72563   0.00000  Uiso   1.00
C1351  C     0.45521   0.98438   0.68114   0.00000  Uiso   1.00
C1352  C     0.46243   0.94932   0.65455   0.00000  Uiso   1.00
C1353  C     0.47008   0.91090   0.67261   0.00000  Uiso   1.00
C1354  C     0.57635   0.84606   0.52359   0.00000  Uiso   1.00
C1355  C     0.42365   0.82060   0.97641   0.00000  Uiso   1.00
C1356  C     0.65277   0.68835   0.71658   0.00000  Uiso   1.00
C1357  C     0.34723   0.97832   0.78342   0.00000  Uiso   1.00
C1358  C     0.65364   0.97860   0.71632   0.00000  Uiso   1.00
Cu1359 Cu    0.38022   0.83334   0.75000   0.00000  Uiso   1.00
Cu1360 Cu    0.61978   0.83333   0.75000   0.00000  Uiso   1.00
H1361  H     0.60289   0.84932   0.54187   0.00000  Uiso   1.00
H1362  H     0.35774   0.96155   0.80939   0.00000  Uiso   1.00
H1363  H     0.64346   0.96202   0.69026   0.00000  Uiso   1.00
H1364  H     0.35654   0.70464   0.80973   0.00000  Uiso   1.00
H1365  H     0.44506   0.77258   0.77775   0.00000  Uiso   1.00
H1366  H     0.55494   0.89408   0.72225   0.00000  Uiso   1.00
H1367  H     0.53660   0.72651   0.72155   0.00000  Uiso   1.00
H1368  H     0.54864   0.99169   0.75404   0.00000  Uiso   1.00
H1369  H     0.55021   0.98574   0.83288   0.00000  Uiso   1.00
H1370  H     0.53661   0.71453   0.88032   0.00000  Uiso   1.00
H1371  H     0.52045   0.78186   0.84878   0.00000  Uiso   1.00
H1372  H     0.39711   0.81734   0.95813   0.00000  Uiso   1.00
H1373  H     0.46340   0.94016   0.77844   0.00000  Uiso   1.00
H1374  H     0.45136   0.67498   0.74596   0.00000  Uiso   1.00
H1375  H     0.44979   0.68093   0.66712   0.00000  Uiso   1.00
H1376  H     0.46338   0.95213   0.61968   0.00000  Uiso   1.00
H1377  H     0.47955   0.88481   0.65122   0.00000  Uiso   1.00
H1378  H     0.44749   0.84895   0.60947   0.00000  Uiso   1.00
H1379  H     0.55252   0.81771   0.89053   0.00000  Uiso   1.00
H1380  H     0.63927   0.80745   0.60943   0.00000  Uiso   1.00
H1381  H     0.36073   0.85922   0.89057   0.00000  Uiso   1.00
H1382  H     0.66551   0.86585   0.97211   0.00000  Uiso   1.00
H1383  H     0.33449   0.80081   0.52789   0.00000  Uiso   1.00
H1384  H     0.64226   0.70512   0.69061   0.00000  Uiso   1.00
N1385  N     0.45069   0.83334   0.74999   0.00000  Uiso   1.00
N1386  N     0.54931   0.83332   0.75001   0.00000  Uiso   1.00
O1387  O     0.37291   0.77322   0.75000   0.00000  Uiso   1.00
O1388  O     0.62709   0.89345   0.75000   0.00000  Uiso   1.00
O1389  O     0.62706   0.77321   0.75000   0.00000  Uiso   1.00
O1390  O     0.37294   0.89346   0.75000   0.00000  Uiso   1.00
O1391  O     0.35186   0.83334   0.81492   0.00000  Uiso   1.00
O1392  O     0.64814   0.83332   0.68508   0.00000  Uiso   1.00
O1393  O     0.60600   0.83333   0.81492   0.00000  Uiso   1.00
O1394  O     0.39400   0.83333   0.68508   0.00000  Uiso   1.00
Br1395 Br    0.85674   0.80629   0.60413   0.00000  Uiso   1.00
Br1396 Br    0.80993   0.86037   0.89587   0.00000  Uiso   1.00
C1397  C     0.99943   0.75420   0.75019   0.00000  Uiso   1.00
C1398  C     0.67970   0.68807   0.78368   0.00000  Uiso   1.00
C1399  C     0.66788   0.95712   0.74953   0.00000  Uiso   1.00
C1400  C     0.99878   0.70955   0.75047   0.00000  Uiso   1.00
C1401  C     0.85106   0.79904   0.76502   0.00000  Uiso   1.00
C1402  C     0.81561   0.86763   0.73498   0.00000  Uiso   1.00
C1403  C     0.80206   0.79955   0.76510   0.00000  Uiso   1.00
C1404  C     0.86460   0.86711   0.73490   0.00000  Uiso   1.00
C1405  C     0.97259   0.83452   0.83585   0.00000  Uiso   1.00
C1406  C     0.69408   0.83215   0.66415   0.00000  Uiso   1.00
C1407  C     0.95731   0.83932   0.88458   0.00000  Uiso   1.00
C1408  C     0.66724   0.91247   0.74981   0.00000  Uiso   1.00
C1409  C     0.70936   0.82735   0.61542   0.00000  Uiso   1.00
C1410  C     0.97318   0.85728   0.95413   0.00000  Uiso   1.00
C1411  C     0.69349   0.80939   0.54587   0.00000  Uiso   1.00
C1412  C     0.98958   0.85288   0.90786   0.00000  Uiso   1.00
C1413  C     0.67709   0.81378   0.59214   0.00000  Uiso   1.00
C1414  C     0.90875   0.83212   0.90778   0.00000  Uiso   1.00
C1415  C     0.75792   0.83454   0.59222   0.00000  Uiso   1.00
C1416  C     0.89054   0.84020   0.95323   0.00000  Uiso   1.00
C1417  C     0.77613   0.82647   0.54677   0.00000  Uiso   1.00
C1418  C     0.92422   0.84935   0.97712   0.00000  Uiso   1.00
C1419  C     0.86279   0.83256   0.54644   0.00000  Uiso   1.00
C1420  C     0.74245   0.81731   0.52288   0.00000  Uiso   1.00
C1421  C     0.84044   0.83535   0.97616   0.00000  Uiso   1.00
C1422  C     0.82623   0.83131   0.52384   0.00000  Uiso   1.00
C1423  C     0.86499   0.75993   0.78224   0.00000  Uiso   1.00
C1424  C     0.87094   0.72435   0.75597   0.00000  Uiso   1.00
C1425  C     0.87734   0.68568   0.77436   0.00000  Uiso   1.00
C1426  C     0.87812   0.68229   0.81886   0.00000  Uiso   1.00
C1427  C     0.87090   0.71734   0.84545   0.00000  Uiso   1.00
C1428  C     0.86325   0.75577   0.82739   0.00000  Uiso   1.00
C1429  C     0.80168   0.90673   0.71776   0.00000  Uiso   1.00
C1430  C     0.80388   0.83411   0.95356   0.00000  Uiso   1.00
C1431  C     0.79573   0.94231   0.74403   0.00000  Uiso   1.00
C1432  C     0.78932   0.98099   0.72563   0.00000  Uiso   1.00
C1433  C     0.78854   0.98438   0.68114   0.00000  Uiso   1.00
C1434  C     0.79576   0.94932   0.65455   0.00000  Uiso   1.00
C1435  C     0.80341   0.91090   0.67261   0.00000  Uiso   1.00
C1436  C     0.90968   0.84606   0.52359   0.00000  Uiso   1.00
C1437  C     0.75698   0.82060   0.97641   0.00000  Uiso   1.00
C1438  C     0.98611   0.68835   0.71658   0.00000  Uiso   1.00
C1439  C     0.68056   0.97832   0.78342   0.00000  Uiso   1.00
C1440  C     0.98697   0.97860   0.71632   0.00000  Uiso   1.00
Cu1441 Cu    0.71355   0.83334   0.75000   0.00000  Uiso   1.00
Cu1442 Cu    0.95311   0.83333   0.75000   0.00000  Uiso   1.00
H1443  H     0.93622   0.84932   0.54187   0.00000  Uiso   1.00
H1444  H     0.69108   0.96155   0.80939   0.00000  Uiso   1.00
H1445  H     0.97679   0.96202   0.69026   0.00000  Uiso   1.00
H1446  H     0.68987   0.70464   0.80973   0.00000  Uiso   1.00
H1447  H     0.77840   0.77258   0.77775   0.00000  Uiso   1.00
H1448  H     0.88827   0.89408   0.72225   0.00000  Uiso   1.00
H1449  H     0.86994   0.72651   0.72155   0.00000  Uiso   1.00
H1450  H     0.88197   0.99169   0.75404   0.00000  Uiso   1.00
H1451  H     0.88354   0.98574   0.83288   0.00000  Uiso   1.00
H1452  H     0.86995   0.71453   0.88032   0.00000  Uiso   1.00
H1453  H     0.85378   0.78186   0.84878   0.00000  Uiso   1.00
H1454  H     0.73045   0.81734   0.95813   0.00000  Uiso   1.00
H1455  H     0.79673   0.94016   0.77844   0.00000  Uiso   1.00
H1456  H     0.78470   0.67498   0.74596   0.00000  Uiso   1.00
H1457  H     0.78312   0.68093   0.66712   0.00000  Uiso   1.00
H1458  H     0.79672   0.95213   0.61968   0.00000  Uiso   1.00
H1459  H     0.81288   0.88481   0.65122   0.00000  Uiso   1.00
H1460  H     0.78082   0.84895   0.60947   0.00000  Uiso   1.00
H1461  H     0.88585   0.81771   0.89053   0.00000  Uiso   1.00
H1462  H     0.97261   0.80745   0.60943   0.00000  Uiso   1.00
H1463  H     0.69406   0.85922   0.89057   0.00000  Uiso   1.00
H1464  H     0.99884   0.86585   0.97211   0.00000  Uiso   1.00
H1465  H     0.66782   0.80081   0.52789   0.00000  Uiso   1.00
H1466  H     0.97559   0.70512   0.69061   0.00000  Uiso   1.00
N1467  N     0.78403   0.83334   0.74999   0.00000  Uiso   1.00
N1468  N     0.88264   0.83332   0.75001   0.00000  Uiso   1.00
O1469  O     0.70625   0.77322   0.75000   0.00000  Uiso   1.00
O1470  O     0.96042   0.89345   0.75000   0.00000  Uiso   1.00
O1471  O     0.96039   0.77321   0.75000   0.00000  Uiso   1.00
O1472  O     0.70628   0.89346   0.75000   0.00000  Uiso   1.00
O1473  O     0.68519   0.83334   0.81492   0.00000  Uiso   1.00
O1474  O     0.98148   0.83332   0.68508   0.00000  Uiso   1.00
O1475  O     0.93933   0.83333   0.81492   0.00000  Uiso   1.00
O1476  O     0.72733   0.83333   0.68508   0.00000  Uiso   1.00
loop_
_geom_bond_atom_site_label_1
_geom_bond_atom_site_label_2
_geom_bond_distance
_geom_bond_site_symmetry_2
_ccdc_geom_bond_type
Br1    C25     1.933   .     S
Br2    C36     1.933   .     S
C3     C6      1.435   .     S
C3     O77     1.302   .     A
C3     O157    1.294   .     S
C4     H52     1.084   .     S
C4     C170    1.399   1_455 S
C4     C537    1.386   1_545 S
C5     C45     1.396   .     A
C5     C14     1.435   .     S
C5     C210    1.399   1_455 S
C6     C44     1.396   .     A
C6     C86     1.399   .     S
C7     C29     1.470   .     S
C7     N74     1.393   .     A
C7     C9      1.417   .     A
C8     C35     1.470   .     S
C8     N73     1.393   .     A
C8     C10     1.417   .     A
C9     N73     1.353   .     A
C9     H53     1.082   .     S
C10    H54     1.082   .     S
C10    N74     1.353   .     A
C11    O81     1.308   .     A
C11    C13     1.469   .     S
C11    O161    1.304   .     S
C12    C15     1.469   .     S
C12    O82     1.308   .     A
C12    O244    1.304   1_455 S
C13    C18     1.401   .     A
C13    C20     1.393   .     A
C14    O78     1.302   .     A
C14    O240    1.294   1_455 S
C15    C19     1.401   .     A
C15    C21     1.393   .     A
C16    C24     1.405   .     A
C16    H70     1.083   .     S
C16    C18     1.396   .     A
C17    C26     1.405   .     A
C17    H71     1.083   .     S
C17    C19     1.396   .     A
C18    H151    1.083   .     S
C19    H232    1.083   1_455 S
C20    H67     1.066   .     S
C20    C22     1.396   .     A
C21    H66     1.066   .     S
C21    C23     1.396   .     A
C22    C27     1.423   .     A
C22    C24     1.413   .     A
C23    C26     1.413   .     A
C23    C28     1.423   .     A
C24    C780    1.390   .     S
C25    C28     1.429   .     A
C25    C42     1.391   .     A
C26    C781    1.390   1_554 S
C27    C36     1.429   .     A
C27    C766    1.427   .     S
C28    C765    1.427   1_554 S
C29    C34     1.399   .     A
C29    C30     1.406   .     A
C30    C31     1.399   .     A
C30    H55     1.083   .     S
C31    C32     1.397   .     A
C31    H548    1.082   1_545 S
C32    C33     1.397   .     A
C32    H549    1.082   1_545 S
C33    H58     1.082   .     S
C33    C34     1.398   .     A
C34    H59     1.074   .     S
C35    C37     1.406   .     A
C35    C41     1.399   .     A
C36    C43     1.391   .     A
C37    C38     1.399   .     A
C37    H61     1.083   .     S
C38    C39     1.397   .     A
C38    H308    1.082   .     S
C39    C40     1.397   .     A
C39    H309    1.082   .     S
C40    C41     1.398   .     A
C40    H64     1.082   .     S
C41    H65     1.074   .     S
C42    H49     1.083   .     S
C42    C762    1.390   1_554 S
C43    H60     1.083   .     S
C43    C764    1.390   .     S
C44    H72     1.084   .     S
C44    C538    1.386   1_545 S
C45    H50     1.084   .     S
C45    C250    1.386   .     S
C46    H51     1.084   .     S
C46    C87     1.399   .     S
C46    C290    1.386   .     S
Cu47   O79     1.955   .     S
Cu47   O82     1.949   .     S
Cu47   N73     2.039   .     S
Cu47   O75     1.937   .     S
Cu47   O78     1.950   .     S
Cu47   Cu212   2.713   1_455 S
Cu48   O76     1.937   .     S
Cu48   O81     1.949   .     S
Cu48   N74     2.039   .     S
Cu48   O77     1.950   .     S
Cu48   O80     1.955   .     S
Cu48   Cu129   2.713   .     S
H56    C277    1.082   .     S
H57    C278    1.082   .     S
H62    C530    1.082   1_545 S
H63    C531    1.082   1_545 S
H68    C101    1.083   .     S
H69    C182    1.083   1_455 S
O75    C167    1.294   1_455 S
O76    C96     1.294   .     S
O79    C175    1.304   1_455 S
O80    C94     1.304   .     S
Br83   C107    1.933   .     S
Br84   C118    1.933   .     S
C85    C88     1.435   .     S
C85    O159    1.302   .     A
C85    O239    1.294   .     S
C86    H134    1.084   .     S
C86    C619    1.386   1_545 S
C87    C127    1.396   .     A
C87    C96     1.435   .     S
C88    C126    1.396   .     A
C88    C168    1.399   .     S
C89    C111    1.470   .     S
C89    N156    1.393   .     A
C89    C91     1.417   .     A
C90    C117    1.470   .     S
C90    N155    1.393   .     A
C90    C92     1.417   .     A
C91    N155    1.353   .     A
C91    H135    1.082   .     S
C92    H136    1.082   .     S
C92    N156    1.353   .     A
C93    O163    1.308   .     A
C93    C95     1.469   .     S
C93    O243    1.304   .     S
C94    C97     1.469   .     S
C94    O164    1.308   .     A
C95    C100    1.401   .     A
C95    C102    1.393   .     A
C96    O160    1.302   .     A
C97    C101    1.401   .     A
C97    C103    1.393   .     A
C98    C106    1.405   .     A
C98    H152    1.083   .     S
C98    C100    1.396   .     A
C99    C108    1.405   .     A
C99    H153    1.083   .     S
C99    C101    1.396   .     A
C100   H233    1.083   .     S
C102   H149    1.066   .     S
C102   C104    1.396   .     A
C103   H148    1.066   .     S
C103   C105    1.396   .     A
C104   C109    1.423   .     A
C104   C106    1.413   .     A
C105   C108    1.413   .     A
C105   C110    1.423   .     A
C106   C862    1.390   .     S
C107   C110    1.429   .     A
C107   C124    1.391   .     A
C108   C863    1.390   1_554 S
C109   C118    1.429   .     A
C109   C848    1.427   .     S
C110   C847    1.427   1_554 S
C111   C116    1.399   .     A
C111   C112    1.406   .     A
C112   C113    1.399   .     A
C112   H137    1.083   .     S
C113   C114    1.397   .     A
C113   H630    1.082   1_545 S
C114   C115    1.397   .     A
C114   H631    1.082   1_545 S
C115   H140    1.082   .     S
C115   C116    1.398   .     A
C116   H141    1.074   .     S
C117   C119    1.406   .     A
C117   C123    1.399   .     A
C118   C125    1.391   .     A
C119   C120    1.399   .     A
C119   H143    1.083   .     S
C120   C121    1.397   .     A
C120   H390    1.082   .     S
C121   C122    1.397   .     A
C121   H391    1.082   .     S
C122   C123    1.398   .     A
C122   H146    1.082   .     S
C123   H147    1.074   .     S
C124   H131    1.083   .     S
C124   C844    1.390   1_554 S
C125   H142    1.083   .     S
C125   C846    1.390   .     S
C126   H154    1.084   .     S
C126   C620    1.386   1_545 S
C127   H132    1.084   .     S
C127   C332    1.386   .     S
C128   H133    1.084   .     S
C128   C169    1.399   .     S
C128   C372    1.386   .     S
Cu129  O161    1.955   .     S
Cu129  O164    1.949   .     S
Cu129  N155    2.039   .     S
Cu129  O157    1.937   .     S
Cu129  O160    1.950   .     S
Cu130  O158    1.937   .     S
Cu130  O163    1.949   .     S
Cu130  N156    2.039   .     S
Cu130  O159    1.950   .     S
Cu130  O162    1.955   .     S
Cu130  Cu211   2.713   .     S
H138   C359    1.082   .     S
H139   C360    1.082   .     S
H144   C612    1.082   1_545 S
H145   C613    1.082   1_545 S
H150   C183    1.083   .     S
O158   C178    1.294   .     S
O162   C176    1.304   .     S
Br165  C189    1.933   .     S
Br166  C200    1.933   .     S
C167   C170    1.435   .     S
C167   O241    1.302   .     A
C167   O75     1.294   1_655 S
C168   H216    1.084   .     S
C168   C701    1.386   1_545 S
C169   C209    1.396   .     A
C169   C178    1.435   .     S
C170   C208    1.396   .     A
C170   C4      1.399   1_655 S
C171   C193    1.470   .     S
C171   N238    1.393   .     A
C171   C173    1.417   .     A
C172   C199    1.470   .     S
C172   N237    1.393   .     A
C172   C174    1.417   .     A
C173   N237    1.353   .     A
C173   H217    1.082   .     S
C174   H218    1.082   .     S
C174   N238    1.353   .     A
C175   O245    1.308   .     A
C175   C177    1.469   .     S
C175   O79     1.304   1_655 S
C176   C179    1.469   .     S
C176   O246    1.308   .     A
C177   C182    1.401   .     A
C177   C184    1.393   .     A
C178   O242    1.302   .     A
C179   C183    1.401   .     A
C179   C185    1.393   .     A
C180   C188    1.405   .     A
C180   H234    1.083   .     S
C180   C182    1.396   .     A
C181   C190    1.405   .     A
C181   H235    1.083   .     S
C181   C183    1.396   .     A
C182   H69     1.083   1_655 S
C184   H231    1.066   .     S
C184   C186    1.396   .     A
C185   H230    1.066   .     S
C185   C187    1.396   .     A
C186   C191    1.423   .     A
C186   C188    1.413   .     A
C187   C190    1.413   .     A
C187   C192    1.423   .     A
C188   C944    1.390   .     S
C189   C192    1.429   .     A
C189   C206    1.391   .     A
C190   C945    1.390   1_554 S
C191   C200    1.429   .     A
C191   C930    1.427   .     S
C192   C929    1.427   1_554 S
C193   C198    1.399   .     A
C193   C194    1.406   .     A
C194   C195    1.399   .     A
C194   H219    1.083   .     S
C195   C196    1.397   .     A
C195   H712    1.082   1_545 S
C196   C197    1.397   .     A
C196   H713    1.082   1_545 S
C197   H222    1.082   .     S
C197   C198    1.398   .     A
C198   H223    1.074   .     S
C199   C201    1.406   .     A
C199   C205    1.399   .     A
C200   C207    1.391   .     A
C201   C202    1.399   .     A
C201   H225    1.083   .     S
C202   C203    1.397   .     A
C202   H472    1.082   .     S
C203   C204    1.397   .     A
C203   H473    1.082   .     S
C204   C205    1.398   .     A
C204   H228    1.082   .     S
C205   H229    1.074   .     S
C206   H213    1.083   .     S
C206   C926    1.390   1_554 S
C207   H224    1.083   .     S
C207   C928    1.390   .     S
C208   H236    1.084   .     S
C208   C702    1.386   1_545 S
C209   H214    1.084   .     S
C209   C414    1.386   .     S
C210   H215    1.084   .     S
C210   C5      1.399   1_655 S
C210   C454    1.386   .     S
Cu211  O243    1.955   .     S
Cu211  O246    1.949   .     S
Cu211  N237    2.039   .     S
Cu211  O239    1.937   .     S
Cu211  O242    1.950   .     S
Cu212  O240    1.937   .     S
Cu212  O245    1.949   .     S
Cu212  N238    2.039   .     S
Cu212  O241    1.950   .     S
Cu212  O244    1.955   .     S
Cu212  Cu47    2.713   1_655 S
H220   C441    1.082   .     S
H221   C442    1.082   .     S
H226   C694    1.082   1_545 S
H227   C695    1.082   1_545 S
H232   C19     1.083   1_655 S
O240   C14     1.294   1_655 S
O244   C12     1.304   1_655 S
Br247  C271    1.933   .     S
Br248  C282    1.933   .     S
C249   C252    1.435   .     S
C249   O323    1.302   .     A
C249   O403    1.294   .     S
C250   H298    1.084   .     S
C250   C416    1.399   1_455 S
C251   C291    1.396   .     A
C251   C260    1.435   .     S
C251   C456    1.399   1_455 S
C252   C290    1.396   .     A
C252   C332    1.399   .     S
C253   C275    1.470   .     S
C253   N320    1.393   .     A
C253   C255    1.417   .     A
C254   C281    1.470   .     S
C254   N319    1.393   .     A
C254   C256    1.417   .     A
C255   N319    1.353   .     A
C255   H299    1.082   .     S
C256   H300    1.082   .     S
C256   N320    1.353   .     A
C257   O327    1.308   .     A
C257   C259    1.469   .     S
C257   O407    1.304   .     S
C258   C261    1.469   .     S
C258   O328    1.308   .     A
C258   O490    1.304   1_455 S
C259   C264    1.401   .     A
C259   C266    1.393   .     A
C260   O324    1.302   .     A
C260   O486    1.294   1_455 S
C261   C265    1.401   .     A
C261   C267    1.393   .     A
C262   C270    1.405   .     A
C262   H316    1.083   .     S
C262   C264    1.396   .     A
C263   C272    1.405   .     A
C263   H317    1.083   .     S
C263   C265    1.396   .     A
C264   H397    1.083   .     S
C265   H478    1.083   1_455 S
C266   H313    1.066   .     S
C266   C268    1.396   .     A
C267   H312    1.066   .     S
C267   C269    1.396   .     A
C268   C273    1.423   .     A
C268   C270    1.413   .     A
C269   C272    1.413   .     A
C269   C274    1.423   .     A
C270   C1026   1.390   .     S
C271   C274    1.429   .     A
C271   C288    1.391   .     A
C272   C1027   1.390   1_554 S
C273   C282    1.429   .     A
C273   C1012   1.427   .     S
C274   C1011   1.427   1_554 S
C275   C280    1.399   .     A
C275   C276    1.406   .     A
C276   C277    1.399   .     A
C276   H301    1.083   .     S
C277   C278    1.397   .     A
C278   C279    1.397   .     A
C279   H304    1.082   .     S
C279   C280    1.398   .     A
C280   H305    1.074   .     S
C281   C283    1.406   .     A
C281   C287    1.399   .     A
C282   C289    1.391   .     A
C283   C284    1.399   .     A
C283   H307    1.083   .     S
C284   C285    1.397   .     A
C284   H554    1.082   .     S
C285   C286    1.397   .     A
C285   H555    1.082   .     S
C286   C287    1.398   .     A
C286   H310    1.082   .     S
C287   H311    1.074   .     S
C288   H295    1.083   .     S
C288   C1008   1.390   1_554 S
C289   H306    1.083   .     S
C289   C1010   1.390   .     S
C290   H318    1.084   .     S
C291   H296    1.084   .     S
C291   C496    1.386   .     S
C292   H297    1.084   .     S
C292   C333    1.399   .     S
C292   C536    1.386   .     S
Cu293  O325    1.955   .     S
Cu293  O328    1.949   .     S
Cu293  N319    2.039   .     S
Cu293  O321    1.937   .     S
Cu293  O324    1.950   .     S
Cu293  Cu458   2.713   1_455 S
Cu294  O322    1.937   .     S
Cu294  O327    1.949   .     S
Cu294  N320    2.039   .     S
Cu294  O323    1.950   .     S
Cu294  O326    1.955   .     S
Cu294  Cu375   2.713   .     S
H302   C523    1.082   .     S
H303   C524    1.082   .     S
H314   C347    1.083   .     S
H315   C428    1.083   1_455 S
O321   C413    1.294   1_455 S
O322   C342    1.294   .     S
O325   C421    1.304   1_455 S
O326   C340    1.304   .     S
Br329  C353    1.933   .     S
Br330  C364    1.933   .     S
C331   C334    1.435   .     S
C331   O405    1.302   .     A
C331   O485    1.294   .     S
C332   H380    1.084   .     S
C333   C373    1.396   .     A
C333   C342    1.435   .     S
C334   C372    1.396   .     A
C334   C414    1.399   .     S
C335   C357    1.470   .     S
C335   N402    1.393   .     A
C335   C337    1.417   .     A
C336   C363    1.470   .     S
C336   N401    1.393   .     A
C336   C338    1.417   .     A
C337   N401    1.353   .     A
C337   H381    1.082   .     S
C338   H382    1.082   .     S
C338   N402    1.353   .     A
C339   O409    1.308   .     A
C339   C341    1.469   .     S
C339   O489    1.304   .     S
C340   C343    1.469   .     S
C340   O410    1.308   .     A
C341   C346    1.401   .     A
C341   C348    1.393   .     A
C342   O406    1.302   .     A
C343   C347    1.401   .     A
C343   C349    1.393   .     A
C344   C352    1.405   .     A
C344   H398    1.083   .     S
C344   C346    1.396   .     A
C345   C354    1.405   .     A
C345   H399    1.083   .     S
C345   C347    1.396   .     A
C346   H479    1.083   .     S
C348   H395    1.066   .     S
C348   C350    1.396   .     A
C349   H394    1.066   .     S
C349   C351    1.396   .     A
C350   C355    1.423   .     A
C350   C352    1.413   .     A
C351   C354    1.413   .     A
C351   C356    1.423   .     A
C352   C1108   1.390   .     S
C353   C356    1.429   .     A
C353   C370    1.391   .     A
C354   C1109   1.390   1_554 S
C355   C364    1.429   .     A
C355   C1094   1.427   .     S
C356   C1093   1.427   1_554 S
C357   C362    1.399   .     A
C357   C358    1.406   .     A
C358   C359    1.399   .     A
C358   H383    1.083   .     S
C359   C360    1.397   .     A
C360   C361    1.397   .     A
C361   H386    1.082   .     S
C361   C362    1.398   .     A
C362   H387    1.074   .     S
C363   C365    1.406   .     A
C363   C369    1.399   .     A
C364   C371    1.391   .     A
C365   C366    1.399   .     A
C365   H389    1.083   .     S
C366   C367    1.397   .     A
C366   H636    1.082   .     S
C367   C368    1.397   .     A
C367   H637    1.082   .     S
C368   C369    1.398   .     A
C368   H392    1.082   .     S
C369   H393    1.074   .     S
C370   H377    1.083   .     S
C370   C1090   1.390   1_554 S
C371   H388    1.083   .     S
C371   C1092   1.390   .     S
C372   H400    1.084   .     S
C373   H378    1.084   .     S
C373   C578    1.386   .     S
C374   H379    1.084   .     S
C374   C415    1.399   .     S
C374   C618    1.386   .     S
Cu375  O407    1.955   .     S
Cu375  O410    1.949   .     S
Cu375  N401    2.039   .     S
Cu375  O403    1.937   .     S
Cu375  O406    1.950   .     S
Cu376  O404    1.937   .     S
Cu376  O409    1.949   .     S
Cu376  N402    2.039   .     S
Cu376  O405    1.950   .     S
Cu376  O408    1.955   .     S
Cu376  Cu457   2.713   .     S
H384   C605    1.082   .     S
H385   C606    1.082   .     S
H396   C429    1.083   .     S
O404   C424    1.294   .     S
O408   C422    1.304   .     S
Br411  C435    1.933   .     S
Br412  C446    1.933   .     S
C413   C416    1.435   .     S
C413   O487    1.302   .     A
C413   O321    1.294   1_655 S
C414   H462    1.084   .     S
C415   C455    1.396   .     A
C415   C424    1.435   .     S
C416   C454    1.396   .     A
C416   C250    1.399   1_655 S
C417   C439    1.470   .     S
C417   N484    1.393   .     A
C417   C419    1.417   .     A
C418   C445    1.470   .     S
C418   N483    1.393   .     A
C418   C420    1.417   .     A
C419   N483    1.353   .     A
C419   H463    1.082   .     S
C420   H464    1.082   .     S
C420   N484    1.353   .     A
C421   O491    1.308   .     A
C421   C423    1.469   .     S
C421   O325    1.304   1_655 S
C422   C425    1.469   .     S
C422   O492    1.308   .     A
C423   C428    1.401   .     A
C423   C430    1.393   .     A
C424   O488    1.302   .     A
C425   C429    1.401   .     A
C425   C431    1.393   .     A
C426   C434    1.405   .     A
C426   H480    1.083   .     S
C426   C428    1.396   .     A
C427   C436    1.405   .     A
C427   H481    1.083   .     S
C427   C429    1.396   .     A
C428   H315    1.083   1_655 S
C430   H477    1.066   .     S
C430   C432    1.396   .     A
C431   H476    1.066   .     S
C431   C433    1.396   .     A
C432   C437    1.423   .     A
C432   C434    1.413   .     A
C433   C436    1.413   .     A
C433   C438    1.423   .     A
C434   C1190   1.390   .     S
C435   C438    1.429   .     A
C435   C452    1.391   .     A
C436   C1191   1.390   1_554 S
C437   C446    1.429   .     A
C437   C1176   1.427   .     S
C438   C1175   1.427   1_554 S
C439   C444    1.399   .     A
C439   C440    1.406   .     A
C440   C441    1.399   .     A
C440   H465    1.083   .     S
C441   C442    1.397   .     A
C442   C443    1.397   .     A
C443   H468    1.082   .     S
C443   C444    1.398   .     A
C444   H469    1.074   .     S
C445   C447    1.406   .     A
C445   C451    1.399   .     A
C446   C453    1.391   .     A
C447   C448    1.399   .     A
C447   H471    1.083   .     S
C448   C449    1.397   .     A
C448   H718    1.082   .     S
C449   C450    1.397   .     A
C449   H719    1.082   .     S
C450   C451    1.398   .     A
C450   H474    1.082   .     S
C451   H475    1.074   .     S
C452   H459    1.083   .     S
C452   C1172   1.390   1_554 S
C453   H470    1.083   .     S
C453   C1174   1.390   .     S
C454   H482    1.084   .     S
C455   H460    1.084   .     S
C455   C660    1.386   .     S
C456   H461    1.084   .     S
C456   C251    1.399   1_655 S
C456   C700    1.386   .     S
Cu457  O489    1.955   .     S
Cu457  O492    1.949   .     S
Cu457  N483    2.039   .     S
Cu457  O485    1.937   .     S
Cu457  O488    1.950   .     S
Cu458  O486    1.937   .     S
Cu458  O491    1.949   .     S
Cu458  N484    2.039   .     S
Cu458  O487    1.950   .     S
Cu458  O490    1.955   .     S
Cu458  Cu293   2.713   1_655 S
H466   C687    1.082   .     S
H467   C688    1.082   .     S
H478   C265    1.083   1_655 S
O486   C260    1.294   1_655 S
O490   C258    1.304   1_655 S
Br493  C517    1.933   .     S
Br494  C528    1.933   .     S
C495   C498    1.435   .     S
C495   O569    1.302   .     A
C495   O649    1.294   .     S
C496   H544    1.084   .     S
C496   C662    1.399   1_455 S
C497   C537    1.396   .     A
C497   C506    1.435   .     S
C497   C702    1.399   1_455 S
C498   C536    1.396   .     A
C498   C578    1.399   .     S
C499   C521    1.470   .     S
C499   N566    1.393   .     A
C499   C501    1.417   .     A
C500   C527    1.470   .     S
C500   N565    1.393   .     A
C500   C502    1.417   .     A
C501   N565    1.353   .     A
C501   H545    1.082   .     S
C502   H546    1.082   .     S
C502   N566    1.353   .     A
C503   O573    1.308   .     A
C503   C505    1.469   .     S
C503   O653    1.304   .     S
C504   C507    1.469   .     S
C504   O574    1.308   .     A
C504   O736    1.304   1_455 S
C505   C510    1.401   .     A
C505   C512    1.393   .     A
C506   O570    1.302   .     A
C506   O732    1.294   1_455 S
C507   C511    1.401   .     A
C507   C513    1.393   .     A
C508   C516    1.405   .     A
C508   H562    1.083   .     S
C508   C510    1.396   .     A
C509   C518    1.405   .     A
C509   H563    1.083   .     S
C509   C511    1.396   .     A
C510   H643    1.083   .     S
C511   H724    1.083   1_455 S
C512   H559    1.066   .     S
C512   C514    1.396   .     A
C513   H558    1.066   .     S
C513   C515    1.396   .     A
C514   C519    1.423   .     A
C514   C516    1.413   .     A
C515   C518    1.413   .     A
C515   C520    1.423   .     A
C516   C1272   1.390   .     S
C517   C520    1.429   .     A
C517   C534    1.391   .     A
C518   C1273   1.390   1_554 S
C519   C528    1.429   .     A
C519   C1258   1.427   .     S
C520   C1257   1.427   1_554 S
C521   C526    1.399   .     A
C521   C522    1.406   .     A
C522   C523    1.399   .     A
C522   H547    1.083   .     S
C523   C524    1.397   .     A
C524   C525    1.397   .     A
C525   H550    1.082   .     S
C525   C526    1.398   .     A
C526   H551    1.074   .     S
C527   C529    1.406   .     A
C527   C533    1.399   .     A
C528   C535    1.391   .     A
C529   C530    1.399   .     A
C529   H553    1.083   .     S
C530   C531    1.397   .     A
C530   H62     1.082   1_565 S
C531   C532    1.397   .     A
C531   H63     1.082   1_565 S
C532   C533    1.398   .     A
C532   H556    1.082   .     S
C533   H557    1.074   .     S
C534   H541    1.083   .     S
C534   C1254   1.390   1_554 S
C535   H552    1.083   .     S
C535   C1256   1.390   .     S
C536   H564    1.084   .     S
C537   H542    1.084   .     S
C537   C4      1.386   1_565 S
C538   H543    1.084   .     S
C538   C579    1.399   .     S
C538   C44     1.386   1_565 S
Cu539  O571    1.955   .     S
Cu539  O574    1.949   .     S
Cu539  N565    2.039   .     S
Cu539  O567    1.937   .     S
Cu539  O570    1.950   .     S
Cu539  Cu704   2.713   1_455 S
Cu540  O568    1.937   .     S
Cu540  O573    1.949   .     S
Cu540  N566    2.039   .     S
Cu540  O569    1.950   .     S
Cu540  O572    1.955   .     S
Cu540  Cu621   2.713   .     S
H548   C31     1.082   1_565 S
H549   C32     1.082   1_565 S
H560   C593    1.083   .     S
H561   C674    1.083   1_455 S
O567   C659    1.294   1_455 S
O568   C588    1.294   .     S
O571   C667    1.304   1_455 S
O572   C586    1.304   .     S
Br575  C599    1.933   .     S
Br576  C610    1.933   .     S
C577   C580    1.435   .     S
C577   O651    1.302   .     A
C577   O731    1.294   .     S
C578   H626    1.084   .     S
C579   C619    1.396   .     A
C579   C588    1.435   .     S
C580   C618    1.396   .     A
C580   C660    1.399   .     S
C581   C603    1.470   .     S
C581   N648    1.393   .     A
C581   C583    1.417   .     A
C582   C609    1.470   .     S
C582   N647    1.393   .     A
C582   C584    1.417   .     A
C583   N647    1.353   .     A
C583   H627    1.082   .     S
C584   H628    1.082   .     S
C584   N648    1.353   .     A
C585   O655    1.308   .     A
C585   C587    1.469   .     S
C585   O735    1.304   .     S
C586   C589    1.469   .     S
C586   O656    1.308   .     A
C587   C592    1.401   .     A
C587   C594    1.393   .     A
C588   O652    1.302   .     A
C589   C593    1.401   .     A
C589   C595    1.393   .     A
C590   C598    1.405   .     A
C590   H644    1.083   .     S
C590   C592    1.396   .     A
C591   C600    1.405   .     A
C591   H645    1.083   .     S
C591   C593    1.396   .     A
C592   H725    1.083   .     S
C594   H641    1.066   .     S
C594   C596    1.396   .     A
C595   H640    1.066   .     S
C595   C597    1.396   .     A
C596   C601    1.423   .     A
C596   C598    1.413   .     A
C597   C600    1.413   .     A
C597   C602    1.423   .     A
C598   C1354   1.390   .     S
C599   C602    1.429   .     A
C599   C616    1.391   .     A
C600   C1355   1.390   1_554 S
C601   C610    1.429   .     A
C601   C1340   1.427   .     S
C602   C1339   1.427   1_554 S
C603   C608    1.399   .     A
C603   C604    1.406   .     A
C604   C605    1.399   .     A
C604   H629    1.083   .     S
C605   C606    1.397   .     A
C606   C607    1.397   .     A
C607   H632    1.082   .     S
C607   C608    1.398   .     A
C608   H633    1.074   .     S
C609   C611    1.406   .     A
C609   C615    1.399   .     A
C610   C617    1.391   .     A
C611   C612    1.399   .     A
C611   H635    1.083   .     S
C612   C613    1.397   .     A
C612   H144    1.082   1_565 S
C613   C614    1.397   .     A
C613   H145    1.082   1_565 S
C614   C615    1.398   .     A
C614   H638    1.082   .     S
C615   H639    1.074   .     S
C616   H623    1.083   .     S
C616   C1336   1.390   1_554 S
C617   H634    1.083   .     S
C617   C1338   1.390   .     S
C618   H646    1.084   .     S
C619   H624    1.084   .     S
C619   C86     1.386   1_565 S
C620   H625    1.084   .     S
C620   C661    1.399   .     S
C620   C126    1.386   1_565 S
Cu621  O653    1.955   .     S
Cu621  O656    1.949   .     S
Cu621  N647    2.039   .     S
Cu621  O649    1.937   .     S
Cu621  O652    1.950   .     S
Cu622  O650    1.937   .     S
Cu622  O655    1.949   .     S
Cu622  N648    2.039   .     S
Cu622  O651    1.950   .     S
Cu622  O654    1.955   .     S
Cu622  Cu703   2.713   .     S
H630   C113    1.082   1_565 S
H631   C114    1.082   1_565 S
H642   C675    1.083   .     S
O650   C670    1.294   .     S
O654   C668    1.304   .     S
Br657  C681    1.933   .     S
Br658  C692    1.933   .     S
C659   C662    1.435   .     S
C659   O733    1.302   .     A
C659   O567    1.294   1_655 S
C660   H708    1.084   .     S
C661   C701    1.396   .     A
C661   C670    1.435   .     S
C662   C700    1.396   .     A
C662   C496    1.399   1_655 S
C663   C685    1.470   .     S
C663   N730    1.393   .     A
C663   C665    1.417   .     A
C664   C691    1.470   .     S
C664   N729    1.393   .     A
C664   C666    1.417   .     A
C665   N729    1.353   .     A
C665   H709    1.082   .     S
C666   H710    1.082   .     S
C666   N730    1.353   .     A
C667   O737    1.308   .     A
C667   C669    1.469   .     S
C667   O571    1.304   1_655 S
C668   C671    1.469   .     S
C668   O738    1.308   .     A
C669   C674    1.401   .     A
C669   C676    1.393   .     A
C670   O734    1.302   .     A
C671   C675    1.401   .     A
C671   C677    1.393   .     A
C672   C680    1.405   .     A
C672   H726    1.083   .     S
C672   C674    1.396   .     A
C673   C682    1.405   .     A
C673   H727    1.083   .     S
C673   C675    1.396   .     A
C674   H561    1.083   1_655 S
C676   H723    1.066   .     S
C676   C678    1.396   .     A
C677   H722    1.066   .     S
C677   C679    1.396   .     A
C678   C683    1.423   .     A
C678   C680    1.413   .     A
C679   C682    1.413   .     A
C679   C684    1.423   .     A
C680   C1436   1.390   .     S
C681   C684    1.429   .     A
C681   C698    1.391   .     A
C682   C1437   1.390   1_554 S
C683   C692    1.429   .     A
C683   C1422   1.427   .     S
C684   C1421   1.427   1_554 S
C685   C690    1.399   .     A
C685   C686    1.406   .     A
C686   C687    1.399   .     A
C686   H711    1.083   .     S
C687   C688    1.397   .     A
C688   C689    1.397   .     A
C689   H714    1.082   .     S
C689   C690    1.398   .     A
C690   H715    1.074   .     S
C691   C693    1.406   .     A
C691   C697    1.399   .     A
C692   C699    1.391   .     A
C693   C694    1.399   .     A
C693   H717    1.083   .     S
C694   C695    1.397   .     A
C694   H226    1.082   1_565 S
C695   C696    1.397   .     A
C695   H227    1.082   1_565 S
C696   C697    1.398   .     A
C696   H720    1.082   .     S
C697   H721    1.074   .     S
C698   H705    1.083   .     S
C698   C1418   1.390   1_554 S
C699   H716    1.083   .     S
C699   C1420   1.390   .     S
C700   H728    1.084   .     S
C701   H706    1.084   .     S
C701   C168    1.386   1_565 S
C702   H707    1.084   .     S
C702   C497    1.399   1_655 S
C702   C208    1.386   1_565 S
Cu703  O735    1.955   .     S
Cu703  O738    1.949   .     S
Cu703  N729    2.039   .     S
Cu703  O731    1.937   .     S
Cu703  O734    1.950   .     S
Cu704  O732    1.937   .     S
Cu704  O737    1.949   .     S
Cu704  N730    2.039   .     S
Cu704  O733    1.950   .     S
Cu704  O736    1.955   .     S
Cu704  Cu539   2.713   1_655 S
H712   C195    1.082   1_565 S
H713   C196    1.082   1_565 S
H724   C511    1.083   1_655 S
O732   C506    1.294   1_655 S
O736   C504    1.304   1_655 S
Br739  C763    1.933   .     S
Br740  C774    1.933   .     S
C741   C744    1.435   .     S
C741   O815    1.302   .     A
C741   O895    1.294   .     S
C742   H790    1.084   .     S
C742   C908    1.399   1_455 S
C742   C1275   1.386   1_545 S
C743   C783    1.396   .     A
C743   C752    1.435   .     S
C743   C948    1.399   1_455 S
C744   C782    1.396   .     A
C744   C824    1.399   .     S
C745   C767    1.470   .     S
C745   N812    1.393   .     A
C745   C747    1.417   .     A
C746   C773    1.470   .     S
C746   N811    1.393   .     A
C746   C748    1.417   .     A
C747   N811    1.353   .     A
C747   H791    1.082   .     S
C748   H792    1.082   .     S
C748   N812    1.353   .     A
C749   O819    1.308   .     A
C749   C751    1.469   .     S
C749   O899    1.304   .     S
C750   C753    1.469   .     S
C750   O820    1.308   .     A
C750   O982    1.304   1_455 S
C751   C756    1.401   .     A
C751   C758    1.393   .     A
C752   O816    1.302   .     A
C752   O978    1.294   1_455 S
C753   C757    1.401   .     A
C753   C759    1.393   .     A
C754   C762    1.405   .     A
C754   H808    1.083   .     S
C754   C756    1.396   .     A
C755   C764    1.405   .     A
C755   H809    1.083   .     S
C755   C757    1.396   .     A
C756   H889    1.083   .     S
C757   H970    1.083   1_455 S
C758   H805    1.066   .     S
C758   C760    1.396   .     A
C759   H804    1.066   .     S
C759   C761    1.396   .     A
C760   C765    1.423   .     A
C760   C762    1.413   .     A
C761   C764    1.413   .     A
C761   C766    1.423   .     A
C762   C42     1.390   1_556 S
C763   C766    1.429   .     A
C763   C780    1.391   .     A
C765   C774    1.429   .     A
C765   C28     1.427   1_556 S
C767   C772    1.399   .     A
C767   C768    1.406   .     A
C768   C769    1.399   .     A
C768   H793    1.083   .     S
C769   C770    1.397   .     A
C769   H1286   1.082   1_545 S
C770   C771    1.397   .     A
C770   H1287   1.082   1_545 S
C771   H796    1.082   .     S
C771   C772    1.398   .     A
C772   H797    1.074   .     S
C773   C775    1.406   .     A
C773   C779    1.399   .     A
C774   C781    1.391   .     A
C775   C776    1.399   .     A
C775   H799    1.083   .     S
C776   C777    1.397   .     A
C776   H1046   1.082   .     S
C777   C778    1.397   .     A
C777   H1047   1.082   .     S
C778   C779    1.398   .     A
C778   H802    1.082   .     S
C779   H803    1.074   .     S
C780   H787    1.083   .     S
C781   H798    1.083   .     S
C781   C26     1.390   1_556 S
C782   H810    1.084   .     S
C782   C1276   1.386   1_545 S
C783   H788    1.084   .     S
C783   C988    1.386   .     S
C784   H789    1.084   .     S
C784   C825    1.399   .     S
C784   C1028   1.386   .     S
Cu785  O817    1.955   .     S
Cu785  O820    1.949   .     S
Cu785  N811    2.039   .     S
Cu785  O813    1.937   .     S
Cu785  O816    1.950   .     S
Cu785  Cu950   2.713   1_455 S
Cu786  O814    1.937   .     S
Cu786  O819    1.949   .     S
Cu786  N812    2.039   .     S
Cu786  O815    1.950   .     S
Cu786  O818    1.955   .     S
Cu786  Cu867   2.713   .     S
H794   C1015   1.082   .     S
H795   C1016   1.082   .     S
H800   C1268   1.082   1_545 S
H801   C1269   1.082   1_545 S
H806   C839    1.083   .     S
H807   C920    1.083   1_455 S
O813   C905    1.294   1_455 S
O814   C834    1.294   .     S
O817   C913    1.304   1_455 S
O818   C832    1.304   .     S
Br821  C845    1.933   .     S
Br822  C856    1.933   .     S
C823   C826    1.435   .     S
C823   O897    1.302   .     A
C823   O977    1.294   .     S
C824   H872    1.084   .     S
C824   C1357   1.386   1_545 S
C825   C865    1.396   .     A
C825   C834    1.435   .     S
C826   C864    1.396   .     A
C826   C906    1.399   .     S
C827   C849    1.470   .     S
C827   N894    1.393   .     A
C827   C829    1.417   .     A
C828   C855    1.470   .     S
C828   N893    1.393   .     A
C828   C830    1.417   .     A
C829   N893    1.353   .     A
C829   H873    1.082   .     S
C830   H874    1.082   .     S
C830   N894    1.353   .     A
C831   O901    1.308   .     A
C831   C833    1.469   .     S
C831   O981    1.304   .     S
C832   C835    1.469   .     S
C832   O902    1.308   .     A
C833   C838    1.401   .     A
C833   C840    1.393   .     A
C834   O898    1.302   .     A
C835   C839    1.401   .     A
C835   C841    1.393   .     A
C836   C844    1.405   .     A
C836   H890    1.083   .     S
C836   C838    1.396   .     A
C837   C846    1.405   .     A
C837   H891    1.083   .     S
C837   C839    1.396   .     A
C838   H971    1.083   .     S
C840   H887    1.066   .     S
C840   C842    1.396   .     A
C841   H886    1.066   .     S
C841   C843    1.396   .     A
C842   C847    1.423   .     A
C842   C844    1.413   .     A
C843   C846    1.413   .     A
C843   C848    1.423   .     A
C844   C124    1.390   1_556 S
C845   C848    1.429   .     A
C845   C862    1.391   .     A
C847   C856    1.429   .     A
C847   C110    1.427   1_556 S
C849   C854    1.399   .     A
C849   C850    1.406   .     A
C850   C851    1.399   .     A
C850   H875    1.083   .     S
C851   C852    1.397   .     A
C851   H1368   1.082   1_545 S
C852   C853    1.397   .     A
C852   H1369   1.082   1_545 S
C853   H878    1.082   .     S
C853   C854    1.398   .     A
C854   H879    1.074   .     S
C855   C857    1.406   .     A
C855   C861    1.399   .     A
C856   C863    1.391   .     A
C857   C858    1.399   .     A
C857   H881    1.083   .     S
C858   C859    1.397   .     A
C858   H1128   1.082   .     S
C859   C860    1.397   .     A
C859   H1129   1.082   .     S
C860   C861    1.398   .     A
C860   H884    1.082   .     S
C861   H885    1.074   .     S
C862   H869    1.083   .     S
C863   H880    1.083   .     S
C863   C108    1.390   1_556 S
C864   H892    1.084   .     S
C864   C1358   1.386   1_545 S
C865   H870    1.084   .     S
C865   C1070   1.386   .     S
C866   H871    1.084   .     S
C866   C907    1.399   .     S
C866   C1110   1.386   .     S
Cu867  O899    1.955   .     S
Cu867  O902    1.949   .     S
Cu867  N893    2.039   .     S
Cu867  O895    1.937   .     S
Cu867  O898    1.950   .     S
Cu868  O896    1.937   .     S
Cu868  O901    1.949   .     S
Cu868  N894    2.039   .     S
Cu868  O897    1.950   .     S
Cu868  O900    1.955   .     S
Cu868  Cu949   2.713   .     S
H876   C1097   1.082   .     S
H877   C1098   1.082   .     S
H882   C1350   1.082   1_545 S
H883   C1351   1.082   1_545 S
H888   C921    1.083   .     S
O896   C916    1.294   .     S
O900   C914    1.304   .     S
Br903  C927    1.933   .     S
Br904  C938    1.933   .     S
C905   C908    1.435   .     S
C905   O979    1.302   .     A
C905   O813    1.294   1_655 S
C906   H954    1.084   .     S
C906   C1439   1.386   1_545 S
C907   C947    1.396   .     A
C907   C916    1.435   .     S
C908   C946    1.396   .     A
C908   C742    1.399   1_655 S
C909   C931    1.470   .     S
C909   N976    1.393   .     A
C909   C911    1.417   .     A
C910   C937    1.470   .     S
C910   N975    1.393   .     A
C910   C912    1.417   .     A
C911   N975    1.353   .     A
C911   H955    1.082   .     S
C912   H956    1.082   .     S
C912   N976    1.353   .     A
C913   O983    1.308   .     A
C913   C915    1.469   .     S
C913   O817    1.304   1_655 S
C914   C917    1.469   .     S
C914   O984    1.308   .     A
C915   C920    1.401   .     A
C915   C922    1.393   .     A
C916   O980    1.302   .     A
C917   C921    1.401   .     A
C917   C923    1.393   .     A
C918   C926    1.405   .     A
C918   H972    1.083   .     S
C918   C920    1.396   .     A
C919   C928    1.405   .     A
C919   H973    1.083   .     S
C919   C921    1.396   .     A
C920   H807    1.083   1_655 S
C922   H969    1.066   .     S
C922   C924    1.396   .     A
C923   H968    1.066   .     S
C923   C925    1.396   .     A
C924   C929    1.423   .     A
C924   C926    1.413   .     A
C925   C928    1.413   .     A
C925   C930    1.423   .     A
C926   C206    1.390   1_556 S
C927   C930    1.429   .     A
C927   C944    1.391   .     A
C929   C938    1.429   .     A
C929   C192    1.427   1_556 S
C931   C936    1.399   .     A
C931   C932    1.406   .     A
C932   C933    1.399   .     A
C932   H957    1.083   .     S
C933   C934    1.397   .     A
C933   H1450   1.082   1_545 S
C934   C935    1.397   .     A
C934   H1451   1.082   1_545 S
C935   H960    1.082   .     S
C935   C936    1.398   .     A
C936   H961    1.074   .     S
C937   C939    1.406   .     A
C937   C943    1.399   .     A
C938   C945    1.391   .     A
C939   C940    1.399   .     A
C939   H963    1.083   .     S
C940   C941    1.397   .     A
C940   H1210   1.082   .     S
C941   C942    1.397   .     A
C941   H1211   1.082   .     S
C942   C943    1.398   .     A
C942   H966    1.082   .     S
C943   H967    1.074   .     S
C944   H951    1.083   .     S
C945   H962    1.083   .     S
C945   C190    1.390   1_556 S
C946   H974    1.084   .     S
C946   C1440   1.386   1_545 S
C947   H952    1.084   .     S
C947   C1152   1.386   .     S
C948   H953    1.084   .     S
C948   C743    1.399   1_655 S
C948   C1192   1.386   .     S
Cu949  O981    1.955   .     S
Cu949  O984    1.949   .     S
Cu949  N975    2.039   .     S
Cu949  O977    1.937   .     S
Cu949  O980    1.950   .     S
Cu950  O978    1.937   .     S
Cu950  O983    1.949   .     S
Cu950  N976    2.039   .     S
Cu950  O979    1.950   .     S
Cu950  O982    1.955   .     S
Cu950  Cu785   2.713   1_655 S
H958   C1179   1.082   .     S
H959   C1180   1.082   .     S
H964   C1432   1.082   1_545 S
H965   C1433   1.082   1_545 S
H970   C757    1.083   1_655 S
O978   C752    1.294   1_655 S
O982   C750    1.304   1_655 S
Br985  C1009   1.933   .     S
Br986  C1020   1.933   .     S
C987   C990    1.435   .     S
C987   O1061   1.302   .     A
C987   O1141   1.294   .     S
C988   H1036   1.084   .     S
C988   C1154   1.399   1_455 S
C989   C1029   1.396   .     A
C989   C998    1.435   .     S
C989   C1194   1.399   1_455 S
C990   C1028   1.396   .     A
C990   C1070   1.399   .     S
C991   C1013   1.470   .     S
C991   N1058   1.393   .     A
C991   C993    1.417   .     A
C992   C1019   1.470   .     S
C992   N1057   1.393   .     A
C992   C994    1.417   .     A
C993   N1057   1.353   .     A
C993   H1037   1.082   .     S
C994   H1038   1.082   .     S
C994   N1058   1.353   .     A
C995   O1065   1.308   .     A
C995   C997    1.469   .     S
C995   O1145   1.304   .     S
C996   C999    1.469   .     S
C996   O1066   1.308   .     A
C996   O1228   1.304   1_455 S
C997   C1002   1.401   .     A
C997   C1004   1.393   .     A
C998   O1062   1.302   .     A
C998   O1224   1.294   1_455 S
C999   C1003   1.401   .     A
C999   C1005   1.393   .     A
C1000  C1008   1.405   .     A
C1000  H1054   1.083   .     S
C1000  C1002   1.396   .     A
C1001  C1010   1.405   .     A
C1001  H1055   1.083   .     S
C1001  C1003   1.396   .     A
C1002  H1135   1.083   .     S
C1003  H1216   1.083   1_455 S
C1004  H1051   1.066   .     S
C1004  C1006   1.396   .     A
C1005  H1050   1.066   .     S
C1005  C1007   1.396   .     A
C1006  C1011   1.423   .     A
C1006  C1008   1.413   .     A
C1007  C1010   1.413   .     A
C1007  C1012   1.423   .     A
C1008  C288    1.390   1_556 S
C1009  C1012   1.429   .     A
C1009  C1026   1.391   .     A
C1011  C1020   1.429   .     A
C1011  C274    1.427   1_556 S
C1013  C1018   1.399   .     A
C1013  C1014   1.406   .     A
C1014  C1015   1.399   .     A
C1014  H1039   1.083   .     S
C1015  C1016   1.397   .     A
C1016  C1017   1.397   .     A
C1017  H1042   1.082   .     S
C1017  C1018   1.398   .     A
C1018  H1043   1.074   .     S
C1019  C1021   1.406   .     A
C1019  C1025   1.399   .     A
C1020  C1027   1.391   .     A
C1021  C1022   1.399   .     A
C1021  H1045   1.083   .     S
C1022  C1023   1.397   .     A
C1022  H1292   1.082   .     S
C1023  C1024   1.397   .     A
C1023  H1293   1.082   .     S
C1024  C1025   1.398   .     A
C1024  H1048   1.082   .     S
C1025  H1049   1.074   .     S
C1026  H1033   1.083   .     S
C1027  H1044   1.083   .     S
C1027  C272    1.390   1_556 S
C1028  H1056   1.084   .     S
C1029  H1034   1.084   .     S
C1029  C1234   1.386   .     S
C1030  H1035   1.084   .     S
C1030  C1071   1.399   .     S
C1030  C1274   1.386   .     S
Cu1031 O1063   1.955   .     S
Cu1031 O1066   1.949   .     S
Cu1031 N1057   2.039   .     S
Cu1031 O1059   1.937   .     S
Cu1031 O1062   1.950   .     S
Cu1031 Cu1196  2.713   1_455 S
Cu1032 O1060   1.937   .     S
Cu1032 O1065   1.949   .     S
Cu1032 N1058   2.039   .     S
Cu1032 O1061   1.950   .     S
Cu1032 O1064   1.955   .     S
Cu1032 Cu1113  2.713   .     S
H1040  C1261   1.082   .     S
H1041  C1262   1.082   .     S
H1052  C1085   1.083   .     S
H1053  C1166   1.083   1_455 S
O1059  C1151   1.294   1_455 S
O1060  C1080   1.294   .     S
O1063  C1159   1.304   1_455 S
O1064  C1078   1.304   .     S
Br1067 C1091   1.933   .     S
Br1068 C1102   1.933   .     S
C1069  C1072   1.435   .     S
C1069  O1143   1.302   .     A
C1069  O1223   1.294   .     S
C1070  H1118   1.084   .     S
C1071  C1111   1.396   .     A
C1071  C1080   1.435   .     S
C1072  C1110   1.396   .     A
C1072  C1152   1.399   .     S
C1073  C1095   1.470   .     S
C1073  N1140   1.393   .     A
C1073  C1075   1.417   .     A
C1074  C1101   1.470   .     S
C1074  N1139   1.393   .     A
C1074  C1076   1.417   .     A
C1075  N1139   1.353   .     A
C1075  H1119   1.082   .     S
C1076  H1120   1.082   .     S
C1076  N1140   1.353   .     A
C1077  O1147   1.308   .     A
C1077  C1079   1.469   .     S
C1077  O1227   1.304   .     S
C1078  C1081   1.469   .     S
C1078  O1148   1.308   .     A
C1079  C1084   1.401   .     A
C1079  C1086   1.393   .     A
C1080  O1144   1.302   .     A
C1081  C1085   1.401   .     A
C1081  C1087   1.393   .     A
C1082  C1090   1.405   .     A
C1082  H1136   1.083   .     S
C1082  C1084   1.396   .     A
C1083  C1092   1.405   .     A
C1083  H1137   1.083   .     S
C1083  C1085   1.396   .     A
C1084  H1217   1.083   .     S
C1086  H1133   1.066   .     S
C1086  C1088   1.396   .     A
C1087  H1132   1.066   .     S
C1087  C1089   1.396   .     A
C1088  C1093   1.423   .     A
C1088  C1090   1.413   .     A
C1089  C1092   1.413   .     A
C1089  C1094   1.423   .     A
C1090  C370    1.390   1_556 S
C1091  C1094   1.429   .     A
C1091  C1108   1.391   .     A
C1093  C1102   1.429   .     A
C1093  C356    1.427   1_556 S
C1095  C1100   1.399   .     A
C1095  C1096   1.406   .     A
C1096  C1097   1.399   .     A
C1096  H1121   1.083   .     S
C1097  C1098   1.397   .     A
C1098  C1099   1.397   .     A
C1099  H1124   1.082   .     S
C1099  C1100   1.398   .     A
C1100  H1125   1.074   .     S
C1101  C1103   1.406   .     A
C1101  C1107   1.399   .     A
C1102  C1109   1.391   .     A
C1103  C1104   1.399   .     A
C1103  H1127   1.083   .     S
C1104  C1105   1.397   .     A
C1104  H1374   1.082   .     S
C1105  C1106   1.397   .     A
C1105  H1375   1.082   .     S
C1106  C1107   1.398   .     A
C1106  H1130   1.082   .     S
C1107  H1131   1.074   .     S
C1108  H1115   1.083   .     S
C1109  H1126   1.083   .     S
C1109  C354    1.390   1_556 S
C1110  H1138   1.084   .     S
C1111  H1116   1.084   .     S
C1111  C1316   1.386   .     S
C1112  H1117   1.084   .     S
C1112  C1153   1.399   .     S
C1112  C1356   1.386   .     S
Cu1113 O1145   1.955   .     S
Cu1113 O1148   1.949   .     S
Cu1113 N1139   2.039   .     S
Cu1113 O1141   1.937   .     S
Cu1113 O1144   1.950   .     S
Cu1114 O1142   1.937   .     S
Cu1114 O1147   1.949   .     S
Cu1114 N1140   2.039   .     S
Cu1114 O1143   1.950   .     S
Cu1114 O1146   1.955   .     S
Cu1114 Cu1195  2.713   .     S
H1122  C1343   1.082   .     S
H1123  C1344   1.082   .     S
H1134  C1167   1.083   .     S
O1142  C1162   1.294   .     S
O1146  C1160   1.304   .     S
Br1149 C1173   1.933   .     S
Br1150 C1184   1.933   .     S
C1151  C1154   1.435   .     S
C1151  O1225   1.302   .     A
C1151  O1059   1.294   1_655 S
C1152  H1200   1.084   .     S
C1153  C1193   1.396   .     A
C1153  C1162   1.435   .     S
C1154  C1192   1.396   .     A
C1154  C988    1.399   1_655 S
C1155  C1177   1.470   .     S
C1155  N1222   1.393   .     A
C1155  C1157   1.417   .     A
C1156  C1183   1.470   .     S
C1156  N1221   1.393   .     A
C1156  C1158   1.417   .     A
C1157  N1221   1.353   .     A
C1157  H1201   1.082   .     S
C1158  H1202   1.082   .     S
C1158  N1222   1.353   .     A
C1159  O1229   1.308   .     A
C1159  C1161   1.469   .     S
C1159  O1063   1.304   1_655 S
C1160  C1163   1.469   .     S
C1160  O1230   1.308   .     A
C1161  C1166   1.401   .     A
C1161  C1168   1.393   .     A
C1162  O1226   1.302   .     A
C1163  C1167   1.401   .     A
C1163  C1169   1.393   .     A
C1164  C1172   1.405   .     A
C1164  H1218   1.083   .     S
C1164  C1166   1.396   .     A
C1165  C1174   1.405   .     A
C1165  H1219   1.083   .     S
C1165  C1167   1.396   .     A
C1166  H1053   1.083   1_655 S
C1168  H1215   1.066   .     S
C1168  C1170   1.396   .     A
C1169  H1214   1.066   .     S
C1169  C1171   1.396   .     A
C1170  C1175   1.423   .     A
C1170  C1172   1.413   .     A
C1171  C1174   1.413   .     A
C1171  C1176   1.423   .     A
C1172  C452    1.390   1_556 S
C1173  C1176   1.429   .     A
C1173  C1190   1.391   .     A
C1175  C1184   1.429   .     A
C1175  C438    1.427   1_556 S
C1177  C1182   1.399   .     A
C1177  C1178   1.406   .     A
C1178  C1179   1.399   .     A
C1178  H1203   1.083   .     S
C1179  C1180   1.397   .     A
C1180  C1181   1.397   .     A
C1181  H1206   1.082   .     S
C1181  C1182   1.398   .     A
C1182  H1207   1.074   .     S
C1183  C1185   1.406   .     A
C1183  C1189   1.399   .     A
C1184  C1191   1.391   .     A
C1185  C1186   1.399   .     A
C1185  H1209   1.083   .     S
C1186  C1187   1.397   .     A
C1186  H1456   1.082   .     S
C1187  C1188   1.397   .     A
C1187  H1457   1.082   .     S
C1188  C1189   1.398   .     A
C1188  H1212   1.082   .     S
C1189  H1213   1.074   .     S
C1190  H1197   1.083   .     S
C1191  H1208   1.083   .     S
C1191  C436    1.390   1_556 S
C1192  H1220   1.084   .     S
C1193  H1198   1.084   .     S
C1193  C1398   1.386   .     S
C1194  H1199   1.084   .     S
C1194  C989    1.399   1_655 S
C1194  C1438   1.386   .     S
Cu1195 O1227   1.955   .     S
Cu1195 O1230   1.949   .     S
Cu1195 N1221   2.039   .     S
Cu1195 O1223   1.937   .     S
Cu1195 O1226   1.950   .     S
Cu1196 O1224   1.937   .     S
Cu1196 O1229   1.949   .     S
Cu1196 N1222   2.039   .     S
Cu1196 O1225   1.950   .     S
Cu1196 O1228   1.955   .     S
Cu1196 Cu1031  2.713   1_655 S
H1204  C1425   1.082   .     S
H1205  C1426   1.082   .     S
H1216  C1003   1.083   1_655 S
O1224  C998    1.294   1_655 S
O1228  C996    1.304   1_655 S
Br1231 C1255   1.933   .     S
Br1232 C1266   1.933   .     S
C1233  C1236   1.435   .     S
C1233  O1307   1.302   .     A
C1233  O1387   1.294   .     S
C1234  H1282   1.084   .     S
C1234  C1400   1.399   1_455 S
C1235  C1275   1.396   .     A
C1235  C1244   1.435   .     S
C1235  C1440   1.399   1_455 S
C1236  C1274   1.396   .     A
C1236  C1316   1.399   .     S
C1237  C1259   1.470   .     S
C1237  N1304   1.393   .     A
C1237  C1239   1.417   .     A
C1238  C1265   1.470   .     S
C1238  N1303   1.393   .     A
C1238  C1240   1.417   .     A
C1239  N1303   1.353   .     A
C1239  H1283   1.082   .     S
C1240  H1284   1.082   .     S
C1240  N1304   1.353   .     A
C1241  O1311   1.308   .     A
C1241  C1243   1.469   .     S
C1241  O1391   1.304   .     S
C1242  C1245   1.469   .     S
C1242  O1312   1.308   .     A
C1242  O1474   1.304   1_455 S
C1243  C1248   1.401   .     A
C1243  C1250   1.393   .     A
C1244  O1308   1.302   .     A
C1244  O1470   1.294   1_455 S
C1245  C1249   1.401   .     A
C1245  C1251   1.393   .     A
C1246  C1254   1.405   .     A
C1246  H1300   1.083   .     S
C1246  C1248   1.396   .     A
C1247  C1256   1.405   .     A
C1247  H1301   1.083   .     S
C1247  C1249   1.396   .     A
C1248  H1381   1.083   .     S
C1249  H1462   1.083   1_455 S
C1250  H1297   1.066   .     S
C1250  C1252   1.396   .     A
C1251  H1296   1.066   .     S
C1251  C1253   1.396   .     A
C1252  C1257   1.423   .     A
C1252  C1254   1.413   .     A
C1253  C1256   1.413   .     A
C1253  C1258   1.423   .     A
C1254  C534    1.390   1_556 S
C1255  C1258   1.429   .     A
C1255  C1272   1.391   .     A
C1257  C1266   1.429   .     A
C1257  C520    1.427   1_556 S
C1259  C1264   1.399   .     A
C1259  C1260   1.406   .     A
C1260  C1261   1.399   .     A
C1260  H1285   1.083   .     S
C1261  C1262   1.397   .     A
C1262  C1263   1.397   .     A
C1263  H1288   1.082   .     S
C1263  C1264   1.398   .     A
C1264  H1289   1.074   .     S
C1265  C1267   1.406   .     A
C1265  C1271   1.399   .     A
C1266  C1273   1.391   .     A
C1267  C1268   1.399   .     A
C1267  H1291   1.083   .     S
C1268  C1269   1.397   .     A
C1268  H800    1.082   1_565 S
C1269  C1270   1.397   .     A
C1269  H801    1.082   1_565 S
C1270  C1271   1.398   .     A
C1270  H1294   1.082   .     S
C1271  H1295   1.074   .     S
C1272  H1279   1.083   .     S
C1273  H1290   1.083   .     S
C1273  C518    1.390   1_556 S
C1274  H1302   1.084   .     S
C1275  H1280   1.084   .     S
C1275  C742    1.386   1_565 S
C1276  H1281   1.084   .     S
C1276  C1317   1.399   .     S
C1276  C782    1.386   1_565 S
Cu1277 O1309   1.955   .     S
Cu1277 O1312   1.949   .     S
Cu1277 N1303   2.039   .     S
Cu1277 O1305   1.937   .     S
Cu1277 O1308   1.950   .     S
Cu1277 Cu1442  2.713   1_455 S
Cu1278 O1306   1.937   .     S
Cu1278 O1311   1.949   .     S
Cu1278 N1304   2.039   .     S
Cu1278 O1307   1.950   .     S
Cu1278 O1310   1.955   .     S
Cu1278 Cu1359  2.713   .     S
H1286  C769    1.082   1_565 S
H1287  C770    1.082   1_565 S
H1298  C1331   1.083   .     S
H1299  C1412   1.083   1_455 S
O1305  C1397   1.294   1_455 S
O1306  C1326   1.294   .     S
O1309  C1405   1.304   1_455 S
O1310  C1324   1.304   .     S
Br1313 C1337   1.933   .     S
Br1314 C1348   1.933   .     S
C1315  C1318   1.435   .     S
C1315  O1389   1.302   .     A
C1315  O1469   1.294   .     S
C1316  H1364   1.084   .     S
C1317  C1357   1.396   .     A
C1317  C1326   1.435   .     S
C1318  C1356   1.396   .     A
C1318  C1398   1.399   .     S
C1319  C1341   1.470   .     S
C1319  N1386   1.393   .     A
C1319  C1321   1.417   .     A
C1320  C1347   1.470   .     S
C1320  N1385   1.393   .     A
C1320  C1322   1.417   .     A
C1321  N1385   1.353   .     A
C1321  H1365   1.082   .     S
C1322  H1366   1.082   .     S
C1322  N1386   1.353   .     A
C1323  O1393   1.308   .     A
C1323  C1325   1.469   .     S
C1323  O1473   1.304   .     S
C1324  C1327   1.469   .     S
C1324  O1394   1.308   .     A
C1325  C1330   1.401   .     A
C1325  C1332   1.393   .     A
C1326  O1390   1.302   .     A
C1327  C1331   1.401   .     A
C1327  C1333   1.393   .     A
C1328  C1336   1.405   .     A
C1328  H1382   1.083   .     S
C1328  C1330   1.396   .     A
C1329  C1338   1.405   .     A
C1329  H1383   1.083   .     S
C1329  C1331   1.396   .     A
C1330  H1463   1.083   .     S
C1332  H1379   1.066   .     S
C1332  C1334   1.396   .     A
C1333  H1378   1.066   .     S
C1333  C1335   1.396   .     A
C1334  C1339   1.423   .     A
C1334  C1336   1.413   .     A
C1335  C1338   1.413   .     A
C1335  C1340   1.423   .     A
C1336  C616    1.390   1_556 S
C1337  C1340   1.429   .     A
C1337  C1354   1.391   .     A
C1339  C1348   1.429   .     A
C1339  C602    1.427   1_556 S
C1341  C1346   1.399   .     A
C1341  C1342   1.406   .     A
C1342  C1343   1.399   .     A
C1342  H1367   1.083   .     S
C1343  C1344   1.397   .     A
C1344  C1345   1.397   .     A
C1345  H1370   1.082   .     S
C1345  C1346   1.398   .     A
C1346  H1371   1.074   .     S
C1347  C1349   1.406   .     A
C1347  C1353   1.399   .     A
C1348  C1355   1.391   .     A
C1349  C1350   1.399   .     A
C1349  H1373   1.083   .     S
C1350  C1351   1.397   .     A
C1350  H882    1.082   1_565 S
C1351  C1352   1.397   .     A
C1351  H883    1.082   1_565 S
C1352  C1353   1.398   .     A
C1352  H1376   1.082   .     S
C1353  H1377   1.074   .     S
C1354  H1361   1.083   .     S
C1355  H1372   1.083   .     S
C1355  C600    1.390   1_556 S
C1356  H1384   1.084   .     S
C1357  H1362   1.084   .     S
C1357  C824    1.386   1_565 S
C1358  H1363   1.084   .     S
C1358  C1399   1.399   .     S
C1358  C864    1.386   1_565 S
Cu1359 O1391   1.955   .     S
Cu1359 O1394   1.949   .     S
Cu1359 N1385   2.039   .     S
Cu1359 O1387   1.937   .     S
Cu1359 O1390   1.950   .     S
Cu1360 O1388   1.937   .     S
Cu1360 O1393   1.949   .     S
Cu1360 N1386   2.039   .     S
Cu1360 O1389   1.950   .     S
Cu1360 O1392   1.955   .     S
Cu1360 Cu1441  2.713   .     S
H1368  C851    1.082   1_565 S
H1369  C852    1.082   1_565 S
H1380  C1413   1.083   .     S
O1388  C1408   1.294   .     S
O1392  C1406   1.304   .     S
Br1395 C1419   1.933   .     S
Br1396 C1430   1.933   .     S
C1397  C1400   1.435   .     S
C1397  O1471   1.302   .     A
C1397  O1305   1.294   1_655 S
C1398  H1446   1.084   .     S
C1399  C1439   1.396   .     A
C1399  C1408   1.435   .     S
C1400  C1438   1.396   .     A
C1400  C1234   1.399   1_655 S
C1401  C1423   1.470   .     S
C1401  N1468   1.393   .     A
C1401  C1403   1.417   .     A
C1402  C1429   1.470   .     S
C1402  N1467   1.393   .     A
C1402  C1404   1.417   .     A
C1403  N1467   1.353   .     A
C1403  H1447   1.082   .     S
C1404  H1448   1.082   .     S
C1404  N1468   1.353   .     A
C1405  O1475   1.308   .     A
C1405  C1407   1.469   .     S
C1405  O1309   1.304   1_655 S
C1406  C1409   1.469   .     S
C1406  O1476   1.308   .     A
C1407  C1412   1.401   .     A
C1407  C1414   1.393   .     A
C1408  O1472   1.302   .     A
C1409  C1413   1.401   .     A
C1409  C1415   1.393   .     A
C1410  C1418   1.405   .     A
C1410  H1464   1.083   .     S
C1410  C1412   1.396   .     A
C1411  C1420   1.405   .     A
C1411  H1465   1.083   .     S
C1411  C1413   1.396   .     A
C1412  H1299   1.083   1_655 S
C1414  H1461   1.066   .     S
C1414  C1416   1.396   .     A
C1415  H1460   1.066   .     S
C1415  C1417   1.396   .     A
C1416  C1421   1.423   .     A
C1416  C1418   1.413   .     A
C1417  C1420   1.413   .     A
C1417  C1422   1.423   .     A
C1418  C698    1.390   1_556 S
C1419  C1422   1.429   .     A
C1419  C1436   1.391   .     A
C1421  C1430   1.429   .     A
C1421  C684    1.427   1_556 S
C1423  C1428   1.399   .     A
C1423  C1424   1.406   .     A
C1424  C1425   1.399   .     A
C1424  H1449   1.083   .     S
C1425  C1426   1.397   .     A
C1426  C1427   1.397   .     A
C1427  H1452   1.082   .     S
C1427  C1428   1.398   .     A
C1428  H1453   1.074   .     S
C1429  C1431   1.406   .     A
C1429  C1435   1.399   .     A
C1430  C1437   1.391   .     A
C1431  C1432   1.399   .     A
C1431  H1455   1.083   .     S
C1432  C1433   1.397   .     A
C1432  H964    1.082   1_565 S
C1433  C1434   1.397   .     A
C1433  H965    1.082   1_565 S
C1434  C1435   1.398   .     A
C1434  H1458   1.082   .     S
C1435  H1459   1.074   .     S
C1436  H1443   1.083   .     S
C1437  H1454   1.083   .     S
C1437  C682    1.390   1_556 S
C1438  H1466   1.084   .     S
C1439  H1444   1.084   .     S
C1439  C906    1.386   1_565 S
C1440  H1445   1.084   .     S
C1440  C1235   1.399   1_655 S
C1440  C946    1.386   1_565 S
Cu1441 O1473   1.955   .     S
Cu1441 O1476   1.949   .     S
Cu1441 N1467   2.039   .     S
Cu1441 O1469   1.937   .     S
Cu1441 O1472   1.950   .     S
Cu1442 O1470   1.937   .     S
Cu1442 O1475   1.949   .     S
Cu1442 N1468   2.039   .     S
Cu1442 O1471   1.950   .     S
Cu1442 O1474   1.955   .     S
Cu1442 Cu1277  2.713   1_655 S
H1450  C933    1.082   1_565 S
H1451  C934    1.082   1_565 S
H1462  C1249   1.083   1_655 S
O1470  C1244   1.294   1_655 S
O1474  C1242   1.304   1_655 S
