data_str_m2_o1_o17_pcu_sym.126
_audit_creation_date              2020-01-03
_audit_creation_method            'Materials Studio'
_symmetry_space_group_name_H-M    'P1'
_symmetry_Int_Tables_number       1
_symmetry_cell_setting            triclinic
loop_
_symmetry_equiv_pos_as_xyz
  x,y,z
_cell_length_a                    32.6410
_cell_length_b                    29.0330
_cell_length_c                    30.1329
_cell_angle_alpha                 89.7771
_cell_angle_beta                  89.9722
_cell_angle_gamma                 89.1002
loop_
_atom_site_label
_atom_site_type_symbol
_atom_site_fract_x
_atom_site_fract_y
_atom_site_fract_z
_atom_site_U_iso_or_equiv
_atom_site_adp_type
_atom_site_occupancy
C1     C     0.08752   0.16662   0.25127   0.00000  Uiso   1.00
C2     C     0.24576   0.16626   0.25118   0.00000  Uiso   1.00
C3     C     0.09413   0.15074   0.02177   0.00000  Uiso   1.00
C4     C     0.24103   0.18347   0.47777   0.00000  Uiso   1.00
C5     C     0.02191   0.12980   0.23025   0.00000  Uiso   1.00
C6     C     0.31122   0.20023   0.27521   0.00000  Uiso   1.00
C7     C     0.31238   0.12790   0.23413   0.00000  Uiso   1.00
C8     C     0.02089   0.19774   0.27815   0.00000  Uiso   1.00
C9     C     0.29049   0.16511   0.25305   0.00000  Uiso   1.00
C10    C     0.04268   0.16555   0.25223   0.00000  Uiso   1.00
C11    C     0.17700   0.02427   0.21262   0.00000  Uiso   1.00
C12    C     0.15269   0.30892   0.28573   0.00000  Uiso   1.00
C13    C     0.15879   0.02423   0.28771   0.00000  Uiso   1.00
C14    C     0.18095   0.30838   0.21424   0.00000  Uiso   1.00
C15    C     0.16595   0.16696   0.16452   0.00000  Uiso   1.00
C16    C     0.16684   0.16634   0.33526   0.00000  Uiso   1.00
C17    C     0.20444   0.17390   0.40582   0.00000  Uiso   1.00
C18    C     0.12856   0.17047   0.09133   0.00000  Uiso   1.00
C19    C     0.16767   0.16463   0.38341   0.00000  Uiso   1.00
C20    C     0.16575   0.16778   0.11593   0.00000  Uiso   1.00
C21    C     0.13312   0.14943   0.40642   0.00000  Uiso   1.00
C22    C     0.20363   0.16696   0.09354   0.00000  Uiso   1.00
C23    C     0.13235   0.15275   0.45270   0.00000  Uiso   1.00
C24    C     0.20431   0.16997   0.04693   0.00000  Uiso   1.00
C25    C     0.16851   0.16367   0.47608   0.00000  Uiso   1.00
C26    C     0.16770   0.16441   0.02296   0.00000  Uiso   1.00
C27    C     0.20528   0.17372   0.45282   0.00000  Uiso   1.00
C28    C     0.12999   0.16095   0.04577   0.00000  Uiso   1.00
C29    C     0.09590   0.14575   0.47609   0.00000  Uiso   1.00
C30    C     0.24047   0.17938   0.02384   0.00000  Uiso   1.00
Cu31   Cu    0.16667   0.21355   0.25000   0.00000  Uiso   1.00
Cu32   Cu    0.16667   0.11978   0.25000   0.00000  Uiso   1.00
H33    H     0.06776   0.13789   0.45913   0.00000  Uiso   1.00
H34    H     0.26847   0.18636   0.04144   0.00000  Uiso   1.00
N35    N     0.16667   0.28402   0.25000   0.00000  Uiso   1.00
N36    N     0.16667   0.04931   0.25000   0.00000  Uiso   1.00
O37    O     0.10655   0.20625   0.24999   0.00000  Uiso   1.00
O38    O     0.22679   0.12709   0.25000   0.00000  Uiso   1.00
O39    O     0.22679   0.20625   0.25000   0.00000  Uiso   1.00
O40    O     0.10655   0.12709   0.24999   0.00000  Uiso   1.00
O41    O     0.16666   0.20627   0.18513   0.00000  Uiso   1.00
O42    O     0.16668   0.12707   0.31487   0.00000  Uiso   1.00
O43    O     0.16668   0.20627   0.31487   0.00000  Uiso   1.00
O44    O     0.16666   0.12707   0.18513   0.00000  Uiso   1.00
O45    O     0.23952   0.18118   0.38116   0.00000  Uiso   1.00
C46    C     0.25775   0.13793   0.37120   0.00000  Uiso   1.00
H47    H     0.23894   0.11834   0.34748   0.00000  Uiso   1.00
H48    H     0.26370   0.11701   0.40164   0.00000  Uiso   1.00
H49    H     0.28755   0.14359   0.35480   0.00000  Uiso   1.00
O50    O     0.09483   0.19663   0.10512   0.00000  Uiso   1.00
C51    C     0.07907   0.18323   0.14636   0.00000  Uiso   1.00
H52    H     0.08818   0.20892   0.17121   0.00000  Uiso   1.00
H53    H     0.08813   0.14766   0.15633   0.00000  Uiso   1.00
H54    H     0.04516   0.18495   0.14468   0.00000  Uiso   1.00
I55    I     0.08476   0.11557   0.37135   0.00000  Uiso   1.00
I56    I     0.25951   0.16306   0.13073   0.00000  Uiso   1.00
I57    I     0.03636   0.13555   0.05068   0.00000  Uiso   1.00
I58    I     0.29759   0.20860   0.45262   0.00000  Uiso   1.00
O59    O     0.04462   0.09454   0.21002   0.00000  Uiso   1.00
C60    C     0.02922   0.08268   0.16775   0.00000  Uiso   1.00
H61    H     0.05538   0.07416   0.14567   0.00000  Uiso   1.00
H62    H     0.01133   0.11091   0.15141   0.00000  Uiso   1.00
H63    H     0.01058   0.05116   0.17024   0.00000  Uiso   1.00
O64    O     0.28881   0.23251   0.29935   0.00000  Uiso   1.00
C65    C     0.29787   0.27761   0.28510   0.00000  Uiso   1.00
H66    H     0.26949   0.29884   0.28819   0.00000  Uiso   1.00
H67    H     0.30856   0.27976   0.25003   0.00000  Uiso   1.00
H68    H     0.32119   0.29308   0.30696   0.00000  Uiso   1.00
O69    O     0.29155   0.09060   0.21762   0.00000  Uiso   1.00
C70    C     0.29282   0.05510   0.24967   0.00000  Uiso   1.00
H71    H     0.27169   0.02793   0.23884   0.00000  Uiso   1.00
H72    H     0.28218   0.06711   0.28287   0.00000  Uiso   1.00
H73    H     0.32409   0.03963   0.25232   0.00000  Uiso   1.00
O74    O     0.04211   0.22509   0.30752   0.00000  Uiso   1.00
C75    C     0.02963   0.21622   0.35176   0.00000  Uiso   1.00
H76    H     0.05699   0.21547   0.37350   0.00000  Uiso   1.00
H77    H     0.01424   0.18268   0.35662   0.00000  Uiso   1.00
H78    H     0.00925   0.24443   0.36371   0.00000  Uiso   1.00
O79    O     0.18742   0.04657   0.17382   0.00000  Uiso   1.00
C80    C     0.15585   0.04065   0.14232   0.00000  Uiso   1.00
H81    H     0.12539   0.05093   0.15598   0.00000  Uiso   1.00
H82    H     0.15503   0.00478   0.12980   0.00000  Uiso   1.00
H83    H     0.16192   0.06326   0.11337   0.00000  Uiso   1.00
O84    O     0.13585   0.28627   0.32164   0.00000  Uiso   1.00
C85    C     0.09618   0.30428   0.33040   0.00000  Uiso   1.00
H86    H     0.08303   0.28469   0.35821   0.00000  Uiso   1.00
H87    H     0.07599   0.30174   0.30081   0.00000  Uiso   1.00
H88    H     0.09618   0.00692   0.34226   0.00000  Uiso   1.00
O89    O     0.15678   0.04579   0.32827   0.00000  Uiso   1.00
C90    C     0.19175   0.03325   0.35343   0.00000  Uiso   1.00
H91    H     0.22064   0.03805   0.33435   0.00000  Uiso   1.00
H92    H     0.18995   0.33050   0.36559   0.00000  Uiso   1.00
H93    H     0.19299   0.05581   0.38301   0.00000  Uiso   1.00
O94    O     0.19531   0.28505   0.17740   0.00000  Uiso   1.00
C95    C     0.23813   0.28952   0.17438   0.00000  Uiso   1.00
H96    H     0.25354   0.27361   0.20346   0.00000  Uiso   1.00
H97    H     0.24745   0.32592   0.17038   0.00000  Uiso   1.00
H98    H     0.24895   0.27087   0.14446   0.00000  Uiso   1.00
C99    C     0.42085   0.16662   0.25127   0.00000  Uiso   1.00
C100   C     0.57910   0.16626   0.25118   0.00000  Uiso   1.00
C101   C     0.42746   0.15074   0.02177   0.00000  Uiso   1.00
C102   C     0.57437   0.18347   0.47777   0.00000  Uiso   1.00
C103   C     0.35524   0.12980   0.23025   0.00000  Uiso   1.00
C104   C     0.64456   0.20023   0.27521   0.00000  Uiso   1.00
C105   C     0.64571   0.12790   0.23413   0.00000  Uiso   1.00
C106   C     0.35423   0.19774   0.27815   0.00000  Uiso   1.00
C107   C     0.62383   0.16511   0.25305   0.00000  Uiso   1.00
C108   C     0.37601   0.16555   0.25223   0.00000  Uiso   1.00
C109   C     0.51033   0.02427   0.21262   0.00000  Uiso   1.00
C110   C     0.48602   0.30892   0.28573   0.00000  Uiso   1.00
C111   C     0.49213   0.02423   0.28771   0.00000  Uiso   1.00
C112   C     0.51429   0.30838   0.21424   0.00000  Uiso   1.00
C113   C     0.49929   0.16696   0.16452   0.00000  Uiso   1.00
C114   C     0.50018   0.16634   0.33526   0.00000  Uiso   1.00
C115   C     0.53777   0.17390   0.40582   0.00000  Uiso   1.00
C116   C     0.46189   0.17047   0.09133   0.00000  Uiso   1.00
C117   C     0.50100   0.16463   0.38341   0.00000  Uiso   1.00
C118   C     0.49908   0.16778   0.11593   0.00000  Uiso   1.00
C119   C     0.46646   0.14943   0.40642   0.00000  Uiso   1.00
C120   C     0.53697   0.16696   0.09354   0.00000  Uiso   1.00
C121   C     0.46568   0.15275   0.45270   0.00000  Uiso   1.00
C122   C     0.53764   0.16997   0.04693   0.00000  Uiso   1.00
C123   C     0.50184   0.16367   0.47608   0.00000  Uiso   1.00
C124   C     0.50103   0.16441   0.02296   0.00000  Uiso   1.00
C125   C     0.53861   0.17372   0.45282   0.00000  Uiso   1.00
C126   C     0.46332   0.16095   0.04577   0.00000  Uiso   1.00
C127   C     0.42924   0.14575   0.47609   0.00000  Uiso   1.00
C128   C     0.57380   0.17938   0.02384   0.00000  Uiso   1.00
Cu129  Cu    0.50000   0.21355   0.25000   0.00000  Uiso   1.00
Cu130  Cu    0.50000   0.11978   0.25000   0.00000  Uiso   1.00
H131   H     0.40109   0.13789   0.45913   0.00000  Uiso   1.00
H132   H     0.60181   0.18636   0.04144   0.00000  Uiso   1.00
N133   N     0.50000   0.28402   0.25000   0.00000  Uiso   1.00
N134   N     0.50000   0.04931   0.25000   0.00000  Uiso   1.00
O135   O     0.43988   0.20625   0.24999   0.00000  Uiso   1.00
O136   O     0.56012   0.12709   0.25000   0.00000  Uiso   1.00
O137   O     0.56012   0.20625   0.25000   0.00000  Uiso   1.00
O138   O     0.43988   0.12709   0.24999   0.00000  Uiso   1.00
O139   O     0.49999   0.20627   0.18513   0.00000  Uiso   1.00
O140   O     0.50001   0.12707   0.31487   0.00000  Uiso   1.00
O141   O     0.50001   0.20627   0.31487   0.00000  Uiso   1.00
O142   O     0.49999   0.12707   0.18513   0.00000  Uiso   1.00
O143   O     0.57285   0.18118   0.38116   0.00000  Uiso   1.00
C144   C     0.59108   0.13793   0.37120   0.00000  Uiso   1.00
H145   H     0.57228   0.11834   0.34748   0.00000  Uiso   1.00
H146   H     0.59703   0.11701   0.40164   0.00000  Uiso   1.00
H147   H     0.62088   0.14359   0.35480   0.00000  Uiso   1.00
O148   O     0.42816   0.19663   0.10512   0.00000  Uiso   1.00
C149   C     0.41241   0.18323   0.14636   0.00000  Uiso   1.00
H150   H     0.42152   0.20892   0.17121   0.00000  Uiso   1.00
H151   H     0.42147   0.14766   0.15633   0.00000  Uiso   1.00
H152   H     0.37849   0.18495   0.14468   0.00000  Uiso   1.00
I153   I     0.41809   0.11557   0.37135   0.00000  Uiso   1.00
I154   I     0.59284   0.16306   0.13073   0.00000  Uiso   1.00
I155   I     0.36970   0.13555   0.05068   0.00000  Uiso   1.00
I156   I     0.63092   0.20860   0.45262   0.00000  Uiso   1.00
O157   O     0.37795   0.09454   0.21002   0.00000  Uiso   1.00
C158   C     0.36256   0.08268   0.16775   0.00000  Uiso   1.00
H159   H     0.38872   0.07416   0.14567   0.00000  Uiso   1.00
H160   H     0.34466   0.11091   0.15141   0.00000  Uiso   1.00
H161   H     0.34391   0.05116   0.17024   0.00000  Uiso   1.00
O162   O     0.62215   0.23251   0.29935   0.00000  Uiso   1.00
C163   C     0.63120   0.27761   0.28510   0.00000  Uiso   1.00
H164   H     0.60282   0.29884   0.28819   0.00000  Uiso   1.00
H165   H     0.64190   0.27976   0.25003   0.00000  Uiso   1.00
H166   H     0.65452   0.29308   0.30696   0.00000  Uiso   1.00
O167   O     0.62489   0.09060   0.21762   0.00000  Uiso   1.00
C168   C     0.62615   0.05510   0.24967   0.00000  Uiso   1.00
H169   H     0.60502   0.02793   0.23884   0.00000  Uiso   1.00
H170   H     0.61551   0.06711   0.28287   0.00000  Uiso   1.00
H171   H     0.65743   0.03963   0.25232   0.00000  Uiso   1.00
O172   O     0.37545   0.22509   0.30752   0.00000  Uiso   1.00
C173   C     0.36296   0.21622   0.35176   0.00000  Uiso   1.00
H174   H     0.39032   0.21547   0.37350   0.00000  Uiso   1.00
H175   H     0.34758   0.18268   0.35662   0.00000  Uiso   1.00
H176   H     0.34259   0.24443   0.36371   0.00000  Uiso   1.00
O177   O     0.52076   0.04657   0.17382   0.00000  Uiso   1.00
C178   C     0.48918   0.04065   0.14232   0.00000  Uiso   1.00
H179   H     0.45872   0.05093   0.15598   0.00000  Uiso   1.00
H180   H     0.48837   0.00478   0.12980   0.00000  Uiso   1.00
H181   H     0.49526   0.06326   0.11337   0.00000  Uiso   1.00
O182   O     0.46918   0.28627   0.32164   0.00000  Uiso   1.00
C183   C     0.42952   0.30428   0.33040   0.00000  Uiso   1.00
H184   H     0.41636   0.28469   0.35821   0.00000  Uiso   1.00
H185   H     0.40932   0.30174   0.30081   0.00000  Uiso   1.00
H186   H     0.42951   0.00692   0.34226   0.00000  Uiso   1.00
O187   O     0.49011   0.04579   0.32827   0.00000  Uiso   1.00
C188   C     0.52509   0.03325   0.35343   0.00000  Uiso   1.00
H189   H     0.55397   0.03805   0.33435   0.00000  Uiso   1.00
H190   H     0.52328   0.33050   0.36559   0.00000  Uiso   1.00
H191   H     0.52632   0.05581   0.38301   0.00000  Uiso   1.00
O192   O     0.52864   0.28505   0.17740   0.00000  Uiso   1.00
C193   C     0.57146   0.28952   0.17438   0.00000  Uiso   1.00
H194   H     0.58687   0.27361   0.20346   0.00000  Uiso   1.00
H195   H     0.58078   0.32592   0.17038   0.00000  Uiso   1.00
H196   H     0.58228   0.27087   0.14446   0.00000  Uiso   1.00
C197   C     0.75418   0.16662   0.25127   0.00000  Uiso   1.00
C198   C     0.91243   0.16626   0.25118   0.00000  Uiso   1.00
C199   C     0.76080   0.15074   0.02177   0.00000  Uiso   1.00
C200   C     0.90770   0.18347   0.47777   0.00000  Uiso   1.00
C201   C     0.68858   0.12980   0.23025   0.00000  Uiso   1.00
C202   C     0.97789   0.20023   0.27521   0.00000  Uiso   1.00
C203   C     0.97904   0.12790   0.23413   0.00000  Uiso   1.00
C204   C     0.68756   0.19774   0.27815   0.00000  Uiso   1.00
C205   C     0.95716   0.16511   0.25305   0.00000  Uiso   1.00
C206   C     0.70935   0.16555   0.25223   0.00000  Uiso   1.00
C207   C     0.84366   0.02427   0.21262   0.00000  Uiso   1.00
C208   C     0.81936   0.30892   0.28573   0.00000  Uiso   1.00
C209   C     0.82546   0.02423   0.28771   0.00000  Uiso   1.00
C210   C     0.84762   0.30838   0.21424   0.00000  Uiso   1.00
C211   C     0.83262   0.16696   0.16452   0.00000  Uiso   1.00
C212   C     0.83351   0.16634   0.33526   0.00000  Uiso   1.00
C213   C     0.87110   0.17390   0.40582   0.00000  Uiso   1.00
C214   C     0.79522   0.17047   0.09133   0.00000  Uiso   1.00
C215   C     0.83434   0.16463   0.38341   0.00000  Uiso   1.00
C216   C     0.83242   0.16778   0.11593   0.00000  Uiso   1.00
C217   C     0.79979   0.14943   0.40642   0.00000  Uiso   1.00
C218   C     0.87030   0.16696   0.09354   0.00000  Uiso   1.00
C219   C     0.79902   0.15275   0.45270   0.00000  Uiso   1.00
C220   C     0.87097   0.16997   0.04693   0.00000  Uiso   1.00
C221   C     0.83518   0.16367   0.47608   0.00000  Uiso   1.00
C222   C     0.83437   0.16441   0.02296   0.00000  Uiso   1.00
C223   C     0.87194   0.17372   0.45282   0.00000  Uiso   1.00
C224   C     0.79665   0.16095   0.04577   0.00000  Uiso   1.00
C225   C     0.76257   0.14575   0.47609   0.00000  Uiso   1.00
C226   C     0.90713   0.17938   0.02384   0.00000  Uiso   1.00
Cu227  Cu    0.83333   0.21355   0.25000   0.00000  Uiso   1.00
Cu228  Cu    0.83333   0.11978   0.25000   0.00000  Uiso   1.00
H229   H     0.73442   0.13789   0.45913   0.00000  Uiso   1.00
H230   H     0.93514   0.18636   0.04144   0.00000  Uiso   1.00
N231   N     0.83333   0.28402   0.25000   0.00000  Uiso   1.00
N232   N     0.83333   0.04931   0.25000   0.00000  Uiso   1.00
O233   O     0.77321   0.20625   0.24999   0.00000  Uiso   1.00
O234   O     0.89345   0.12709   0.25000   0.00000  Uiso   1.00
O235   O     0.89345   0.20625   0.25000   0.00000  Uiso   1.00
O236   O     0.77321   0.12709   0.24999   0.00000  Uiso   1.00
O237   O     0.83332   0.20627   0.18513   0.00000  Uiso   1.00
O238   O     0.83334   0.12707   0.31487   0.00000  Uiso   1.00
O239   O     0.83334   0.20627   0.31487   0.00000  Uiso   1.00
O240   O     0.83332   0.12707   0.18513   0.00000  Uiso   1.00
O241   O     0.90618   0.18118   0.38116   0.00000  Uiso   1.00
C242   C     0.92441   0.13793   0.37120   0.00000  Uiso   1.00
H243   H     0.90561   0.11834   0.34748   0.00000  Uiso   1.00
H244   H     0.93036   0.11701   0.40164   0.00000  Uiso   1.00
H245   H     0.95422   0.14359   0.35480   0.00000  Uiso   1.00
O246   O     0.76150   0.19663   0.10512   0.00000  Uiso   1.00
C247   C     0.74574   0.18323   0.14636   0.00000  Uiso   1.00
H248   H     0.75485   0.20892   0.17121   0.00000  Uiso   1.00
H249   H     0.75480   0.14766   0.15633   0.00000  Uiso   1.00
H250   H     0.71182   0.18495   0.14468   0.00000  Uiso   1.00
I251   I     0.75142   0.11557   0.37135   0.00000  Uiso   1.00
I252   I     0.92618   0.16306   0.13073   0.00000  Uiso   1.00
I253   I     0.70303   0.13555   0.05068   0.00000  Uiso   1.00
I254   I     0.96426   0.20860   0.45262   0.00000  Uiso   1.00
O255   O     0.71129   0.09454   0.21002   0.00000  Uiso   1.00
C256   C     0.69589   0.08268   0.16775   0.00000  Uiso   1.00
H257   H     0.72205   0.07416   0.14567   0.00000  Uiso   1.00
H258   H     0.67799   0.11091   0.15141   0.00000  Uiso   1.00
H259   H     0.67725   0.05116   0.17024   0.00000  Uiso   1.00
O260   O     0.95548   0.23251   0.29935   0.00000  Uiso   1.00
C261   C     0.96453   0.27761   0.28510   0.00000  Uiso   1.00
H262   H     0.93615   0.29884   0.28819   0.00000  Uiso   1.00
H263   H     0.97523   0.27976   0.25003   0.00000  Uiso   1.00
H264   H     0.98786   0.29308   0.30696   0.00000  Uiso   1.00
O265   O     0.95822   0.09060   0.21762   0.00000  Uiso   1.00
C266   C     0.95948   0.05510   0.24967   0.00000  Uiso   1.00
H267   H     0.93835   0.02793   0.23884   0.00000  Uiso   1.00
H268   H     0.94885   0.06711   0.28287   0.00000  Uiso   1.00
H269   H     0.99076   0.03963   0.25232   0.00000  Uiso   1.00
O270   O     0.70878   0.22509   0.30752   0.00000  Uiso   1.00
C271   C     0.69630   0.21622   0.35176   0.00000  Uiso   1.00
H272   H     0.72366   0.21547   0.37350   0.00000  Uiso   1.00
H273   H     0.68091   0.18268   0.35662   0.00000  Uiso   1.00
H274   H     0.67592   0.24443   0.36371   0.00000  Uiso   1.00
O275   O     0.85409   0.04657   0.17382   0.00000  Uiso   1.00
C276   C     0.82252   0.04065   0.14232   0.00000  Uiso   1.00
H277   H     0.79205   0.05093   0.15598   0.00000  Uiso   1.00
H278   H     0.82170   0.00478   0.12980   0.00000  Uiso   1.00
H279   H     0.82859   0.06326   0.11337   0.00000  Uiso   1.00
O280   O     0.80251   0.28627   0.32164   0.00000  Uiso   1.00
C281   C     0.76285   0.30428   0.33040   0.00000  Uiso   1.00
H282   H     0.74970   0.28469   0.35821   0.00000  Uiso   1.00
H283   H     0.74266   0.30174   0.30081   0.00000  Uiso   1.00
H284   H     0.76284   0.00692   0.34226   0.00000  Uiso   1.00
O285   O     0.82345   0.04579   0.32827   0.00000  Uiso   1.00
C286   C     0.85842   0.03325   0.35343   0.00000  Uiso   1.00
H287   H     0.88731   0.03805   0.33435   0.00000  Uiso   1.00
H288   H     0.85661   0.33050   0.36559   0.00000  Uiso   1.00
H289   H     0.85965   0.05581   0.38301   0.00000  Uiso   1.00
O290   O     0.86197   0.28505   0.17740   0.00000  Uiso   1.00
C291   C     0.90480   0.28952   0.17438   0.00000  Uiso   1.00
H292   H     0.92020   0.27361   0.20346   0.00000  Uiso   1.00
H293   H     0.91412   0.32592   0.17038   0.00000  Uiso   1.00
H294   H     0.91561   0.27087   0.14446   0.00000  Uiso   1.00
C295   C     0.08752   0.49995   0.25127   0.00000  Uiso   1.00
C296   C     0.24576   0.49960   0.25118   0.00000  Uiso   1.00
C297   C     0.09413   0.48407   0.02177   0.00000  Uiso   1.00
C298   C     0.24103   0.51680   0.47777   0.00000  Uiso   1.00
C299   C     0.02191   0.46313   0.23025   0.00000  Uiso   1.00
C300   C     0.31122   0.53357   0.27521   0.00000  Uiso   1.00
C301   C     0.31238   0.46123   0.23413   0.00000  Uiso   1.00
C302   C     0.02089   0.53108   0.27815   0.00000  Uiso   1.00
C303   C     0.29049   0.49844   0.25305   0.00000  Uiso   1.00
C304   C     0.04268   0.49889   0.25223   0.00000  Uiso   1.00
C305   C     0.17700   0.35760   0.21262   0.00000  Uiso   1.00
C306   C     0.15269   0.64225   0.28573   0.00000  Uiso   1.00
C307   C     0.15879   0.35756   0.28771   0.00000  Uiso   1.00
C308   C     0.18095   0.64172   0.21424   0.00000  Uiso   1.00
C309   C     0.16595   0.50029   0.16452   0.00000  Uiso   1.00
C310   C     0.16684   0.49968   0.33526   0.00000  Uiso   1.00
C311   C     0.20444   0.50723   0.40582   0.00000  Uiso   1.00
C312   C     0.12856   0.50380   0.09133   0.00000  Uiso   1.00
C313   C     0.16767   0.49796   0.38341   0.00000  Uiso   1.00
C314   C     0.16575   0.50112   0.11593   0.00000  Uiso   1.00
C315   C     0.13312   0.48276   0.40642   0.00000  Uiso   1.00
C316   C     0.20363   0.50030   0.09354   0.00000  Uiso   1.00
C317   C     0.13235   0.48609   0.45270   0.00000  Uiso   1.00
C318   C     0.20431   0.50330   0.04693   0.00000  Uiso   1.00
C319   C     0.16851   0.49701   0.47608   0.00000  Uiso   1.00
C320   C     0.16770   0.49774   0.02296   0.00000  Uiso   1.00
C321   C     0.20528   0.50706   0.45282   0.00000  Uiso   1.00
C322   C     0.12999   0.49429   0.04577   0.00000  Uiso   1.00
C323   C     0.09590   0.47908   0.47609   0.00000  Uiso   1.00
C324   C     0.24047   0.51271   0.02384   0.00000  Uiso   1.00
Cu325  Cu    0.16667   0.54689   0.25000   0.00000  Uiso   1.00
Cu326  Cu    0.16667   0.45311   0.25000   0.00000  Uiso   1.00
H327   H     0.06776   0.47122   0.45913   0.00000  Uiso   1.00
H328   H     0.26847   0.51969   0.04144   0.00000  Uiso   1.00
N329   N     0.16667   0.61736   0.25000   0.00000  Uiso   1.00
N330   N     0.16667   0.38264   0.25000   0.00000  Uiso   1.00
O331   O     0.10655   0.53958   0.24999   0.00000  Uiso   1.00
O332   O     0.22679   0.46042   0.25000   0.00000  Uiso   1.00
O333   O     0.22679   0.53958   0.25000   0.00000  Uiso   1.00
O334   O     0.10655   0.46042   0.24999   0.00000  Uiso   1.00
O335   O     0.16666   0.53960   0.18513   0.00000  Uiso   1.00
O336   O     0.16668   0.46040   0.31487   0.00000  Uiso   1.00
O337   O     0.16668   0.53960   0.31487   0.00000  Uiso   1.00
O338   O     0.16666   0.46040   0.18513   0.00000  Uiso   1.00
O339   O     0.23952   0.51451   0.38116   0.00000  Uiso   1.00
C340   C     0.25775   0.47126   0.37120   0.00000  Uiso   1.00
H341   H     0.23894   0.45167   0.34748   0.00000  Uiso   1.00
H342   H     0.26370   0.45034   0.40164   0.00000  Uiso   1.00
H343   H     0.28755   0.47692   0.35480   0.00000  Uiso   1.00
O344   O     0.09483   0.52997   0.10512   0.00000  Uiso   1.00
C345   C     0.07907   0.51656   0.14636   0.00000  Uiso   1.00
H346   H     0.08818   0.54225   0.17121   0.00000  Uiso   1.00
H347   H     0.08813   0.48100   0.15633   0.00000  Uiso   1.00
H348   H     0.04516   0.51829   0.14468   0.00000  Uiso   1.00
I349   I     0.08476   0.44891   0.37135   0.00000  Uiso   1.00
I350   I     0.25951   0.49639   0.13073   0.00000  Uiso   1.00
I351   I     0.03636   0.46888   0.05068   0.00000  Uiso   1.00
I352   I     0.29759   0.54193   0.45262   0.00000  Uiso   1.00
O353   O     0.04462   0.42788   0.21002   0.00000  Uiso   1.00
C354   C     0.02922   0.41602   0.16775   0.00000  Uiso   1.00
H355   H     0.05538   0.40749   0.14567   0.00000  Uiso   1.00
H356   H     0.01133   0.44424   0.15141   0.00000  Uiso   1.00
H357   H     0.01058   0.38449   0.17024   0.00000  Uiso   1.00
O358   O     0.28881   0.56585   0.29935   0.00000  Uiso   1.00
C359   C     0.29787   0.61095   0.28510   0.00000  Uiso   1.00
H360   H     0.26949   0.63218   0.28819   0.00000  Uiso   1.00
H361   H     0.30856   0.61309   0.25003   0.00000  Uiso   1.00
H362   H     0.32119   0.62641   0.30696   0.00000  Uiso   1.00
O363   O     0.29155   0.42393   0.21762   0.00000  Uiso   1.00
C364   C     0.29282   0.38844   0.24967   0.00000  Uiso   1.00
H365   H     0.27169   0.36126   0.23884   0.00000  Uiso   1.00
H366   H     0.28218   0.40045   0.28287   0.00000  Uiso   1.00
H367   H     0.32409   0.37297   0.25232   0.00000  Uiso   1.00
O368   O     0.04211   0.55843   0.30752   0.00000  Uiso   1.00
C369   C     0.02963   0.54956   0.35176   0.00000  Uiso   1.00
H370   H     0.05699   0.54880   0.37350   0.00000  Uiso   1.00
H371   H     0.01424   0.51602   0.35662   0.00000  Uiso   1.00
H372   H     0.00925   0.57776   0.36371   0.00000  Uiso   1.00
O373   O     0.18742   0.37990   0.17382   0.00000  Uiso   1.00
C374   C     0.15585   0.37398   0.14232   0.00000  Uiso   1.00
H375   H     0.12539   0.38426   0.15598   0.00000  Uiso   1.00
H376   H     0.15503   0.33811   0.12980   0.00000  Uiso   1.00
H377   H     0.16192   0.39660   0.11337   0.00000  Uiso   1.00
O378   O     0.13585   0.61960   0.32164   0.00000  Uiso   1.00
C379   C     0.09618   0.63761   0.33040   0.00000  Uiso   1.00
H380   H     0.08303   0.61802   0.35821   0.00000  Uiso   1.00
H381   H     0.07599   0.63507   0.30081   0.00000  Uiso   1.00
H382   H     0.09618   0.34026   0.34226   0.00000  Uiso   1.00
O383   O     0.15678   0.37912   0.32827   0.00000  Uiso   1.00
C384   C     0.19175   0.36658   0.35343   0.00000  Uiso   1.00
H385   H     0.22064   0.37139   0.33435   0.00000  Uiso   1.00
H386   H     0.18995   0.66383   0.36559   0.00000  Uiso   1.00
H387   H     0.19299   0.38914   0.38301   0.00000  Uiso   1.00
O388   O     0.19531   0.61838   0.17740   0.00000  Uiso   1.00
C389   C     0.23813   0.62285   0.17438   0.00000  Uiso   1.00
H390   H     0.25354   0.60694   0.20346   0.00000  Uiso   1.00
H391   H     0.24745   0.65925   0.17038   0.00000  Uiso   1.00
H392   H     0.24895   0.60420   0.14446   0.00000  Uiso   1.00
C393   C     0.42085   0.49995   0.25127   0.00000  Uiso   1.00
C394   C     0.57910   0.49960   0.25118   0.00000  Uiso   1.00
C395   C     0.42746   0.48407   0.02177   0.00000  Uiso   1.00
C396   C     0.57437   0.51680   0.47777   0.00000  Uiso   1.00
C397   C     0.35524   0.46313   0.23025   0.00000  Uiso   1.00
C398   C     0.64456   0.53357   0.27521   0.00000  Uiso   1.00
C399   C     0.64571   0.46123   0.23413   0.00000  Uiso   1.00
C400   C     0.35423   0.53108   0.27815   0.00000  Uiso   1.00
C401   C     0.62383   0.49844   0.25305   0.00000  Uiso   1.00
C402   C     0.37601   0.49889   0.25223   0.00000  Uiso   1.00
C403   C     0.51033   0.35760   0.21262   0.00000  Uiso   1.00
C404   C     0.48602   0.64225   0.28573   0.00000  Uiso   1.00
C405   C     0.49213   0.35756   0.28771   0.00000  Uiso   1.00
C406   C     0.51429   0.64172   0.21424   0.00000  Uiso   1.00
C407   C     0.49929   0.50029   0.16452   0.00000  Uiso   1.00
C408   C     0.50018   0.49968   0.33526   0.00000  Uiso   1.00
C409   C     0.53777   0.50723   0.40582   0.00000  Uiso   1.00
C410   C     0.46189   0.50380   0.09133   0.00000  Uiso   1.00
C411   C     0.50100   0.49796   0.38341   0.00000  Uiso   1.00
C412   C     0.49908   0.50112   0.11593   0.00000  Uiso   1.00
C413   C     0.46646   0.48276   0.40642   0.00000  Uiso   1.00
C414   C     0.53697   0.50030   0.09354   0.00000  Uiso   1.00
C415   C     0.46568   0.48609   0.45270   0.00000  Uiso   1.00
C416   C     0.53764   0.50330   0.04693   0.00000  Uiso   1.00
C417   C     0.50184   0.49701   0.47608   0.00000  Uiso   1.00
C418   C     0.50103   0.49774   0.02296   0.00000  Uiso   1.00
C419   C     0.53861   0.50706   0.45282   0.00000  Uiso   1.00
C420   C     0.46332   0.49429   0.04577   0.00000  Uiso   1.00
C421   C     0.42924   0.47908   0.47609   0.00000  Uiso   1.00
C422   C     0.57380   0.51271   0.02384   0.00000  Uiso   1.00
Cu423  Cu    0.50000   0.54689   0.25000   0.00000  Uiso   1.00
Cu424  Cu    0.50000   0.45311   0.25000   0.00000  Uiso   1.00
H425   H     0.40109   0.47122   0.45913   0.00000  Uiso   1.00
H426   H     0.60181   0.51969   0.04144   0.00000  Uiso   1.00
N427   N     0.50000   0.61736   0.25000   0.00000  Uiso   1.00
N428   N     0.50000   0.38264   0.25000   0.00000  Uiso   1.00
O429   O     0.43988   0.53958   0.24999   0.00000  Uiso   1.00
O430   O     0.56012   0.46042   0.25000   0.00000  Uiso   1.00
O431   O     0.56012   0.53958   0.25000   0.00000  Uiso   1.00
O432   O     0.43988   0.46042   0.24999   0.00000  Uiso   1.00
O433   O     0.49999   0.53960   0.18513   0.00000  Uiso   1.00
O434   O     0.50001   0.46040   0.31487   0.00000  Uiso   1.00
O435   O     0.50001   0.53960   0.31487   0.00000  Uiso   1.00
O436   O     0.49999   0.46040   0.18513   0.00000  Uiso   1.00
O437   O     0.57285   0.51451   0.38116   0.00000  Uiso   1.00
C438   C     0.59108   0.47126   0.37120   0.00000  Uiso   1.00
H439   H     0.57228   0.45167   0.34748   0.00000  Uiso   1.00
H440   H     0.59703   0.45034   0.40164   0.00000  Uiso   1.00
H441   H     0.62088   0.47692   0.35480   0.00000  Uiso   1.00
O442   O     0.42816   0.52997   0.10512   0.00000  Uiso   1.00
C443   C     0.41241   0.51656   0.14636   0.00000  Uiso   1.00
H444   H     0.42152   0.54225   0.17121   0.00000  Uiso   1.00
H445   H     0.42147   0.48100   0.15633   0.00000  Uiso   1.00
H446   H     0.37849   0.51829   0.14468   0.00000  Uiso   1.00
I447   I     0.41809   0.44891   0.37135   0.00000  Uiso   1.00
I448   I     0.59284   0.49639   0.13073   0.00000  Uiso   1.00
I449   I     0.36970   0.46888   0.05068   0.00000  Uiso   1.00
I450   I     0.63092   0.54193   0.45262   0.00000  Uiso   1.00
O451   O     0.37795   0.42788   0.21002   0.00000  Uiso   1.00
C452   C     0.36256   0.41602   0.16775   0.00000  Uiso   1.00
H453   H     0.38872   0.40749   0.14567   0.00000  Uiso   1.00
H454   H     0.34466   0.44424   0.15141   0.00000  Uiso   1.00
H455   H     0.34391   0.38449   0.17024   0.00000  Uiso   1.00
O456   O     0.62215   0.56585   0.29935   0.00000  Uiso   1.00
C457   C     0.63120   0.61095   0.28510   0.00000  Uiso   1.00
H458   H     0.60282   0.63218   0.28819   0.00000  Uiso   1.00
H459   H     0.64190   0.61309   0.25003   0.00000  Uiso   1.00
H460   H     0.65452   0.62641   0.30696   0.00000  Uiso   1.00
O461   O     0.62489   0.42393   0.21762   0.00000  Uiso   1.00
C462   C     0.62615   0.38844   0.24967   0.00000  Uiso   1.00
H463   H     0.60502   0.36126   0.23884   0.00000  Uiso   1.00
H464   H     0.61551   0.40045   0.28287   0.00000  Uiso   1.00
H465   H     0.65743   0.37297   0.25232   0.00000  Uiso   1.00
O466   O     0.37545   0.55843   0.30752   0.00000  Uiso   1.00
C467   C     0.36296   0.54956   0.35176   0.00000  Uiso   1.00
H468   H     0.39032   0.54880   0.37350   0.00000  Uiso   1.00
H469   H     0.34758   0.51602   0.35662   0.00000  Uiso   1.00
H470   H     0.34259   0.57776   0.36371   0.00000  Uiso   1.00
O471   O     0.52076   0.37990   0.17382   0.00000  Uiso   1.00
C472   C     0.48918   0.37398   0.14232   0.00000  Uiso   1.00
H473   H     0.45872   0.38426   0.15598   0.00000  Uiso   1.00
H474   H     0.48837   0.33811   0.12980   0.00000  Uiso   1.00
H475   H     0.49526   0.39660   0.11337   0.00000  Uiso   1.00
O476   O     0.46918   0.61960   0.32164   0.00000  Uiso   1.00
C477   C     0.42952   0.63761   0.33040   0.00000  Uiso   1.00
H478   H     0.41636   0.61802   0.35821   0.00000  Uiso   1.00
H479   H     0.40932   0.63507   0.30081   0.00000  Uiso   1.00
H480   H     0.42951   0.34026   0.34226   0.00000  Uiso   1.00
O481   O     0.49011   0.37912   0.32827   0.00000  Uiso   1.00
C482   C     0.52509   0.36658   0.35343   0.00000  Uiso   1.00
H483   H     0.55397   0.37139   0.33435   0.00000  Uiso   1.00
H484   H     0.52328   0.66383   0.36559   0.00000  Uiso   1.00
H485   H     0.52632   0.38914   0.38301   0.00000  Uiso   1.00
O486   O     0.52864   0.61838   0.17740   0.00000  Uiso   1.00
C487   C     0.57146   0.62285   0.17438   0.00000  Uiso   1.00
H488   H     0.58687   0.60694   0.20346   0.00000  Uiso   1.00
H489   H     0.58078   0.65925   0.17038   0.00000  Uiso   1.00
H490   H     0.58228   0.60420   0.14446   0.00000  Uiso   1.00
C491   C     0.75418   0.49995   0.25127   0.00000  Uiso   1.00
C492   C     0.91243   0.49960   0.25118   0.00000  Uiso   1.00
C493   C     0.76080   0.48407   0.02177   0.00000  Uiso   1.00
C494   C     0.90770   0.51680   0.47777   0.00000  Uiso   1.00
C495   C     0.68858   0.46313   0.23025   0.00000  Uiso   1.00
C496   C     0.97789   0.53357   0.27521   0.00000  Uiso   1.00
C497   C     0.97904   0.46123   0.23413   0.00000  Uiso   1.00
C498   C     0.68756   0.53108   0.27815   0.00000  Uiso   1.00
C499   C     0.95716   0.49844   0.25305   0.00000  Uiso   1.00
C500   C     0.70935   0.49889   0.25223   0.00000  Uiso   1.00
C501   C     0.84366   0.35760   0.21262   0.00000  Uiso   1.00
C502   C     0.81936   0.64225   0.28573   0.00000  Uiso   1.00
C503   C     0.82546   0.35756   0.28771   0.00000  Uiso   1.00
C504   C     0.84762   0.64172   0.21424   0.00000  Uiso   1.00
C505   C     0.83262   0.50029   0.16452   0.00000  Uiso   1.00
C506   C     0.83351   0.49968   0.33526   0.00000  Uiso   1.00
C507   C     0.87110   0.50723   0.40582   0.00000  Uiso   1.00
C508   C     0.79522   0.50380   0.09133   0.00000  Uiso   1.00
C509   C     0.83434   0.49796   0.38341   0.00000  Uiso   1.00
C510   C     0.83242   0.50112   0.11593   0.00000  Uiso   1.00
C511   C     0.79979   0.48276   0.40642   0.00000  Uiso   1.00
C512   C     0.87030   0.50030   0.09354   0.00000  Uiso   1.00
C513   C     0.79902   0.48609   0.45270   0.00000  Uiso   1.00
C514   C     0.87097   0.50330   0.04693   0.00000  Uiso   1.00
C515   C     0.83518   0.49701   0.47608   0.00000  Uiso   1.00
C516   C     0.83437   0.49774   0.02296   0.00000  Uiso   1.00
C517   C     0.87194   0.50706   0.45282   0.00000  Uiso   1.00
C518   C     0.79665   0.49429   0.04577   0.00000  Uiso   1.00
C519   C     0.76257   0.47908   0.47609   0.00000  Uiso   1.00
C520   C     0.90713   0.51271   0.02384   0.00000  Uiso   1.00
Cu521  Cu    0.83333   0.54689   0.25000   0.00000  Uiso   1.00
Cu522  Cu    0.83333   0.45311   0.25000   0.00000  Uiso   1.00
H523   H     0.73442   0.47122   0.45913   0.00000  Uiso   1.00
H524   H     0.93514   0.51969   0.04144   0.00000  Uiso   1.00
N525   N     0.83333   0.61736   0.25000   0.00000  Uiso   1.00
N526   N     0.83333   0.38264   0.25000   0.00000  Uiso   1.00
O527   O     0.77321   0.53958   0.24999   0.00000  Uiso   1.00
O528   O     0.89345   0.46042   0.25000   0.00000  Uiso   1.00
O529   O     0.89345   0.53958   0.25000   0.00000  Uiso   1.00
O530   O     0.77321   0.46042   0.24999   0.00000  Uiso   1.00
O531   O     0.83332   0.53960   0.18513   0.00000  Uiso   1.00
O532   O     0.83334   0.46040   0.31487   0.00000  Uiso   1.00
O533   O     0.83334   0.53960   0.31487   0.00000  Uiso   1.00
O534   O     0.83332   0.46040   0.18513   0.00000  Uiso   1.00
O535   O     0.90618   0.51451   0.38116   0.00000  Uiso   1.00
C536   C     0.92441   0.47126   0.37120   0.00000  Uiso   1.00
H537   H     0.90561   0.45167   0.34748   0.00000  Uiso   1.00
H538   H     0.93036   0.45034   0.40164   0.00000  Uiso   1.00
H539   H     0.95422   0.47692   0.35480   0.00000  Uiso   1.00
O540   O     0.76150   0.52997   0.10512   0.00000  Uiso   1.00
C541   C     0.74574   0.51656   0.14636   0.00000  Uiso   1.00
H542   H     0.75485   0.54225   0.17121   0.00000  Uiso   1.00
H543   H     0.75480   0.48100   0.15633   0.00000  Uiso   1.00
H544   H     0.71182   0.51829   0.14468   0.00000  Uiso   1.00
I545   I     0.75142   0.44891   0.37135   0.00000  Uiso   1.00
I546   I     0.92618   0.49639   0.13073   0.00000  Uiso   1.00
I547   I     0.70303   0.46888   0.05068   0.00000  Uiso   1.00
I548   I     0.96426   0.54193   0.45262   0.00000  Uiso   1.00
O549   O     0.71129   0.42788   0.21002   0.00000  Uiso   1.00
C550   C     0.69589   0.41602   0.16775   0.00000  Uiso   1.00
H551   H     0.72205   0.40749   0.14567   0.00000  Uiso   1.00
H552   H     0.67799   0.44424   0.15141   0.00000  Uiso   1.00
H553   H     0.67725   0.38449   0.17024   0.00000  Uiso   1.00
O554   O     0.95548   0.56585   0.29935   0.00000  Uiso   1.00
C555   C     0.96453   0.61095   0.28510   0.00000  Uiso   1.00
H556   H     0.93615   0.63218   0.28819   0.00000  Uiso   1.00
H557   H     0.97523   0.61309   0.25003   0.00000  Uiso   1.00
H558   H     0.98786   0.62641   0.30696   0.00000  Uiso   1.00
O559   O     0.95822   0.42393   0.21762   0.00000  Uiso   1.00
C560   C     0.95948   0.38844   0.24967   0.00000  Uiso   1.00
H561   H     0.93835   0.36126   0.23884   0.00000  Uiso   1.00
H562   H     0.94885   0.40045   0.28287   0.00000  Uiso   1.00
H563   H     0.99076   0.37297   0.25232   0.00000  Uiso   1.00
O564   O     0.70878   0.55843   0.30752   0.00000  Uiso   1.00
C565   C     0.69630   0.54956   0.35176   0.00000  Uiso   1.00
H566   H     0.72366   0.54880   0.37350   0.00000  Uiso   1.00
H567   H     0.68091   0.51602   0.35662   0.00000  Uiso   1.00
H568   H     0.67592   0.57776   0.36371   0.00000  Uiso   1.00
O569   O     0.85409   0.37990   0.17382   0.00000  Uiso   1.00
C570   C     0.82252   0.37398   0.14232   0.00000  Uiso   1.00
H571   H     0.79205   0.38426   0.15598   0.00000  Uiso   1.00
H572   H     0.82170   0.33811   0.12980   0.00000  Uiso   1.00
H573   H     0.82859   0.39660   0.11337   0.00000  Uiso   1.00
O574   O     0.80251   0.61960   0.32164   0.00000  Uiso   1.00
C575   C     0.76285   0.63761   0.33040   0.00000  Uiso   1.00
H576   H     0.74970   0.61802   0.35821   0.00000  Uiso   1.00
H577   H     0.74266   0.63507   0.30081   0.00000  Uiso   1.00
H578   H     0.76284   0.34026   0.34226   0.00000  Uiso   1.00
O579   O     0.82345   0.37912   0.32827   0.00000  Uiso   1.00
C580   C     0.85842   0.36658   0.35343   0.00000  Uiso   1.00
H581   H     0.88731   0.37139   0.33435   0.00000  Uiso   1.00
H582   H     0.85661   0.66383   0.36559   0.00000  Uiso   1.00
H583   H     0.85965   0.38914   0.38301   0.00000  Uiso   1.00
O584   O     0.86197   0.61838   0.17740   0.00000  Uiso   1.00
C585   C     0.90480   0.62285   0.17438   0.00000  Uiso   1.00
H586   H     0.92020   0.60694   0.20346   0.00000  Uiso   1.00
H587   H     0.91412   0.65925   0.17038   0.00000  Uiso   1.00
H588   H     0.91561   0.60420   0.14446   0.00000  Uiso   1.00
C589   C     0.08752   0.83329   0.25127   0.00000  Uiso   1.00
C590   C     0.24576   0.83293   0.25118   0.00000  Uiso   1.00
C591   C     0.09413   0.81741   0.02177   0.00000  Uiso   1.00
C592   C     0.24103   0.85013   0.47777   0.00000  Uiso   1.00
C593   C     0.02191   0.79647   0.23025   0.00000  Uiso   1.00
C594   C     0.31122   0.86690   0.27521   0.00000  Uiso   1.00
C595   C     0.31238   0.79456   0.23413   0.00000  Uiso   1.00
C596   C     0.02089   0.86441   0.27815   0.00000  Uiso   1.00
C597   C     0.29049   0.83178   0.25305   0.00000  Uiso   1.00
C598   C     0.04268   0.83222   0.25223   0.00000  Uiso   1.00
C599   C     0.17700   0.69093   0.21262   0.00000  Uiso   1.00
C600   C     0.15269   0.97558   0.28573   0.00000  Uiso   1.00
C601   C     0.15879   0.69090   0.28771   0.00000  Uiso   1.00
C602   C     0.18095   0.97505   0.21424   0.00000  Uiso   1.00
C603   C     0.16595   0.83362   0.16452   0.00000  Uiso   1.00
C604   C     0.16684   0.83301   0.33526   0.00000  Uiso   1.00
C605   C     0.20444   0.84057   0.40582   0.00000  Uiso   1.00
C606   C     0.12856   0.83714   0.09133   0.00000  Uiso   1.00
C607   C     0.16767   0.83129   0.38341   0.00000  Uiso   1.00
C608   C     0.16575   0.83445   0.11593   0.00000  Uiso   1.00
C609   C     0.13312   0.81609   0.40642   0.00000  Uiso   1.00
C610   C     0.20363   0.83363   0.09354   0.00000  Uiso   1.00
C611   C     0.13235   0.81942   0.45270   0.00000  Uiso   1.00
C612   C     0.20431   0.83663   0.04693   0.00000  Uiso   1.00
C613   C     0.16851   0.83034   0.47608   0.00000  Uiso   1.00
C614   C     0.16770   0.83107   0.02296   0.00000  Uiso   1.00
C615   C     0.20528   0.84039   0.45282   0.00000  Uiso   1.00
C616   C     0.12999   0.82762   0.04577   0.00000  Uiso   1.00
C617   C     0.09590   0.81241   0.47609   0.00000  Uiso   1.00
C618   C     0.24047   0.84604   0.02384   0.00000  Uiso   1.00
Cu619  Cu    0.16667   0.88022   0.25000   0.00000  Uiso   1.00
Cu620  Cu    0.16667   0.78645   0.25000   0.00000  Uiso   1.00
H621   H     0.06776   0.80455   0.45913   0.00000  Uiso   1.00
H622   H     0.26847   0.85303   0.04144   0.00000  Uiso   1.00
N623   N     0.16667   0.95069   0.25000   0.00000  Uiso   1.00
N624   N     0.16667   0.71598   0.25000   0.00000  Uiso   1.00
O625   O     0.10655   0.87291   0.24999   0.00000  Uiso   1.00
O626   O     0.22679   0.79375   0.25000   0.00000  Uiso   1.00
O627   O     0.22679   0.87291   0.25000   0.00000  Uiso   1.00
O628   O     0.10655   0.79375   0.24999   0.00000  Uiso   1.00
O629   O     0.16666   0.87293   0.18513   0.00000  Uiso   1.00
O630   O     0.16668   0.79373   0.31487   0.00000  Uiso   1.00
O631   O     0.16668   0.87293   0.31487   0.00000  Uiso   1.00
O632   O     0.16666   0.79373   0.18513   0.00000  Uiso   1.00
O633   O     0.23952   0.84785   0.38116   0.00000  Uiso   1.00
C634   C     0.25775   0.80460   0.37120   0.00000  Uiso   1.00
H635   H     0.23894   0.78501   0.34748   0.00000  Uiso   1.00
H636   H     0.26370   0.78368   0.40164   0.00000  Uiso   1.00
H637   H     0.28755   0.81026   0.35480   0.00000  Uiso   1.00
O638   O     0.09483   0.86330   0.10512   0.00000  Uiso   1.00
C639   C     0.07907   0.84989   0.14636   0.00000  Uiso   1.00
H640   H     0.08818   0.87558   0.17121   0.00000  Uiso   1.00
H641   H     0.08813   0.81433   0.15633   0.00000  Uiso   1.00
H642   H     0.04516   0.85162   0.14468   0.00000  Uiso   1.00
I643   I     0.08476   0.78224   0.37135   0.00000  Uiso   1.00
I644   I     0.25951   0.82973   0.13073   0.00000  Uiso   1.00
I645   I     0.03636   0.80221   0.05068   0.00000  Uiso   1.00
I646   I     0.29759   0.87527   0.45262   0.00000  Uiso   1.00
O647   O     0.04462   0.76121   0.21002   0.00000  Uiso   1.00
C648   C     0.02922   0.74935   0.16775   0.00000  Uiso   1.00
H649   H     0.05538   0.74082   0.14567   0.00000  Uiso   1.00
H650   H     0.01133   0.77758   0.15141   0.00000  Uiso   1.00
H651   H     0.01058   0.71782   0.17024   0.00000  Uiso   1.00
O652   O     0.28881   0.89918   0.29935   0.00000  Uiso   1.00
C653   C     0.29787   0.94428   0.28510   0.00000  Uiso   1.00
H654   H     0.26949   0.96551   0.28819   0.00000  Uiso   1.00
H655   H     0.30856   0.94642   0.25003   0.00000  Uiso   1.00
H656   H     0.32119   0.95975   0.30696   0.00000  Uiso   1.00
O657   O     0.29155   0.75727   0.21762   0.00000  Uiso   1.00
C658   C     0.29282   0.72177   0.24967   0.00000  Uiso   1.00
H659   H     0.27169   0.69459   0.23884   0.00000  Uiso   1.00
H660   H     0.28218   0.73378   0.28287   0.00000  Uiso   1.00
H661   H     0.32409   0.70630   0.25232   0.00000  Uiso   1.00
O662   O     0.04211   0.89176   0.30752   0.00000  Uiso   1.00
C663   C     0.02963   0.88289   0.35176   0.00000  Uiso   1.00
H664   H     0.05699   0.88213   0.37350   0.00000  Uiso   1.00
H665   H     0.01424   0.84935   0.35662   0.00000  Uiso   1.00
H666   H     0.00925   0.91109   0.36371   0.00000  Uiso   1.00
O667   O     0.18742   0.71324   0.17382   0.00000  Uiso   1.00
C668   C     0.15585   0.70732   0.14232   0.00000  Uiso   1.00
H669   H     0.12539   0.71760   0.15598   0.00000  Uiso   1.00
H670   H     0.15503   0.67144   0.12980   0.00000  Uiso   1.00
H671   H     0.16192   0.72993   0.11337   0.00000  Uiso   1.00
O672   O     0.13585   0.95293   0.32164   0.00000  Uiso   1.00
C673   C     0.09618   0.97094   0.33040   0.00000  Uiso   1.00
H674   H     0.08303   0.95136   0.35821   0.00000  Uiso   1.00
H675   H     0.07599   0.96841   0.30081   0.00000  Uiso   1.00
H676   H     0.09618   0.67359   0.34226   0.00000  Uiso   1.00
O677   O     0.15678   0.71245   0.32827   0.00000  Uiso   1.00
C678   C     0.19175   0.69991   0.35343   0.00000  Uiso   1.00
H679   H     0.22064   0.70472   0.33435   0.00000  Uiso   1.00
H680   H     0.18995   0.99717   0.36559   0.00000  Uiso   1.00
H681   H     0.19299   0.72247   0.38301   0.00000  Uiso   1.00
O682   O     0.19531   0.95171   0.17740   0.00000  Uiso   1.00
C683   C     0.23813   0.95619   0.17438   0.00000  Uiso   1.00
H684   H     0.25354   0.94028   0.20346   0.00000  Uiso   1.00
H685   H     0.24745   0.99258   0.17038   0.00000  Uiso   1.00
H686   H     0.24895   0.93753   0.14446   0.00000  Uiso   1.00
C687   C     0.42085   0.83329   0.25127   0.00000  Uiso   1.00
C688   C     0.57910   0.83293   0.25118   0.00000  Uiso   1.00
C689   C     0.42746   0.81741   0.02177   0.00000  Uiso   1.00
C690   C     0.57437   0.85013   0.47777   0.00000  Uiso   1.00
C691   C     0.35524   0.79647   0.23025   0.00000  Uiso   1.00
C692   C     0.64456   0.86690   0.27521   0.00000  Uiso   1.00
C693   C     0.64571   0.79456   0.23413   0.00000  Uiso   1.00
C694   C     0.35423   0.86441   0.27815   0.00000  Uiso   1.00
C695   C     0.62383   0.83178   0.25305   0.00000  Uiso   1.00
C696   C     0.37601   0.83222   0.25223   0.00000  Uiso   1.00
C697   C     0.51033   0.69093   0.21262   0.00000  Uiso   1.00
C698   C     0.48602   0.97558   0.28573   0.00000  Uiso   1.00
C699   C     0.49213   0.69090   0.28771   0.00000  Uiso   1.00
C700   C     0.51429   0.97505   0.21424   0.00000  Uiso   1.00
C701   C     0.49929   0.83362   0.16452   0.00000  Uiso   1.00
C702   C     0.50018   0.83301   0.33526   0.00000  Uiso   1.00
C703   C     0.53777   0.84057   0.40582   0.00000  Uiso   1.00
C704   C     0.46189   0.83714   0.09133   0.00000  Uiso   1.00
C705   C     0.50100   0.83129   0.38341   0.00000  Uiso   1.00
C706   C     0.49908   0.83445   0.11593   0.00000  Uiso   1.00
C707   C     0.46646   0.81609   0.40642   0.00000  Uiso   1.00
C708   C     0.53697   0.83363   0.09354   0.00000  Uiso   1.00
C709   C     0.46568   0.81942   0.45270   0.00000  Uiso   1.00
C710   C     0.53764   0.83663   0.04693   0.00000  Uiso   1.00
C711   C     0.50184   0.83034   0.47608   0.00000  Uiso   1.00
C712   C     0.50103   0.83107   0.02296   0.00000  Uiso   1.00
C713   C     0.53861   0.84039   0.45282   0.00000  Uiso   1.00
C714   C     0.46332   0.82762   0.04577   0.00000  Uiso   1.00
C715   C     0.42924   0.81241   0.47609   0.00000  Uiso   1.00
C716   C     0.57380   0.84604   0.02384   0.00000  Uiso   1.00
Cu717  Cu    0.50000   0.88022   0.25000   0.00000  Uiso   1.00
Cu718  Cu    0.50000   0.78645   0.25000   0.00000  Uiso   1.00
H719   H     0.40109   0.80455   0.45913   0.00000  Uiso   1.00
H720   H     0.60181   0.85303   0.04144   0.00000  Uiso   1.00
N721   N     0.50000   0.95069   0.25000   0.00000  Uiso   1.00
N722   N     0.50000   0.71598   0.25000   0.00000  Uiso   1.00
O723   O     0.43988   0.87291   0.24999   0.00000  Uiso   1.00
O724   O     0.56012   0.79375   0.25000   0.00000  Uiso   1.00
O725   O     0.56012   0.87291   0.25000   0.00000  Uiso   1.00
O726   O     0.43988   0.79375   0.24999   0.00000  Uiso   1.00
O727   O     0.49999   0.87293   0.18513   0.00000  Uiso   1.00
O728   O     0.50001   0.79373   0.31487   0.00000  Uiso   1.00
O729   O     0.50001   0.87293   0.31487   0.00000  Uiso   1.00
O730   O     0.49999   0.79373   0.18513   0.00000  Uiso   1.00
O731   O     0.57285   0.84785   0.38116   0.00000  Uiso   1.00
C732   C     0.59108   0.80460   0.37120   0.00000  Uiso   1.00
H733   H     0.57228   0.78501   0.34748   0.00000  Uiso   1.00
H734   H     0.59703   0.78368   0.40164   0.00000  Uiso   1.00
H735   H     0.62088   0.81026   0.35480   0.00000  Uiso   1.00
O736   O     0.42816   0.86330   0.10512   0.00000  Uiso   1.00
C737   C     0.41241   0.84989   0.14636   0.00000  Uiso   1.00
H738   H     0.42152   0.87558   0.17121   0.00000  Uiso   1.00
H739   H     0.42147   0.81433   0.15633   0.00000  Uiso   1.00
H740   H     0.37849   0.85162   0.14468   0.00000  Uiso   1.00
I741   I     0.41809   0.78224   0.37135   0.00000  Uiso   1.00
I742   I     0.59284   0.82973   0.13073   0.00000  Uiso   1.00
I743   I     0.36970   0.80221   0.05068   0.00000  Uiso   1.00
I744   I     0.63092   0.87527   0.45262   0.00000  Uiso   1.00
O745   O     0.37795   0.76121   0.21002   0.00000  Uiso   1.00
C746   C     0.36256   0.74935   0.16775   0.00000  Uiso   1.00
H747   H     0.38872   0.74082   0.14567   0.00000  Uiso   1.00
H748   H     0.34466   0.77758   0.15141   0.00000  Uiso   1.00
H749   H     0.34391   0.71782   0.17024   0.00000  Uiso   1.00
O750   O     0.62215   0.89918   0.29935   0.00000  Uiso   1.00
C751   C     0.63120   0.94428   0.28510   0.00000  Uiso   1.00
H752   H     0.60282   0.96551   0.28819   0.00000  Uiso   1.00
H753   H     0.64190   0.94642   0.25003   0.00000  Uiso   1.00
H754   H     0.65452   0.95975   0.30696   0.00000  Uiso   1.00
O755   O     0.62489   0.75727   0.21762   0.00000  Uiso   1.00
C756   C     0.62615   0.72177   0.24967   0.00000  Uiso   1.00
H757   H     0.60502   0.69459   0.23884   0.00000  Uiso   1.00
H758   H     0.61551   0.73378   0.28287   0.00000  Uiso   1.00
H759   H     0.65743   0.70630   0.25232   0.00000  Uiso   1.00
O760   O     0.37545   0.89176   0.30752   0.00000  Uiso   1.00
C761   C     0.36296   0.88289   0.35176   0.00000  Uiso   1.00
H762   H     0.39032   0.88213   0.37350   0.00000  Uiso   1.00
H763   H     0.34758   0.84935   0.35662   0.00000  Uiso   1.00
H764   H     0.34259   0.91109   0.36371   0.00000  Uiso   1.00
O765   O     0.52076   0.71324   0.17382   0.00000  Uiso   1.00
C766   C     0.48918   0.70732   0.14232   0.00000  Uiso   1.00
H767   H     0.45872   0.71760   0.15598   0.00000  Uiso   1.00
H768   H     0.48837   0.67144   0.12980   0.00000  Uiso   1.00
H769   H     0.49526   0.72993   0.11337   0.00000  Uiso   1.00
O770   O     0.46918   0.95293   0.32164   0.00000  Uiso   1.00
C771   C     0.42952   0.97094   0.33040   0.00000  Uiso   1.00
H772   H     0.41636   0.95136   0.35821   0.00000  Uiso   1.00
H773   H     0.40932   0.96841   0.30081   0.00000  Uiso   1.00
H774   H     0.42951   0.67359   0.34226   0.00000  Uiso   1.00
O775   O     0.49011   0.71245   0.32827   0.00000  Uiso   1.00
C776   C     0.52509   0.69991   0.35343   0.00000  Uiso   1.00
H777   H     0.55397   0.70472   0.33435   0.00000  Uiso   1.00
H778   H     0.52328   0.99717   0.36559   0.00000  Uiso   1.00
H779   H     0.52632   0.72247   0.38301   0.00000  Uiso   1.00
O780   O     0.52864   0.95171   0.17740   0.00000  Uiso   1.00
C781   C     0.57146   0.95619   0.17438   0.00000  Uiso   1.00
H782   H     0.58687   0.94028   0.20346   0.00000  Uiso   1.00
H783   H     0.58078   0.99258   0.17038   0.00000  Uiso   1.00
H784   H     0.58228   0.93753   0.14446   0.00000  Uiso   1.00
C785   C     0.75418   0.83329   0.25127   0.00000  Uiso   1.00
C786   C     0.91243   0.83293   0.25118   0.00000  Uiso   1.00
C787   C     0.76080   0.81741   0.02177   0.00000  Uiso   1.00
C788   C     0.90770   0.85013   0.47777   0.00000  Uiso   1.00
C789   C     0.68858   0.79647   0.23025   0.00000  Uiso   1.00
C790   C     0.97789   0.86690   0.27521   0.00000  Uiso   1.00
C791   C     0.97904   0.79456   0.23413   0.00000  Uiso   1.00
C792   C     0.68756   0.86441   0.27815   0.00000  Uiso   1.00
C793   C     0.95716   0.83178   0.25305   0.00000  Uiso   1.00
C794   C     0.70935   0.83222   0.25223   0.00000  Uiso   1.00
C795   C     0.84366   0.69093   0.21262   0.00000  Uiso   1.00
C796   C     0.81936   0.97558   0.28573   0.00000  Uiso   1.00
C797   C     0.82546   0.69090   0.28771   0.00000  Uiso   1.00
C798   C     0.84762   0.97505   0.21424   0.00000  Uiso   1.00
C799   C     0.83262   0.83362   0.16452   0.00000  Uiso   1.00
C800   C     0.83351   0.83301   0.33526   0.00000  Uiso   1.00
C801   C     0.87110   0.84057   0.40582   0.00000  Uiso   1.00
C802   C     0.79522   0.83714   0.09133   0.00000  Uiso   1.00
C803   C     0.83434   0.83129   0.38341   0.00000  Uiso   1.00
C804   C     0.83242   0.83445   0.11593   0.00000  Uiso   1.00
C805   C     0.79979   0.81609   0.40642   0.00000  Uiso   1.00
C806   C     0.87030   0.83363   0.09354   0.00000  Uiso   1.00
C807   C     0.79902   0.81942   0.45270   0.00000  Uiso   1.00
C808   C     0.87097   0.83663   0.04693   0.00000  Uiso   1.00
C809   C     0.83518   0.83034   0.47608   0.00000  Uiso   1.00
C810   C     0.83437   0.83107   0.02296   0.00000  Uiso   1.00
C811   C     0.87194   0.84039   0.45282   0.00000  Uiso   1.00
C812   C     0.79665   0.82762   0.04577   0.00000  Uiso   1.00
C813   C     0.76257   0.81241   0.47609   0.00000  Uiso   1.00
C814   C     0.90713   0.84604   0.02384   0.00000  Uiso   1.00
Cu815  Cu    0.83333   0.88022   0.25000   0.00000  Uiso   1.00
Cu816  Cu    0.83333   0.78645   0.25000   0.00000  Uiso   1.00
H817   H     0.73442   0.80455   0.45913   0.00000  Uiso   1.00
H818   H     0.93514   0.85303   0.04144   0.00000  Uiso   1.00
N819   N     0.83333   0.95069   0.25000   0.00000  Uiso   1.00
N820   N     0.83333   0.71598   0.25000   0.00000  Uiso   1.00
O821   O     0.77321   0.87291   0.24999   0.00000  Uiso   1.00
O822   O     0.89345   0.79375   0.25000   0.00000  Uiso   1.00
O823   O     0.89345   0.87291   0.25000   0.00000  Uiso   1.00
O824   O     0.77321   0.79375   0.24999   0.00000  Uiso   1.00
O825   O     0.83332   0.87293   0.18513   0.00000  Uiso   1.00
O826   O     0.83334   0.79373   0.31487   0.00000  Uiso   1.00
O827   O     0.83334   0.87293   0.31487   0.00000  Uiso   1.00
O828   O     0.83332   0.79373   0.18513   0.00000  Uiso   1.00
O829   O     0.90618   0.84785   0.38116   0.00000  Uiso   1.00
C830   C     0.92441   0.80460   0.37120   0.00000  Uiso   1.00
H831   H     0.90561   0.78501   0.34748   0.00000  Uiso   1.00
H832   H     0.93036   0.78368   0.40164   0.00000  Uiso   1.00
H833   H     0.95422   0.81026   0.35480   0.00000  Uiso   1.00
O834   O     0.76150   0.86330   0.10512   0.00000  Uiso   1.00
C835   C     0.74574   0.84989   0.14636   0.00000  Uiso   1.00
H836   H     0.75485   0.87558   0.17121   0.00000  Uiso   1.00
H837   H     0.75480   0.81433   0.15633   0.00000  Uiso   1.00
H838   H     0.71182   0.85162   0.14468   0.00000  Uiso   1.00
I839   I     0.75142   0.78224   0.37135   0.00000  Uiso   1.00
I840   I     0.92618   0.82973   0.13073   0.00000  Uiso   1.00
I841   I     0.70303   0.80221   0.05068   0.00000  Uiso   1.00
I842   I     0.96426   0.87527   0.45262   0.00000  Uiso   1.00
O843   O     0.71129   0.76121   0.21002   0.00000  Uiso   1.00
C844   C     0.69589   0.74935   0.16775   0.00000  Uiso   1.00
H845   H     0.72205   0.74082   0.14567   0.00000  Uiso   1.00
H846   H     0.67799   0.77758   0.15141   0.00000  Uiso   1.00
H847   H     0.67725   0.71782   0.17024   0.00000  Uiso   1.00
O848   O     0.95548   0.89918   0.29935   0.00000  Uiso   1.00
C849   C     0.96453   0.94428   0.28510   0.00000  Uiso   1.00
H850   H     0.93615   0.96551   0.28819   0.00000  Uiso   1.00
H851   H     0.97523   0.94642   0.25003   0.00000  Uiso   1.00
H852   H     0.98786   0.95975   0.30696   0.00000  Uiso   1.00
O853   O     0.95822   0.75727   0.21762   0.00000  Uiso   1.00
C854   C     0.95948   0.72177   0.24967   0.00000  Uiso   1.00
H855   H     0.93835   0.69459   0.23884   0.00000  Uiso   1.00
H856   H     0.94885   0.73378   0.28287   0.00000  Uiso   1.00
H857   H     0.99076   0.70630   0.25232   0.00000  Uiso   1.00
O858   O     0.70878   0.89176   0.30752   0.00000  Uiso   1.00
C859   C     0.69630   0.88289   0.35176   0.00000  Uiso   1.00
H860   H     0.72366   0.88213   0.37350   0.00000  Uiso   1.00
H861   H     0.68091   0.84935   0.35662   0.00000  Uiso   1.00
H862   H     0.67592   0.91109   0.36371   0.00000  Uiso   1.00
O863   O     0.85409   0.71324   0.17382   0.00000  Uiso   1.00
C864   C     0.82252   0.70732   0.14232   0.00000  Uiso   1.00
H865   H     0.79205   0.71760   0.15598   0.00000  Uiso   1.00
H866   H     0.82170   0.67144   0.12980   0.00000  Uiso   1.00
H867   H     0.82859   0.72993   0.11337   0.00000  Uiso   1.00
O868   O     0.80251   0.95293   0.32164   0.00000  Uiso   1.00
C869   C     0.76285   0.97094   0.33040   0.00000  Uiso   1.00
H870   H     0.74970   0.95136   0.35821   0.00000  Uiso   1.00
H871   H     0.74266   0.96841   0.30081   0.00000  Uiso   1.00
H872   H     0.76284   0.67359   0.34226   0.00000  Uiso   1.00
O873   O     0.82345   0.71245   0.32827   0.00000  Uiso   1.00
C874   C     0.85842   0.69991   0.35343   0.00000  Uiso   1.00
H875   H     0.88731   0.70472   0.33435   0.00000  Uiso   1.00
H876   H     0.85661   0.99717   0.36559   0.00000  Uiso   1.00
H877   H     0.85965   0.72247   0.38301   0.00000  Uiso   1.00
O878   O     0.86197   0.95171   0.17740   0.00000  Uiso   1.00
C879   C     0.90480   0.95619   0.17438   0.00000  Uiso   1.00
H880   H     0.92020   0.94028   0.20346   0.00000  Uiso   1.00
H881   H     0.91412   0.99258   0.17038   0.00000  Uiso   1.00
H882   H     0.91561   0.93753   0.14446   0.00000  Uiso   1.00
C883   C     0.08752   0.16662   0.75127   0.00000  Uiso   1.00
C884   C     0.24576   0.16626   0.75118   0.00000  Uiso   1.00
C885   C     0.09413   0.15074   0.52177   0.00000  Uiso   1.00
C886   C     0.24103   0.18347   0.97777   0.00000  Uiso   1.00
C887   C     0.02191   0.12980   0.73025   0.00000  Uiso   1.00
C888   C     0.31122   0.20023   0.77521   0.00000  Uiso   1.00
C889   C     0.31238   0.12790   0.73413   0.00000  Uiso   1.00
C890   C     0.02089   0.19774   0.77815   0.00000  Uiso   1.00
C891   C     0.29049   0.16511   0.75305   0.00000  Uiso   1.00
C892   C     0.04268   0.16555   0.75223   0.00000  Uiso   1.00
C893   C     0.17700   0.02427   0.71262   0.00000  Uiso   1.00
C894   C     0.15269   0.30892   0.78573   0.00000  Uiso   1.00
C895   C     0.15879   0.02423   0.78771   0.00000  Uiso   1.00
C896   C     0.18095   0.30838   0.71424   0.00000  Uiso   1.00
C897   C     0.16595   0.16696   0.66452   0.00000  Uiso   1.00
C898   C     0.16684   0.16634   0.83526   0.00000  Uiso   1.00
C899   C     0.20444   0.17390   0.90582   0.00000  Uiso   1.00
C900   C     0.12856   0.17047   0.59133   0.00000  Uiso   1.00
C901   C     0.16767   0.16463   0.88341   0.00000  Uiso   1.00
C902   C     0.16575   0.16778   0.61593   0.00000  Uiso   1.00
C903   C     0.13312   0.14943   0.90642   0.00000  Uiso   1.00
C904   C     0.20363   0.16696   0.59354   0.00000  Uiso   1.00
C905   C     0.13235   0.15275   0.95270   0.00000  Uiso   1.00
C906   C     0.20431   0.16997   0.54693   0.00000  Uiso   1.00
C907   C     0.16851   0.16367   0.97608   0.00000  Uiso   1.00
C908   C     0.16770   0.16441   0.52296   0.00000  Uiso   1.00
C909   C     0.20528   0.17372   0.95282   0.00000  Uiso   1.00
C910   C     0.12999   0.16095   0.54577   0.00000  Uiso   1.00
C911   C     0.09590   0.14575   0.97609   0.00000  Uiso   1.00
C912   C     0.24047   0.17938   0.52384   0.00000  Uiso   1.00
Cu913  Cu    0.16667   0.21355   0.75000   0.00000  Uiso   1.00
Cu914  Cu    0.16667   0.11978   0.75000   0.00000  Uiso   1.00
H915   H     0.06776   0.13789   0.95913   0.00000  Uiso   1.00
H916   H     0.26847   0.18636   0.54144   0.00000  Uiso   1.00
N917   N     0.16667   0.28402   0.75000   0.00000  Uiso   1.00
N918   N     0.16667   0.04931   0.75000   0.00000  Uiso   1.00
O919   O     0.10655   0.20625   0.74999   0.00000  Uiso   1.00
O920   O     0.22679   0.12709   0.75000   0.00000  Uiso   1.00
O921   O     0.22679   0.20625   0.75000   0.00000  Uiso   1.00
O922   O     0.10655   0.12709   0.74999   0.00000  Uiso   1.00
O923   O     0.16666   0.20627   0.68513   0.00000  Uiso   1.00
O924   O     0.16668   0.12707   0.81487   0.00000  Uiso   1.00
O925   O     0.16668   0.20627   0.81487   0.00000  Uiso   1.00
O926   O     0.16666   0.12707   0.68513   0.00000  Uiso   1.00
O927   O     0.23952   0.18118   0.88116   0.00000  Uiso   1.00
C928   C     0.25775   0.13793   0.87120   0.00000  Uiso   1.00
H929   H     0.23894   0.11834   0.84748   0.00000  Uiso   1.00
H930   H     0.26370   0.11701   0.90164   0.00000  Uiso   1.00
H931   H     0.28755   0.14359   0.85480   0.00000  Uiso   1.00
O932   O     0.09483   0.19663   0.60512   0.00000  Uiso   1.00
C933   C     0.07907   0.18323   0.64636   0.00000  Uiso   1.00
H934   H     0.08818   0.20892   0.67121   0.00000  Uiso   1.00
H935   H     0.08813   0.14766   0.65633   0.00000  Uiso   1.00
H936   H     0.04516   0.18495   0.64468   0.00000  Uiso   1.00
I937   I     0.08476   0.11557   0.87135   0.00000  Uiso   1.00
I938   I     0.25951   0.16306   0.63073   0.00000  Uiso   1.00
I939   I     0.03636   0.13555   0.55068   0.00000  Uiso   1.00
I940   I     0.29759   0.20860   0.95262   0.00000  Uiso   1.00
O941   O     0.04462   0.09454   0.71002   0.00000  Uiso   1.00
C942   C     0.02922   0.08268   0.66775   0.00000  Uiso   1.00
H943   H     0.05538   0.07416   0.64567   0.00000  Uiso   1.00
H944   H     0.01133   0.11091   0.65141   0.00000  Uiso   1.00
H945   H     0.01058   0.05116   0.67024   0.00000  Uiso   1.00
O946   O     0.28881   0.23251   0.79935   0.00000  Uiso   1.00
C947   C     0.29787   0.27761   0.78510   0.00000  Uiso   1.00
H948   H     0.26949   0.29884   0.78819   0.00000  Uiso   1.00
H949   H     0.30856   0.27976   0.75003   0.00000  Uiso   1.00
H950   H     0.32119   0.29308   0.80696   0.00000  Uiso   1.00
O951   O     0.29155   0.09060   0.71762   0.00000  Uiso   1.00
C952   C     0.29282   0.05510   0.74967   0.00000  Uiso   1.00
H953   H     0.27169   0.02793   0.73884   0.00000  Uiso   1.00
H954   H     0.28218   0.06711   0.78287   0.00000  Uiso   1.00
H955   H     0.32409   0.03963   0.75232   0.00000  Uiso   1.00
O956   O     0.04211   0.22509   0.80752   0.00000  Uiso   1.00
C957   C     0.02963   0.21622   0.85176   0.00000  Uiso   1.00
H958   H     0.05699   0.21547   0.87350   0.00000  Uiso   1.00
H959   H     0.01424   0.18268   0.85662   0.00000  Uiso   1.00
H960   H     0.00925   0.24443   0.86371   0.00000  Uiso   1.00
O961   O     0.18742   0.04657   0.67382   0.00000  Uiso   1.00
C962   C     0.15585   0.04065   0.64232   0.00000  Uiso   1.00
H963   H     0.12539   0.05093   0.65598   0.00000  Uiso   1.00
H964   H     0.15503   0.00478   0.62980   0.00000  Uiso   1.00
H965   H     0.16192   0.06326   0.61337   0.00000  Uiso   1.00
O966   O     0.13585   0.28627   0.82164   0.00000  Uiso   1.00
C967   C     0.09618   0.30428   0.83040   0.00000  Uiso   1.00
H968   H     0.08303   0.28469   0.85821   0.00000  Uiso   1.00
H969   H     0.07599   0.30174   0.80081   0.00000  Uiso   1.00
H970   H     0.09618   0.00692   0.84226   0.00000  Uiso   1.00
O971   O     0.15678   0.04579   0.82827   0.00000  Uiso   1.00
C972   C     0.19175   0.03325   0.85343   0.00000  Uiso   1.00
H973   H     0.22064   0.03805   0.83435   0.00000  Uiso   1.00
H974   H     0.18995   0.33050   0.86559   0.00000  Uiso   1.00
H975   H     0.19299   0.05581   0.88301   0.00000  Uiso   1.00
O976   O     0.19531   0.28505   0.67740   0.00000  Uiso   1.00
C977   C     0.23813   0.28952   0.67438   0.00000  Uiso   1.00
H978   H     0.25354   0.27361   0.70346   0.00000  Uiso   1.00
H979   H     0.24745   0.32592   0.67038   0.00000  Uiso   1.00
H980   H     0.24895   0.27087   0.64446   0.00000  Uiso   1.00
C981   C     0.42085   0.16662   0.75127   0.00000  Uiso   1.00
C982   C     0.57910   0.16626   0.75118   0.00000  Uiso   1.00
C983   C     0.42746   0.15074   0.52177   0.00000  Uiso   1.00
C984   C     0.57437   0.18347   0.97777   0.00000  Uiso   1.00
C985   C     0.35524   0.12980   0.73025   0.00000  Uiso   1.00
C986   C     0.64456   0.20023   0.77521   0.00000  Uiso   1.00
C987   C     0.64571   0.12790   0.73413   0.00000  Uiso   1.00
C988   C     0.35423   0.19774   0.77815   0.00000  Uiso   1.00
C989   C     0.62383   0.16511   0.75305   0.00000  Uiso   1.00
C990   C     0.37601   0.16555   0.75223   0.00000  Uiso   1.00
C991   C     0.51033   0.02427   0.71262   0.00000  Uiso   1.00
C992   C     0.48602   0.30892   0.78573   0.00000  Uiso   1.00
C993   C     0.49213   0.02423   0.78771   0.00000  Uiso   1.00
C994   C     0.51429   0.30838   0.71424   0.00000  Uiso   1.00
C995   C     0.49929   0.16696   0.66452   0.00000  Uiso   1.00
C996   C     0.50018   0.16634   0.83526   0.00000  Uiso   1.00
C997   C     0.53777   0.17390   0.90582   0.00000  Uiso   1.00
C998   C     0.46189   0.17047   0.59133   0.00000  Uiso   1.00
C999   C     0.50100   0.16463   0.88341   0.00000  Uiso   1.00
C1000  C     0.49908   0.16778   0.61593   0.00000  Uiso   1.00
C1001  C     0.46646   0.14943   0.90642   0.00000  Uiso   1.00
C1002  C     0.53697   0.16696   0.59354   0.00000  Uiso   1.00
C1003  C     0.46568   0.15275   0.95270   0.00000  Uiso   1.00
C1004  C     0.53764   0.16997   0.54693   0.00000  Uiso   1.00
C1005  C     0.50184   0.16367   0.97608   0.00000  Uiso   1.00
C1006  C     0.50103   0.16441   0.52296   0.00000  Uiso   1.00
C1007  C     0.53861   0.17372   0.95282   0.00000  Uiso   1.00
C1008  C     0.46332   0.16095   0.54577   0.00000  Uiso   1.00
C1009  C     0.42924   0.14575   0.97609   0.00000  Uiso   1.00
C1010  C     0.57380   0.17938   0.52384   0.00000  Uiso   1.00
Cu1011 Cu    0.50000   0.21355   0.75000   0.00000  Uiso   1.00
Cu1012 Cu    0.50000   0.11978   0.75000   0.00000  Uiso   1.00
H1013  H     0.40109   0.13789   0.95913   0.00000  Uiso   1.00
H1014  H     0.60181   0.18636   0.54144   0.00000  Uiso   1.00
N1015  N     0.50000   0.28402   0.75000   0.00000  Uiso   1.00
N1016  N     0.50000   0.04931   0.75000   0.00000  Uiso   1.00
O1017  O     0.43988   0.20625   0.74999   0.00000  Uiso   1.00
O1018  O     0.56012   0.12709   0.75000   0.00000  Uiso   1.00
O1019  O     0.56012   0.20625   0.75000   0.00000  Uiso   1.00
O1020  O     0.43988   0.12709   0.74999   0.00000  Uiso   1.00
O1021  O     0.49999   0.20627   0.68513   0.00000  Uiso   1.00
O1022  O     0.50001   0.12707   0.81487   0.00000  Uiso   1.00
O1023  O     0.50001   0.20627   0.81487   0.00000  Uiso   1.00
O1024  O     0.49999   0.12707   0.68513   0.00000  Uiso   1.00
O1025  O     0.57285   0.18118   0.88116   0.00000  Uiso   1.00
C1026  C     0.59108   0.13793   0.87120   0.00000  Uiso   1.00
H1027  H     0.57228   0.11834   0.84748   0.00000  Uiso   1.00
H1028  H     0.59703   0.11701   0.90164   0.00000  Uiso   1.00
H1029  H     0.62088   0.14359   0.85480   0.00000  Uiso   1.00
O1030  O     0.42816   0.19663   0.60512   0.00000  Uiso   1.00
C1031  C     0.41241   0.18323   0.64636   0.00000  Uiso   1.00
H1032  H     0.42152   0.20892   0.67121   0.00000  Uiso   1.00
H1033  H     0.42147   0.14766   0.65633   0.00000  Uiso   1.00
H1034  H     0.37849   0.18495   0.64468   0.00000  Uiso   1.00
I1035  I     0.41809   0.11557   0.87135   0.00000  Uiso   1.00
I1036  I     0.59284   0.16306   0.63073   0.00000  Uiso   1.00
I1037  I     0.36970   0.13555   0.55068   0.00000  Uiso   1.00
I1038  I     0.63092   0.20860   0.95262   0.00000  Uiso   1.00
O1039  O     0.37795   0.09454   0.71002   0.00000  Uiso   1.00
C1040  C     0.36256   0.08268   0.66775   0.00000  Uiso   1.00
H1041  H     0.38872   0.07416   0.64567   0.00000  Uiso   1.00
H1042  H     0.34466   0.11091   0.65141   0.00000  Uiso   1.00
H1043  H     0.34391   0.05116   0.67024   0.00000  Uiso   1.00
O1044  O     0.62215   0.23251   0.79935   0.00000  Uiso   1.00
C1045  C     0.63120   0.27761   0.78510   0.00000  Uiso   1.00
H1046  H     0.60282   0.29884   0.78819   0.00000  Uiso   1.00
H1047  H     0.64190   0.27976   0.75003   0.00000  Uiso   1.00
H1048  H     0.65452   0.29308   0.80696   0.00000  Uiso   1.00
O1049  O     0.62489   0.09060   0.71762   0.00000  Uiso   1.00
C1050  C     0.62615   0.05510   0.74967   0.00000  Uiso   1.00
H1051  H     0.60502   0.02793   0.73884   0.00000  Uiso   1.00
H1052  H     0.61551   0.06711   0.78287   0.00000  Uiso   1.00
H1053  H     0.65743   0.03963   0.75232   0.00000  Uiso   1.00
O1054  O     0.37545   0.22509   0.80752   0.00000  Uiso   1.00
C1055  C     0.36296   0.21622   0.85176   0.00000  Uiso   1.00
H1056  H     0.39032   0.21547   0.87350   0.00000  Uiso   1.00
H1057  H     0.34758   0.18268   0.85662   0.00000  Uiso   1.00
H1058  H     0.34259   0.24443   0.86371   0.00000  Uiso   1.00
O1059  O     0.52076   0.04657   0.67382   0.00000  Uiso   1.00
C1060  C     0.48918   0.04065   0.64232   0.00000  Uiso   1.00
H1061  H     0.45872   0.05093   0.65598   0.00000  Uiso   1.00
H1062  H     0.48837   0.00478   0.62980   0.00000  Uiso   1.00
H1063  H     0.49526   0.06326   0.61337   0.00000  Uiso   1.00
O1064  O     0.46918   0.28627   0.82164   0.00000  Uiso   1.00
C1065  C     0.42952   0.30428   0.83040   0.00000  Uiso   1.00
H1066  H     0.41636   0.28469   0.85821   0.00000  Uiso   1.00
H1067  H     0.40932   0.30174   0.80081   0.00000  Uiso   1.00
H1068  H     0.42951   0.00692   0.84226   0.00000  Uiso   1.00
O1069  O     0.49011   0.04579   0.82827   0.00000  Uiso   1.00
C1070  C     0.52509   0.03325   0.85343   0.00000  Uiso   1.00
H1071  H     0.55397   0.03805   0.83435   0.00000  Uiso   1.00
H1072  H     0.52328   0.33050   0.86559   0.00000  Uiso   1.00
H1073  H     0.52632   0.05581   0.88301   0.00000  Uiso   1.00
O1074  O     0.52864   0.28505   0.67740   0.00000  Uiso   1.00
C1075  C     0.57146   0.28952   0.67438   0.00000  Uiso   1.00
H1076  H     0.58687   0.27361   0.70346   0.00000  Uiso   1.00
H1077  H     0.58078   0.32592   0.67038   0.00000  Uiso   1.00
H1078  H     0.58228   0.27087   0.64446   0.00000  Uiso   1.00
C1079  C     0.75418   0.16662   0.75127   0.00000  Uiso   1.00
C1080  C     0.91243   0.16626   0.75118   0.00000  Uiso   1.00
C1081  C     0.76080   0.15074   0.52177   0.00000  Uiso   1.00
C1082  C     0.90770   0.18347   0.97777   0.00000  Uiso   1.00
C1083  C     0.68858   0.12980   0.73025   0.00000  Uiso   1.00
C1084  C     0.97789   0.20023   0.77521   0.00000  Uiso   1.00
C1085  C     0.97904   0.12790   0.73413   0.00000  Uiso   1.00
C1086  C     0.68756   0.19774   0.77815   0.00000  Uiso   1.00
C1087  C     0.95716   0.16511   0.75305   0.00000  Uiso   1.00
C1088  C     0.70935   0.16555   0.75223   0.00000  Uiso   1.00
C1089  C     0.84366   0.02427   0.71262   0.00000  Uiso   1.00
C1090  C     0.81936   0.30892   0.78573   0.00000  Uiso   1.00
C1091  C     0.82546   0.02423   0.78771   0.00000  Uiso   1.00
C1092  C     0.84762   0.30838   0.71424   0.00000  Uiso   1.00
C1093  C     0.83262   0.16696   0.66452   0.00000  Uiso   1.00
C1094  C     0.83351   0.16634   0.83526   0.00000  Uiso   1.00
C1095  C     0.87110   0.17390   0.90582   0.00000  Uiso   1.00
C1096  C     0.79522   0.17047   0.59133   0.00000  Uiso   1.00
C1097  C     0.83434   0.16463   0.88341   0.00000  Uiso   1.00
C1098  C     0.83242   0.16778   0.61593   0.00000  Uiso   1.00
C1099  C     0.79979   0.14943   0.90642   0.00000  Uiso   1.00
C1100  C     0.87030   0.16696   0.59354   0.00000  Uiso   1.00
C1101  C     0.79902   0.15275   0.95270   0.00000  Uiso   1.00
C1102  C     0.87097   0.16997   0.54693   0.00000  Uiso   1.00
C1103  C     0.83518   0.16367   0.97608   0.00000  Uiso   1.00
C1104  C     0.83437   0.16441   0.52296   0.00000  Uiso   1.00
C1105  C     0.87194   0.17372   0.95282   0.00000  Uiso   1.00
C1106  C     0.79665   0.16095   0.54577   0.00000  Uiso   1.00
C1107  C     0.76257   0.14575   0.97609   0.00000  Uiso   1.00
C1108  C     0.90713   0.17938   0.52384   0.00000  Uiso   1.00
Cu1109 Cu    0.83333   0.21355   0.75000   0.00000  Uiso   1.00
Cu1110 Cu    0.83333   0.11978   0.75000   0.00000  Uiso   1.00
H1111  H     0.73442   0.13789   0.95913   0.00000  Uiso   1.00
H1112  H     0.93514   0.18636   0.54144   0.00000  Uiso   1.00
N1113  N     0.83333   0.28402   0.75000   0.00000  Uiso   1.00
N1114  N     0.83333   0.04931   0.75000   0.00000  Uiso   1.00
O1115  O     0.77321   0.20625   0.74999   0.00000  Uiso   1.00
O1116  O     0.89345   0.12709   0.75000   0.00000  Uiso   1.00
O1117  O     0.89345   0.20625   0.75000   0.00000  Uiso   1.00
O1118  O     0.77321   0.12709   0.74999   0.00000  Uiso   1.00
O1119  O     0.83332   0.20627   0.68513   0.00000  Uiso   1.00
O1120  O     0.83334   0.12707   0.81487   0.00000  Uiso   1.00
O1121  O     0.83334   0.20627   0.81487   0.00000  Uiso   1.00
O1122  O     0.83332   0.12707   0.68513   0.00000  Uiso   1.00
O1123  O     0.90618   0.18118   0.88116   0.00000  Uiso   1.00
C1124  C     0.92441   0.13793   0.87120   0.00000  Uiso   1.00
H1125  H     0.90561   0.11834   0.84748   0.00000  Uiso   1.00
H1126  H     0.93036   0.11701   0.90164   0.00000  Uiso   1.00
H1127  H     0.95422   0.14359   0.85480   0.00000  Uiso   1.00
O1128  O     0.76150   0.19663   0.60512   0.00000  Uiso   1.00
C1129  C     0.74574   0.18323   0.64636   0.00000  Uiso   1.00
H1130  H     0.75485   0.20892   0.67121   0.00000  Uiso   1.00
H1131  H     0.75480   0.14766   0.65633   0.00000  Uiso   1.00
H1132  H     0.71182   0.18495   0.64468   0.00000  Uiso   1.00
I1133  I     0.75142   0.11557   0.87135   0.00000  Uiso   1.00
I1134  I     0.92618   0.16306   0.63073   0.00000  Uiso   1.00
I1135  I     0.70303   0.13555   0.55068   0.00000  Uiso   1.00
I1136  I     0.96426   0.20860   0.95262   0.00000  Uiso   1.00
O1137  O     0.71129   0.09454   0.71002   0.00000  Uiso   1.00
C1138  C     0.69589   0.08268   0.66775   0.00000  Uiso   1.00
H1139  H     0.72205   0.07416   0.64567   0.00000  Uiso   1.00
H1140  H     0.67799   0.11091   0.65141   0.00000  Uiso   1.00
H1141  H     0.67725   0.05116   0.67024   0.00000  Uiso   1.00
O1142  O     0.95548   0.23251   0.79935   0.00000  Uiso   1.00
C1143  C     0.96453   0.27761   0.78510   0.00000  Uiso   1.00
H1144  H     0.93615   0.29884   0.78819   0.00000  Uiso   1.00
H1145  H     0.97523   0.27976   0.75003   0.00000  Uiso   1.00
H1146  H     0.98786   0.29308   0.80696   0.00000  Uiso   1.00
O1147  O     0.95822   0.09060   0.71762   0.00000  Uiso   1.00
C1148  C     0.95948   0.05510   0.74967   0.00000  Uiso   1.00
H1149  H     0.93835   0.02793   0.73884   0.00000  Uiso   1.00
H1150  H     0.94885   0.06711   0.78287   0.00000  Uiso   1.00
H1151  H     0.99076   0.03963   0.75232   0.00000  Uiso   1.00
O1152  O     0.70878   0.22509   0.80752   0.00000  Uiso   1.00
C1153  C     0.69630   0.21622   0.85176   0.00000  Uiso   1.00
H1154  H     0.72366   0.21547   0.87350   0.00000  Uiso   1.00
H1155  H     0.68091   0.18268   0.85662   0.00000  Uiso   1.00
H1156  H     0.67592   0.24443   0.86371   0.00000  Uiso   1.00
O1157  O     0.85409   0.04657   0.67382   0.00000  Uiso   1.00
C1158  C     0.82252   0.04065   0.64232   0.00000  Uiso   1.00
H1159  H     0.79205   0.05093   0.65598   0.00000  Uiso   1.00
H1160  H     0.82170   0.00478   0.62980   0.00000  Uiso   1.00
H1161  H     0.82859   0.06326   0.61337   0.00000  Uiso   1.00
O1162  O     0.80251   0.28627   0.82164   0.00000  Uiso   1.00
C1163  C     0.76285   0.30428   0.83040   0.00000  Uiso   1.00
H1164  H     0.74970   0.28469   0.85821   0.00000  Uiso   1.00
H1165  H     0.74266   0.30174   0.80081   0.00000  Uiso   1.00
H1166  H     0.76284   0.00692   0.84226   0.00000  Uiso   1.00
O1167  O     0.82345   0.04579   0.82827   0.00000  Uiso   1.00
C1168  C     0.85842   0.03325   0.85343   0.00000  Uiso   1.00
H1169  H     0.88731   0.03805   0.83435   0.00000  Uiso   1.00
H1170  H     0.85661   0.33050   0.86559   0.00000  Uiso   1.00
H1171  H     0.85965   0.05581   0.88301   0.00000  Uiso   1.00
O1172  O     0.86197   0.28505   0.67740   0.00000  Uiso   1.00
C1173  C     0.90480   0.28952   0.67438   0.00000  Uiso   1.00
H1174  H     0.92020   0.27361   0.70346   0.00000  Uiso   1.00
H1175  H     0.91412   0.32592   0.67038   0.00000  Uiso   1.00
H1176  H     0.91561   0.27087   0.64446   0.00000  Uiso   1.00
C1177  C     0.08752   0.49995   0.75127   0.00000  Uiso   1.00
C1178  C     0.24576   0.49960   0.75118   0.00000  Uiso   1.00
C1179  C     0.09413   0.48407   0.52177   0.00000  Uiso   1.00
C1180  C     0.24103   0.51680   0.97777   0.00000  Uiso   1.00
C1181  C     0.02191   0.46313   0.73025   0.00000  Uiso   1.00
C1182  C     0.31122   0.53357   0.77521   0.00000  Uiso   1.00
C1183  C     0.31238   0.46123   0.73413   0.00000  Uiso   1.00
C1184  C     0.02089   0.53108   0.77815   0.00000  Uiso   1.00
C1185  C     0.29049   0.49844   0.75305   0.00000  Uiso   1.00
C1186  C     0.04268   0.49889   0.75223   0.00000  Uiso   1.00
C1187  C     0.17700   0.35760   0.71262   0.00000  Uiso   1.00
C1188  C     0.15269   0.64225   0.78573   0.00000  Uiso   1.00
C1189  C     0.15879   0.35756   0.78771   0.00000  Uiso   1.00
C1190  C     0.18095   0.64172   0.71424   0.00000  Uiso   1.00
C1191  C     0.16595   0.50029   0.66452   0.00000  Uiso   1.00
C1192  C     0.16684   0.49968   0.83526   0.00000  Uiso   1.00
C1193  C     0.20444   0.50723   0.90582   0.00000  Uiso   1.00
C1194  C     0.12856   0.50380   0.59133   0.00000  Uiso   1.00
C1195  C     0.16767   0.49796   0.88341   0.00000  Uiso   1.00
C1196  C     0.16575   0.50112   0.61593   0.00000  Uiso   1.00
C1197  C     0.13312   0.48276   0.90642   0.00000  Uiso   1.00
C1198  C     0.20363   0.50030   0.59354   0.00000  Uiso   1.00
C1199  C     0.13235   0.48609   0.95270   0.00000  Uiso   1.00
C1200  C     0.20431   0.50330   0.54693   0.00000  Uiso   1.00
C1201  C     0.16851   0.49701   0.97608   0.00000  Uiso   1.00
C1202  C     0.16770   0.49774   0.52296   0.00000  Uiso   1.00
C1203  C     0.20528   0.50706   0.95282   0.00000  Uiso   1.00
C1204  C     0.12999   0.49429   0.54577   0.00000  Uiso   1.00
C1205  C     0.09590   0.47908   0.97609   0.00000  Uiso   1.00
C1206  C     0.24047   0.51271   0.52384   0.00000  Uiso   1.00
Cu1207 Cu    0.16667   0.54689   0.75000   0.00000  Uiso   1.00
Cu1208 Cu    0.16667   0.45311   0.75000   0.00000  Uiso   1.00
H1209  H     0.06776   0.47122   0.95913   0.00000  Uiso   1.00
H1210  H     0.26847   0.51969   0.54144   0.00000  Uiso   1.00
N1211  N     0.16667   0.61736   0.75000   0.00000  Uiso   1.00
N1212  N     0.16667   0.38264   0.75000   0.00000  Uiso   1.00
O1213  O     0.10655   0.53958   0.74999   0.00000  Uiso   1.00
O1214  O     0.22679   0.46042   0.75000   0.00000  Uiso   1.00
O1215  O     0.22679   0.53958   0.75000   0.00000  Uiso   1.00
O1216  O     0.10655   0.46042   0.74999   0.00000  Uiso   1.00
O1217  O     0.16666   0.53960   0.68513   0.00000  Uiso   1.00
O1218  O     0.16668   0.46040   0.81487   0.00000  Uiso   1.00
O1219  O     0.16668   0.53960   0.81487   0.00000  Uiso   1.00
O1220  O     0.16666   0.46040   0.68513   0.00000  Uiso   1.00
O1221  O     0.23952   0.51451   0.88116   0.00000  Uiso   1.00
C1222  C     0.25775   0.47126   0.87120   0.00000  Uiso   1.00
H1223  H     0.23894   0.45167   0.84748   0.00000  Uiso   1.00
H1224  H     0.26370   0.45034   0.90164   0.00000  Uiso   1.00
H1225  H     0.28755   0.47692   0.85480   0.00000  Uiso   1.00
O1226  O     0.09483   0.52997   0.60512   0.00000  Uiso   1.00
C1227  C     0.07907   0.51656   0.64636   0.00000  Uiso   1.00
H1228  H     0.08818   0.54225   0.67121   0.00000  Uiso   1.00
H1229  H     0.08813   0.48100   0.65633   0.00000  Uiso   1.00
H1230  H     0.04516   0.51829   0.64468   0.00000  Uiso   1.00
I1231  I     0.08476   0.44891   0.87135   0.00000  Uiso   1.00
I1232  I     0.25951   0.49639   0.63073   0.00000  Uiso   1.00
I1233  I     0.03636   0.46888   0.55068   0.00000  Uiso   1.00
I1234  I     0.29759   0.54193   0.95262   0.00000  Uiso   1.00
O1235  O     0.04462   0.42788   0.71002   0.00000  Uiso   1.00
C1236  C     0.02922   0.41602   0.66775   0.00000  Uiso   1.00
H1237  H     0.05538   0.40749   0.64567   0.00000  Uiso   1.00
H1238  H     0.01133   0.44424   0.65141   0.00000  Uiso   1.00
H1239  H     0.01058   0.38449   0.67024   0.00000  Uiso   1.00
O1240  O     0.28881   0.56585   0.79935   0.00000  Uiso   1.00
C1241  C     0.29787   0.61095   0.78510   0.00000  Uiso   1.00
H1242  H     0.26949   0.63218   0.78819   0.00000  Uiso   1.00
H1243  H     0.30856   0.61309   0.75003   0.00000  Uiso   1.00
H1244  H     0.32119   0.62641   0.80696   0.00000  Uiso   1.00
O1245  O     0.29155   0.42393   0.71762   0.00000  Uiso   1.00
C1246  C     0.29282   0.38844   0.74967   0.00000  Uiso   1.00
H1247  H     0.27169   0.36126   0.73884   0.00000  Uiso   1.00
H1248  H     0.28218   0.40045   0.78287   0.00000  Uiso   1.00
H1249  H     0.32409   0.37297   0.75232   0.00000  Uiso   1.00
O1250  O     0.04211   0.55843   0.80752   0.00000  Uiso   1.00
C1251  C     0.02963   0.54956   0.85176   0.00000  Uiso   1.00
H1252  H     0.05699   0.54880   0.87350   0.00000  Uiso   1.00
H1253  H     0.01424   0.51602   0.85662   0.00000  Uiso   1.00
H1254  H     0.00925   0.57776   0.86371   0.00000  Uiso   1.00
O1255  O     0.18742   0.37990   0.67382   0.00000  Uiso   1.00
C1256  C     0.15585   0.37398   0.64232   0.00000  Uiso   1.00
H1257  H     0.12539   0.38426   0.65598   0.00000  Uiso   1.00
H1258  H     0.15503   0.33811   0.62980   0.00000  Uiso   1.00
H1259  H     0.16192   0.39660   0.61337   0.00000  Uiso   1.00
O1260  O     0.13585   0.61960   0.82164   0.00000  Uiso   1.00
C1261  C     0.09618   0.63761   0.83040   0.00000  Uiso   1.00
H1262  H     0.08303   0.61802   0.85821   0.00000  Uiso   1.00
H1263  H     0.07599   0.63507   0.80081   0.00000  Uiso   1.00
H1264  H     0.09618   0.34026   0.84226   0.00000  Uiso   1.00
O1265  O     0.15678   0.37912   0.82827   0.00000  Uiso   1.00
C1266  C     0.19175   0.36658   0.85343   0.00000  Uiso   1.00
H1267  H     0.22064   0.37139   0.83435   0.00000  Uiso   1.00
H1268  H     0.18995   0.66383   0.86559   0.00000  Uiso   1.00
H1269  H     0.19299   0.38914   0.88301   0.00000  Uiso   1.00
O1270  O     0.19531   0.61838   0.67740   0.00000  Uiso   1.00
C1271  C     0.23813   0.62285   0.67438   0.00000  Uiso   1.00
H1272  H     0.25354   0.60694   0.70346   0.00000  Uiso   1.00
H1273  H     0.24745   0.65925   0.67038   0.00000  Uiso   1.00
H1274  H     0.24895   0.60420   0.64446   0.00000  Uiso   1.00
C1275  C     0.42085   0.49995   0.75127   0.00000  Uiso   1.00
C1276  C     0.57910   0.49960   0.75118   0.00000  Uiso   1.00
C1277  C     0.42746   0.48407   0.52177   0.00000  Uiso   1.00
C1278  C     0.57437   0.51680   0.97777   0.00000  Uiso   1.00
C1279  C     0.35524   0.46313   0.73025   0.00000  Uiso   1.00
C1280  C     0.64456   0.53357   0.77521   0.00000  Uiso   1.00
C1281  C     0.64571   0.46123   0.73413   0.00000  Uiso   1.00
C1282  C     0.35423   0.53108   0.77815   0.00000  Uiso   1.00
C1283  C     0.62383   0.49844   0.75305   0.00000  Uiso   1.00
C1284  C     0.37601   0.49889   0.75223   0.00000  Uiso   1.00
C1285  C     0.51033   0.35760   0.71262   0.00000  Uiso   1.00
C1286  C     0.48602   0.64225   0.78573   0.00000  Uiso   1.00
C1287  C     0.49213   0.35756   0.78771   0.00000  Uiso   1.00
C1288  C     0.51429   0.64172   0.71424   0.00000  Uiso   1.00
C1289  C     0.49929   0.50029   0.66452   0.00000  Uiso   1.00
C1290  C     0.50018   0.49968   0.83526   0.00000  Uiso   1.00
C1291  C     0.53777   0.50723   0.90582   0.00000  Uiso   1.00
C1292  C     0.46189   0.50380   0.59133   0.00000  Uiso   1.00
C1293  C     0.50100   0.49796   0.88341   0.00000  Uiso   1.00
C1294  C     0.49908   0.50112   0.61593   0.00000  Uiso   1.00
C1295  C     0.46646   0.48276   0.90642   0.00000  Uiso   1.00
C1296  C     0.53697   0.50030   0.59354   0.00000  Uiso   1.00
C1297  C     0.46568   0.48609   0.95270   0.00000  Uiso   1.00
C1298  C     0.53764   0.50330   0.54693   0.00000  Uiso   1.00
C1299  C     0.50184   0.49701   0.97608   0.00000  Uiso   1.00
C1300  C     0.50103   0.49774   0.52296   0.00000  Uiso   1.00
C1301  C     0.53861   0.50706   0.95282   0.00000  Uiso   1.00
C1302  C     0.46332   0.49429   0.54577   0.00000  Uiso   1.00
C1303  C     0.42924   0.47908   0.97609   0.00000  Uiso   1.00
C1304  C     0.57380   0.51271   0.52384   0.00000  Uiso   1.00
Cu1305 Cu    0.50000   0.54689   0.75000   0.00000  Uiso   1.00
Cu1306 Cu    0.50000   0.45311   0.75000   0.00000  Uiso   1.00
H1307  H     0.40109   0.47122   0.95913   0.00000  Uiso   1.00
H1308  H     0.60181   0.51969   0.54144   0.00000  Uiso   1.00
N1309  N     0.50000   0.61736   0.75000   0.00000  Uiso   1.00
N1310  N     0.50000   0.38264   0.75000   0.00000  Uiso   1.00
O1311  O     0.43988   0.53958   0.74999   0.00000  Uiso   1.00
O1312  O     0.56012   0.46042   0.75000   0.00000  Uiso   1.00
O1313  O     0.56012   0.53958   0.75000   0.00000  Uiso   1.00
O1314  O     0.43988   0.46042   0.74999   0.00000  Uiso   1.00
O1315  O     0.49999   0.53960   0.68513   0.00000  Uiso   1.00
O1316  O     0.50001   0.46040   0.81487   0.00000  Uiso   1.00
O1317  O     0.50001   0.53960   0.81487   0.00000  Uiso   1.00
O1318  O     0.49999   0.46040   0.68513   0.00000  Uiso   1.00
O1319  O     0.57285   0.51451   0.88116   0.00000  Uiso   1.00
C1320  C     0.59108   0.47126   0.87120   0.00000  Uiso   1.00
H1321  H     0.57228   0.45167   0.84748   0.00000  Uiso   1.00
H1322  H     0.59703   0.45034   0.90164   0.00000  Uiso   1.00
H1323  H     0.62088   0.47692   0.85480   0.00000  Uiso   1.00
O1324  O     0.42816   0.52997   0.60512   0.00000  Uiso   1.00
C1325  C     0.41241   0.51656   0.64636   0.00000  Uiso   1.00
H1326  H     0.42152   0.54225   0.67121   0.00000  Uiso   1.00
H1327  H     0.42147   0.48100   0.65633   0.00000  Uiso   1.00
H1328  H     0.37849   0.51829   0.64468   0.00000  Uiso   1.00
I1329  I     0.41809   0.44891   0.87135   0.00000  Uiso   1.00
I1330  I     0.59284   0.49639   0.63073   0.00000  Uiso   1.00
I1331  I     0.36970   0.46888   0.55068   0.00000  Uiso   1.00
I1332  I     0.63092   0.54193   0.95262   0.00000  Uiso   1.00
O1333  O     0.37795   0.42788   0.71002   0.00000  Uiso   1.00
C1334  C     0.36256   0.41602   0.66775   0.00000  Uiso   1.00
H1335  H     0.38872   0.40749   0.64567   0.00000  Uiso   1.00
H1336  H     0.34466   0.44424   0.65141   0.00000  Uiso   1.00
H1337  H     0.34391   0.38449   0.67024   0.00000  Uiso   1.00
O1338  O     0.62215   0.56585   0.79935   0.00000  Uiso   1.00
C1339  C     0.63120   0.61095   0.78510   0.00000  Uiso   1.00
H1340  H     0.60282   0.63218   0.78819   0.00000  Uiso   1.00
H1341  H     0.64190   0.61309   0.75003   0.00000  Uiso   1.00
H1342  H     0.65452   0.62641   0.80696   0.00000  Uiso   1.00
O1343  O     0.62489   0.42393   0.71762   0.00000  Uiso   1.00
C1344  C     0.62615   0.38844   0.74967   0.00000  Uiso   1.00
H1345  H     0.60502   0.36126   0.73884   0.00000  Uiso   1.00
H1346  H     0.61551   0.40045   0.78287   0.00000  Uiso   1.00
H1347  H     0.65743   0.37297   0.75232   0.00000  Uiso   1.00
O1348  O     0.37545   0.55843   0.80752   0.00000  Uiso   1.00
C1349  C     0.36296   0.54956   0.85176   0.00000  Uiso   1.00
H1350  H     0.39032   0.54880   0.87350   0.00000  Uiso   1.00
H1351  H     0.34758   0.51602   0.85662   0.00000  Uiso   1.00
H1352  H     0.34259   0.57776   0.86371   0.00000  Uiso   1.00
O1353  O     0.52076   0.37990   0.67382   0.00000  Uiso   1.00
C1354  C     0.48918   0.37398   0.64232   0.00000  Uiso   1.00
H1355  H     0.45872   0.38426   0.65598   0.00000  Uiso   1.00
H1356  H     0.48837   0.33811   0.62980   0.00000  Uiso   1.00
H1357  H     0.49526   0.39660   0.61337   0.00000  Uiso   1.00
O1358  O     0.46918   0.61960   0.82164   0.00000  Uiso   1.00
C1359  C     0.42952   0.63761   0.83040   0.00000  Uiso   1.00
H1360  H     0.41636   0.61802   0.85821   0.00000  Uiso   1.00
H1361  H     0.40932   0.63507   0.80081   0.00000  Uiso   1.00
H1362  H     0.42951   0.34026   0.84226   0.00000  Uiso   1.00
O1363  O     0.49011   0.37912   0.82827   0.00000  Uiso   1.00
C1364  C     0.52509   0.36658   0.85343   0.00000  Uiso   1.00
H1365  H     0.55397   0.37139   0.83435   0.00000  Uiso   1.00
H1366  H     0.52328   0.66383   0.86559   0.00000  Uiso   1.00
H1367  H     0.52632   0.38914   0.88301   0.00000  Uiso   1.00
O1368  O     0.52864   0.61838   0.67740   0.00000  Uiso   1.00
C1369  C     0.57146   0.62285   0.67438   0.00000  Uiso   1.00
H1370  H     0.58687   0.60694   0.70346   0.00000  Uiso   1.00
H1371  H     0.58078   0.65925   0.67038   0.00000  Uiso   1.00
H1372  H     0.58228   0.60420   0.64446   0.00000  Uiso   1.00
C1373  C     0.75418   0.49995   0.75127   0.00000  Uiso   1.00
C1374  C     0.91243   0.49960   0.75118   0.00000  Uiso   1.00
C1375  C     0.76080   0.48407   0.52177   0.00000  Uiso   1.00
C1376  C     0.90770   0.51680   0.97777   0.00000  Uiso   1.00
C1377  C     0.68858   0.46313   0.73025   0.00000  Uiso   1.00
C1378  C     0.97789   0.53357   0.77521   0.00000  Uiso   1.00
C1379  C     0.97904   0.46123   0.73413   0.00000  Uiso   1.00
C1380  C     0.68756   0.53108   0.77815   0.00000  Uiso   1.00
C1381  C     0.95716   0.49844   0.75305   0.00000  Uiso   1.00
C1382  C     0.70935   0.49889   0.75223   0.00000  Uiso   1.00
C1383  C     0.84366   0.35760   0.71262   0.00000  Uiso   1.00
C1384  C     0.81936   0.64225   0.78573   0.00000  Uiso   1.00
C1385  C     0.82546   0.35756   0.78771   0.00000  Uiso   1.00
C1386  C     0.84762   0.64172   0.71424   0.00000  Uiso   1.00
C1387  C     0.83262   0.50029   0.66452   0.00000  Uiso   1.00
C1388  C     0.83351   0.49968   0.83526   0.00000  Uiso   1.00
C1389  C     0.87110   0.50723   0.90582   0.00000  Uiso   1.00
C1390  C     0.79522   0.50380   0.59133   0.00000  Uiso   1.00
C1391  C     0.83434   0.49796   0.88341   0.00000  Uiso   1.00
C1392  C     0.83242   0.50112   0.61593   0.00000  Uiso   1.00
C1393  C     0.79979   0.48276   0.90642   0.00000  Uiso   1.00
C1394  C     0.87030   0.50030   0.59354   0.00000  Uiso   1.00
C1395  C     0.79902   0.48609   0.95270   0.00000  Uiso   1.00
C1396  C     0.87097   0.50330   0.54693   0.00000  Uiso   1.00
C1397  C     0.83518   0.49701   0.97608   0.00000  Uiso   1.00
C1398  C     0.83437   0.49774   0.52296   0.00000  Uiso   1.00
C1399  C     0.87194   0.50706   0.95282   0.00000  Uiso   1.00
C1400  C     0.79665   0.49429   0.54577   0.00000  Uiso   1.00
C1401  C     0.76257   0.47908   0.97609   0.00000  Uiso   1.00
C1402  C     0.90713   0.51271   0.52384   0.00000  Uiso   1.00
Cu1403 Cu    0.83333   0.54689   0.75000   0.00000  Uiso   1.00
Cu1404 Cu    0.83333   0.45311   0.75000   0.00000  Uiso   1.00
H1405  H     0.73442   0.47122   0.95913   0.00000  Uiso   1.00
H1406  H     0.93514   0.51969   0.54144   0.00000  Uiso   1.00
N1407  N     0.83333   0.61736   0.75000   0.00000  Uiso   1.00
N1408  N     0.83333   0.38264   0.75000   0.00000  Uiso   1.00
O1409  O     0.77321   0.53958   0.74999   0.00000  Uiso   1.00
O1410  O     0.89345   0.46042   0.75000   0.00000  Uiso   1.00
O1411  O     0.89345   0.53958   0.75000   0.00000  Uiso   1.00
O1412  O     0.77321   0.46042   0.74999   0.00000  Uiso   1.00
O1413  O     0.83332   0.53960   0.68513   0.00000  Uiso   1.00
O1414  O     0.83334   0.46040   0.81487   0.00000  Uiso   1.00
O1415  O     0.83334   0.53960   0.81487   0.00000  Uiso   1.00
O1416  O     0.83332   0.46040   0.68513   0.00000  Uiso   1.00
O1417  O     0.90618   0.51451   0.88116   0.00000  Uiso   1.00
C1418  C     0.92441   0.47126   0.87120   0.00000  Uiso   1.00
H1419  H     0.90561   0.45167   0.84748   0.00000  Uiso   1.00
H1420  H     0.93036   0.45034   0.90164   0.00000  Uiso   1.00
H1421  H     0.95422   0.47692   0.85480   0.00000  Uiso   1.00
O1422  O     0.76150   0.52997   0.60512   0.00000  Uiso   1.00
C1423  C     0.74574   0.51656   0.64636   0.00000  Uiso   1.00
H1424  H     0.75485   0.54225   0.67121   0.00000  Uiso   1.00
H1425  H     0.75480   0.48100   0.65633   0.00000  Uiso   1.00
H1426  H     0.71182   0.51829   0.64468   0.00000  Uiso   1.00
I1427  I     0.75142   0.44891   0.87135   0.00000  Uiso   1.00
I1428  I     0.92618   0.49639   0.63073   0.00000  Uiso   1.00
I1429  I     0.70303   0.46888   0.55068   0.00000  Uiso   1.00
I1430  I     0.96426   0.54193   0.95262   0.00000  Uiso   1.00
O1431  O     0.71129   0.42788   0.71002   0.00000  Uiso   1.00
C1432  C     0.69589   0.41602   0.66775   0.00000  Uiso   1.00
H1433  H     0.72205   0.40749   0.64567   0.00000  Uiso   1.00
H1434  H     0.67799   0.44424   0.65141   0.00000  Uiso   1.00
H1435  H     0.67725   0.38449   0.67024   0.00000  Uiso   1.00
O1436  O     0.95548   0.56585   0.79935   0.00000  Uiso   1.00
C1437  C     0.96453   0.61095   0.78510   0.00000  Uiso   1.00
H1438  H     0.93615   0.63218   0.78819   0.00000  Uiso   1.00
H1439  H     0.97523   0.61309   0.75003   0.00000  Uiso   1.00
H1440  H     0.98786   0.62641   0.80696   0.00000  Uiso   1.00
O1441  O     0.95822   0.42393   0.71762   0.00000  Uiso   1.00
C1442  C     0.95948   0.38844   0.74967   0.00000  Uiso   1.00
H1443  H     0.93835   0.36126   0.73884   0.00000  Uiso   1.00
H1444  H     0.94885   0.40045   0.78287   0.00000  Uiso   1.00
H1445  H     0.99076   0.37297   0.75232   0.00000  Uiso   1.00
O1446  O     0.70878   0.55843   0.80752   0.00000  Uiso   1.00
C1447  C     0.69630   0.54956   0.85176   0.00000  Uiso   1.00
H1448  H     0.72366   0.54880   0.87350   0.00000  Uiso   1.00
H1449  H     0.68091   0.51602   0.85662   0.00000  Uiso   1.00
H1450  H     0.67592   0.57776   0.86371   0.00000  Uiso   1.00
O1451  O     0.85409   0.37990   0.67382   0.00000  Uiso   1.00
C1452  C     0.82252   0.37398   0.64232   0.00000  Uiso   1.00
H1453  H     0.79205   0.38426   0.65598   0.00000  Uiso   1.00
H1454  H     0.82170   0.33811   0.62980   0.00000  Uiso   1.00
H1455  H     0.82859   0.39660   0.61337   0.00000  Uiso   1.00
O1456  O     0.80251   0.61960   0.82164   0.00000  Uiso   1.00
C1457  C     0.76285   0.63761   0.83040   0.00000  Uiso   1.00
H1458  H     0.74970   0.61802   0.85821   0.00000  Uiso   1.00
H1459  H     0.74266   0.63507   0.80081   0.00000  Uiso   1.00
H1460  H     0.76284   0.34026   0.84226   0.00000  Uiso   1.00
O1461  O     0.82345   0.37912   0.82827   0.00000  Uiso   1.00
C1462  C     0.85842   0.36658   0.85343   0.00000  Uiso   1.00
H1463  H     0.88731   0.37139   0.83435   0.00000  Uiso   1.00
H1464  H     0.85661   0.66383   0.86559   0.00000  Uiso   1.00
H1465  H     0.85965   0.38914   0.88301   0.00000  Uiso   1.00
O1466  O     0.86197   0.61838   0.67740   0.00000  Uiso   1.00
C1467  C     0.90480   0.62285   0.67438   0.00000  Uiso   1.00
H1468  H     0.92020   0.60694   0.70346   0.00000  Uiso   1.00
H1469  H     0.91412   0.65925   0.67038   0.00000  Uiso   1.00
H1470  H     0.91561   0.60420   0.64446   0.00000  Uiso   1.00
C1471  C     0.08752   0.83329   0.75127   0.00000  Uiso   1.00
C1472  C     0.24576   0.83293   0.75118   0.00000  Uiso   1.00
C1473  C     0.09413   0.81741   0.52177   0.00000  Uiso   1.00
C1474  C     0.24103   0.85013   0.97777   0.00000  Uiso   1.00
C1475  C     0.02191   0.79647   0.73025   0.00000  Uiso   1.00
C1476  C     0.31122   0.86690   0.77521   0.00000  Uiso   1.00
C1477  C     0.31238   0.79456   0.73413   0.00000  Uiso   1.00
C1478  C     0.02089   0.86441   0.77815   0.00000  Uiso   1.00
C1479  C     0.29049   0.83178   0.75305   0.00000  Uiso   1.00
C1480  C     0.04268   0.83222   0.75223   0.00000  Uiso   1.00
C1481  C     0.17700   0.69093   0.71262   0.00000  Uiso   1.00
C1482  C     0.15269   0.97558   0.78573   0.00000  Uiso   1.00
C1483  C     0.15879   0.69090   0.78771   0.00000  Uiso   1.00
C1484  C     0.18095   0.97505   0.71424   0.00000  Uiso   1.00
C1485  C     0.16595   0.83362   0.66452   0.00000  Uiso   1.00
C1486  C     0.16684   0.83301   0.83526   0.00000  Uiso   1.00
C1487  C     0.20444   0.84057   0.90582   0.00000  Uiso   1.00
C1488  C     0.12856   0.83714   0.59133   0.00000  Uiso   1.00
C1489  C     0.16767   0.83129   0.88341   0.00000  Uiso   1.00
C1490  C     0.16575   0.83445   0.61593   0.00000  Uiso   1.00
C1491  C     0.13312   0.81609   0.90642   0.00000  Uiso   1.00
C1492  C     0.20363   0.83363   0.59354   0.00000  Uiso   1.00
C1493  C     0.13235   0.81942   0.95270   0.00000  Uiso   1.00
C1494  C     0.20431   0.83663   0.54693   0.00000  Uiso   1.00
C1495  C     0.16851   0.83034   0.97608   0.00000  Uiso   1.00
C1496  C     0.16770   0.83107   0.52296   0.00000  Uiso   1.00
C1497  C     0.20528   0.84039   0.95282   0.00000  Uiso   1.00
C1498  C     0.12999   0.82762   0.54577   0.00000  Uiso   1.00
C1499  C     0.09590   0.81241   0.97609   0.00000  Uiso   1.00
C1500  C     0.24047   0.84604   0.52384   0.00000  Uiso   1.00
Cu1501 Cu    0.16667   0.88022   0.75000   0.00000  Uiso   1.00
Cu1502 Cu    0.16667   0.78645   0.75000   0.00000  Uiso   1.00
H1503  H     0.06776   0.80455   0.95913   0.00000  Uiso   1.00
H1504  H     0.26847   0.85303   0.54144   0.00000  Uiso   1.00
N1505  N     0.16667   0.95069   0.75000   0.00000  Uiso   1.00
N1506  N     0.16667   0.71598   0.75000   0.00000  Uiso   1.00
O1507  O     0.10655   0.87291   0.74999   0.00000  Uiso   1.00
O1508  O     0.22679   0.79375   0.75000   0.00000  Uiso   1.00
O1509  O     0.22679   0.87291   0.75000   0.00000  Uiso   1.00
O1510  O     0.10655   0.79375   0.74999   0.00000  Uiso   1.00
O1511  O     0.16666   0.87293   0.68513   0.00000  Uiso   1.00
O1512  O     0.16668   0.79373   0.81487   0.00000  Uiso   1.00
O1513  O     0.16668   0.87293   0.81487   0.00000  Uiso   1.00
O1514  O     0.16666   0.79373   0.68513   0.00000  Uiso   1.00
O1515  O     0.23952   0.84785   0.88116   0.00000  Uiso   1.00
C1516  C     0.25775   0.80460   0.87120   0.00000  Uiso   1.00
H1517  H     0.23894   0.78501   0.84748   0.00000  Uiso   1.00
H1518  H     0.26370   0.78368   0.90164   0.00000  Uiso   1.00
H1519  H     0.28755   0.81026   0.85480   0.00000  Uiso   1.00
O1520  O     0.09483   0.86330   0.60512   0.00000  Uiso   1.00
C1521  C     0.07907   0.84989   0.64636   0.00000  Uiso   1.00
H1522  H     0.08818   0.87558   0.67121   0.00000  Uiso   1.00
H1523  H     0.08813   0.81433   0.65633   0.00000  Uiso   1.00
H1524  H     0.04516   0.85162   0.64468   0.00000  Uiso   1.00
I1525  I     0.08476   0.78224   0.87135   0.00000  Uiso   1.00
I1526  I     0.25951   0.82973   0.63073   0.00000  Uiso   1.00
I1527  I     0.03636   0.80221   0.55068   0.00000  Uiso   1.00
I1528  I     0.29759   0.87527   0.95262   0.00000  Uiso   1.00
O1529  O     0.04462   0.76121   0.71002   0.00000  Uiso   1.00
C1530  C     0.02922   0.74935   0.66775   0.00000  Uiso   1.00
H1531  H     0.05538   0.74082   0.64567   0.00000  Uiso   1.00
H1532  H     0.01133   0.77758   0.65141   0.00000  Uiso   1.00
H1533  H     0.01058   0.71782   0.67024   0.00000  Uiso   1.00
O1534  O     0.28881   0.89918   0.79935   0.00000  Uiso   1.00
C1535  C     0.29787   0.94428   0.78510   0.00000  Uiso   1.00
H1536  H     0.26949   0.96551   0.78819   0.00000  Uiso   1.00
H1537  H     0.30856   0.94642   0.75003   0.00000  Uiso   1.00
H1538  H     0.32119   0.95975   0.80696   0.00000  Uiso   1.00
O1539  O     0.29155   0.75727   0.71762   0.00000  Uiso   1.00
C1540  C     0.29282   0.72177   0.74967   0.00000  Uiso   1.00
H1541  H     0.27169   0.69459   0.73884   0.00000  Uiso   1.00
H1542  H     0.28218   0.73378   0.78287   0.00000  Uiso   1.00
H1543  H     0.32409   0.70630   0.75232   0.00000  Uiso   1.00
O1544  O     0.04211   0.89176   0.80752   0.00000  Uiso   1.00
C1545  C     0.02963   0.88289   0.85176   0.00000  Uiso   1.00
H1546  H     0.05699   0.88213   0.87350   0.00000  Uiso   1.00
H1547  H     0.01424   0.84935   0.85662   0.00000  Uiso   1.00
H1548  H     0.00925   0.91109   0.86371   0.00000  Uiso   1.00
O1549  O     0.18742   0.71324   0.67382   0.00000  Uiso   1.00
C1550  C     0.15585   0.70732   0.64232   0.00000  Uiso   1.00
H1551  H     0.12539   0.71760   0.65598   0.00000  Uiso   1.00
H1552  H     0.15503   0.67144   0.62980   0.00000  Uiso   1.00
H1553  H     0.16192   0.72993   0.61337   0.00000  Uiso   1.00
O1554  O     0.13585   0.95293   0.82164   0.00000  Uiso   1.00
C1555  C     0.09618   0.97094   0.83040   0.00000  Uiso   1.00
H1556  H     0.08303   0.95136   0.85821   0.00000  Uiso   1.00
H1557  H     0.07599   0.96841   0.80081   0.00000  Uiso   1.00
H1558  H     0.09618   0.67359   0.84226   0.00000  Uiso   1.00
O1559  O     0.15678   0.71245   0.82827   0.00000  Uiso   1.00
C1560  C     0.19175   0.69991   0.85343   0.00000  Uiso   1.00
H1561  H     0.22064   0.70472   0.83435   0.00000  Uiso   1.00
H1562  H     0.18995   0.99717   0.86559   0.00000  Uiso   1.00
H1563  H     0.19299   0.72247   0.88301   0.00000  Uiso   1.00
O1564  O     0.19531   0.95171   0.67740   0.00000  Uiso   1.00
C1565  C     0.23813   0.95619   0.67438   0.00000  Uiso   1.00
H1566  H     0.25354   0.94028   0.70346   0.00000  Uiso   1.00
H1567  H     0.24745   0.99258   0.67038   0.00000  Uiso   1.00
H1568  H     0.24895   0.93753   0.64446   0.00000  Uiso   1.00
C1569  C     0.42085   0.83329   0.75127   0.00000  Uiso   1.00
C1570  C     0.57910   0.83293   0.75118   0.00000  Uiso   1.00
C1571  C     0.42746   0.81741   0.52177   0.00000  Uiso   1.00
C1572  C     0.57437   0.85013   0.97777   0.00000  Uiso   1.00
C1573  C     0.35524   0.79647   0.73025   0.00000  Uiso   1.00
C1574  C     0.64456   0.86690   0.77521   0.00000  Uiso   1.00
C1575  C     0.64571   0.79456   0.73413   0.00000  Uiso   1.00
C1576  C     0.35423   0.86441   0.77815   0.00000  Uiso   1.00
C1577  C     0.62383   0.83178   0.75305   0.00000  Uiso   1.00
C1578  C     0.37601   0.83222   0.75223   0.00000  Uiso   1.00
C1579  C     0.51033   0.69093   0.71262   0.00000  Uiso   1.00
C1580  C     0.48602   0.97558   0.78573   0.00000  Uiso   1.00
C1581  C     0.49213   0.69090   0.78771   0.00000  Uiso   1.00
C1582  C     0.51429   0.97505   0.71424   0.00000  Uiso   1.00
C1583  C     0.49929   0.83362   0.66452   0.00000  Uiso   1.00
C1584  C     0.50018   0.83301   0.83526   0.00000  Uiso   1.00
C1585  C     0.53777   0.84057   0.90582   0.00000  Uiso   1.00
C1586  C     0.46189   0.83714   0.59133   0.00000  Uiso   1.00
C1587  C     0.50100   0.83129   0.88341   0.00000  Uiso   1.00
C1588  C     0.49908   0.83445   0.61593   0.00000  Uiso   1.00
C1589  C     0.46646   0.81609   0.90642   0.00000  Uiso   1.00
C1590  C     0.53697   0.83363   0.59354   0.00000  Uiso   1.00
C1591  C     0.46568   0.81942   0.95270   0.00000  Uiso   1.00
C1592  C     0.53764   0.83663   0.54693   0.00000  Uiso   1.00
C1593  C     0.50184   0.83034   0.97608   0.00000  Uiso   1.00
C1594  C     0.50103   0.83107   0.52296   0.00000  Uiso   1.00
C1595  C     0.53861   0.84039   0.95282   0.00000  Uiso   1.00
C1596  C     0.46332   0.82762   0.54577   0.00000  Uiso   1.00
C1597  C     0.42924   0.81241   0.97609   0.00000  Uiso   1.00
C1598  C     0.57380   0.84604   0.52384   0.00000  Uiso   1.00
Cu1599 Cu    0.50000   0.88022   0.75000   0.00000  Uiso   1.00
Cu1600 Cu    0.50000   0.78645   0.75000   0.00000  Uiso   1.00
H1601  H     0.40109   0.80455   0.95913   0.00000  Uiso   1.00
H1602  H     0.60181   0.85303   0.54144   0.00000  Uiso   1.00
N1603  N     0.50000   0.95069   0.75000   0.00000  Uiso   1.00
N1604  N     0.50000   0.71598   0.75000   0.00000  Uiso   1.00
O1605  O     0.43988   0.87291   0.74999   0.00000  Uiso   1.00
O1606  O     0.56012   0.79375   0.75000   0.00000  Uiso   1.00
O1607  O     0.56012   0.87291   0.75000   0.00000  Uiso   1.00
O1608  O     0.43988   0.79375   0.74999   0.00000  Uiso   1.00
O1609  O     0.49999   0.87293   0.68513   0.00000  Uiso   1.00
O1610  O     0.50001   0.79373   0.81487   0.00000  Uiso   1.00
O1611  O     0.50001   0.87293   0.81487   0.00000  Uiso   1.00
O1612  O     0.49999   0.79373   0.68513   0.00000  Uiso   1.00
O1613  O     0.57285   0.84785   0.88116   0.00000  Uiso   1.00
C1614  C     0.59108   0.80460   0.87120   0.00000  Uiso   1.00
H1615  H     0.57228   0.78501   0.84748   0.00000  Uiso   1.00
H1616  H     0.59703   0.78368   0.90164   0.00000  Uiso   1.00
H1617  H     0.62088   0.81026   0.85480   0.00000  Uiso   1.00
O1618  O     0.42816   0.86330   0.60512   0.00000  Uiso   1.00
C1619  C     0.41241   0.84989   0.64636   0.00000  Uiso   1.00
H1620  H     0.42152   0.87558   0.67121   0.00000  Uiso   1.00
H1621  H     0.42147   0.81433   0.65633   0.00000  Uiso   1.00
H1622  H     0.37849   0.85162   0.64468   0.00000  Uiso   1.00
I1623  I     0.41809   0.78224   0.87135   0.00000  Uiso   1.00
I1624  I     0.59284   0.82973   0.63073   0.00000  Uiso   1.00
I1625  I     0.36970   0.80221   0.55068   0.00000  Uiso   1.00
I1626  I     0.63092   0.87527   0.95262   0.00000  Uiso   1.00
O1627  O     0.37795   0.76121   0.71002   0.00000  Uiso   1.00
C1628  C     0.36256   0.74935   0.66775   0.00000  Uiso   1.00
H1629  H     0.38872   0.74082   0.64567   0.00000  Uiso   1.00
H1630  H     0.34466   0.77758   0.65141   0.00000  Uiso   1.00
H1631  H     0.34391   0.71782   0.67024   0.00000  Uiso   1.00
O1632  O     0.62215   0.89918   0.79935   0.00000  Uiso   1.00
C1633  C     0.63120   0.94428   0.78510   0.00000  Uiso   1.00
H1634  H     0.60282   0.96551   0.78819   0.00000  Uiso   1.00
H1635  H     0.64190   0.94642   0.75003   0.00000  Uiso   1.00
H1636  H     0.65452   0.95975   0.80696   0.00000  Uiso   1.00
O1637  O     0.62489   0.75727   0.71762   0.00000  Uiso   1.00
C1638  C     0.62615   0.72177   0.74967   0.00000  Uiso   1.00
H1639  H     0.60502   0.69459   0.73884   0.00000  Uiso   1.00
H1640  H     0.61551   0.73378   0.78287   0.00000  Uiso   1.00
H1641  H     0.65743   0.70630   0.75232   0.00000  Uiso   1.00
O1642  O     0.37545   0.89176   0.80752   0.00000  Uiso   1.00
C1643  C     0.36296   0.88289   0.85176   0.00000  Uiso   1.00
H1644  H     0.39032   0.88213   0.87350   0.00000  Uiso   1.00
H1645  H     0.34758   0.84935   0.85662   0.00000  Uiso   1.00
H1646  H     0.34259   0.91109   0.86371   0.00000  Uiso   1.00
O1647  O     0.52076   0.71324   0.67382   0.00000  Uiso   1.00
C1648  C     0.48918   0.70732   0.64232   0.00000  Uiso   1.00
H1649  H     0.45872   0.71760   0.65598   0.00000  Uiso   1.00
H1650  H     0.48837   0.67144   0.62980   0.00000  Uiso   1.00
H1651  H     0.49526   0.72993   0.61337   0.00000  Uiso   1.00
O1652  O     0.46918   0.95293   0.82164   0.00000  Uiso   1.00
C1653  C     0.42952   0.97094   0.83040   0.00000  Uiso   1.00
H1654  H     0.41636   0.95136   0.85821   0.00000  Uiso   1.00
H1655  H     0.40932   0.96841   0.80081   0.00000  Uiso   1.00
H1656  H     0.42951   0.67359   0.84226   0.00000  Uiso   1.00
O1657  O     0.49011   0.71245   0.82827   0.00000  Uiso   1.00
C1658  C     0.52509   0.69991   0.85343   0.00000  Uiso   1.00
H1659  H     0.55397   0.70472   0.83435   0.00000  Uiso   1.00
H1660  H     0.52328   0.99717   0.86559   0.00000  Uiso   1.00
H1661  H     0.52632   0.72247   0.88301   0.00000  Uiso   1.00
O1662  O     0.52864   0.95171   0.67740   0.00000  Uiso   1.00
C1663  C     0.57146   0.95619   0.67438   0.00000  Uiso   1.00
H1664  H     0.58687   0.94028   0.70346   0.00000  Uiso   1.00
H1665  H     0.58078   0.99258   0.67038   0.00000  Uiso   1.00
H1666  H     0.58228   0.93753   0.64446   0.00000  Uiso   1.00
C1667  C     0.75418   0.83329   0.75127   0.00000  Uiso   1.00
C1668  C     0.91243   0.83293   0.75118   0.00000  Uiso   1.00
C1669  C     0.76080   0.81741   0.52177   0.00000  Uiso   1.00
C1670  C     0.90770   0.85013   0.97777   0.00000  Uiso   1.00
C1671  C     0.68858   0.79647   0.73025   0.00000  Uiso   1.00
C1672  C     0.97789   0.86690   0.77521   0.00000  Uiso   1.00
C1673  C     0.97904   0.79456   0.73413   0.00000  Uiso   1.00
C1674  C     0.68756   0.86441   0.77815   0.00000  Uiso   1.00
C1675  C     0.95716   0.83178   0.75305   0.00000  Uiso   1.00
C1676  C     0.70935   0.83222   0.75223   0.00000  Uiso   1.00
C1677  C     0.84366   0.69093   0.71262   0.00000  Uiso   1.00
C1678  C     0.81936   0.97558   0.78573   0.00000  Uiso   1.00
C1679  C     0.82546   0.69090   0.78771   0.00000  Uiso   1.00
C1680  C     0.84762   0.97505   0.71424   0.00000  Uiso   1.00
C1681  C     0.83262   0.83362   0.66452   0.00000  Uiso   1.00
C1682  C     0.83351   0.83301   0.83526   0.00000  Uiso   1.00
C1683  C     0.87110   0.84057   0.90582   0.00000  Uiso   1.00
C1684  C     0.79522   0.83714   0.59133   0.00000  Uiso   1.00
C1685  C     0.83434   0.83129   0.88341   0.00000  Uiso   1.00
C1686  C     0.83242   0.83445   0.61593   0.00000  Uiso   1.00
C1687  C     0.79979   0.81609   0.90642   0.00000  Uiso   1.00
C1688  C     0.87030   0.83363   0.59354   0.00000  Uiso   1.00
C1689  C     0.79902   0.81942   0.95270   0.00000  Uiso   1.00
C1690  C     0.87097   0.83663   0.54693   0.00000  Uiso   1.00
C1691  C     0.83518   0.83034   0.97608   0.00000  Uiso   1.00
C1692  C     0.83437   0.83107   0.52296   0.00000  Uiso   1.00
C1693  C     0.87194   0.84039   0.95282   0.00000  Uiso   1.00
C1694  C     0.79665   0.82762   0.54577   0.00000  Uiso   1.00
C1695  C     0.76257   0.81241   0.97609   0.00000  Uiso   1.00
C1696  C     0.90713   0.84604   0.52384   0.00000  Uiso   1.00
Cu1697 Cu    0.83333   0.88022   0.75000   0.00000  Uiso   1.00
Cu1698 Cu    0.83333   0.78645   0.75000   0.00000  Uiso   1.00
H1699  H     0.73442   0.80455   0.95913   0.00000  Uiso   1.00
H1700  H     0.93514   0.85303   0.54144   0.00000  Uiso   1.00
N1701  N     0.83333   0.95069   0.75000   0.00000  Uiso   1.00
N1702  N     0.83333   0.71598   0.75000   0.00000  Uiso   1.00
O1703  O     0.77321   0.87291   0.74999   0.00000  Uiso   1.00
O1704  O     0.89345   0.79375   0.75000   0.00000  Uiso   1.00
O1705  O     0.89345   0.87291   0.75000   0.00000  Uiso   1.00
O1706  O     0.77321   0.79375   0.74999   0.00000  Uiso   1.00
O1707  O     0.83332   0.87293   0.68513   0.00000  Uiso   1.00
O1708  O     0.83334   0.79373   0.81487   0.00000  Uiso   1.00
O1709  O     0.83334   0.87293   0.81487   0.00000  Uiso   1.00
O1710  O     0.83332   0.79373   0.68513   0.00000  Uiso   1.00
O1711  O     0.90618   0.84785   0.88116   0.00000  Uiso   1.00
C1712  C     0.92441   0.80460   0.87120   0.00000  Uiso   1.00
H1713  H     0.90561   0.78501   0.84748   0.00000  Uiso   1.00
H1714  H     0.93036   0.78368   0.90164   0.00000  Uiso   1.00
H1715  H     0.95422   0.81026   0.85480   0.00000  Uiso   1.00
O1716  O     0.76150   0.86330   0.60512   0.00000  Uiso   1.00
C1717  C     0.74574   0.84989   0.64636   0.00000  Uiso   1.00
H1718  H     0.75485   0.87558   0.67121   0.00000  Uiso   1.00
H1719  H     0.75480   0.81433   0.65633   0.00000  Uiso   1.00
H1720  H     0.71182   0.85162   0.64468   0.00000  Uiso   1.00
I1721  I     0.75142   0.78224   0.87135   0.00000  Uiso   1.00
I1722  I     0.92618   0.82973   0.63073   0.00000  Uiso   1.00
I1723  I     0.70303   0.80221   0.55068   0.00000  Uiso   1.00
I1724  I     0.96426   0.87527   0.95262   0.00000  Uiso   1.00
O1725  O     0.71129   0.76121   0.71002   0.00000  Uiso   1.00
C1726  C     0.69589   0.74935   0.66775   0.00000  Uiso   1.00
H1727  H     0.72205   0.74082   0.64567   0.00000  Uiso   1.00
H1728  H     0.67799   0.77758   0.65141   0.00000  Uiso   1.00
H1729  H     0.67725   0.71782   0.67024   0.00000  Uiso   1.00
O1730  O     0.95548   0.89918   0.79935   0.00000  Uiso   1.00
C1731  C     0.96453   0.94428   0.78510   0.00000  Uiso   1.00
H1732  H     0.93615   0.96551   0.78819   0.00000  Uiso   1.00
H1733  H     0.97523   0.94642   0.75003   0.00000  Uiso   1.00
H1734  H     0.98786   0.95975   0.80696   0.00000  Uiso   1.00
O1735  O     0.95822   0.75727   0.71762   0.00000  Uiso   1.00
C1736  C     0.95948   0.72177   0.74967   0.00000  Uiso   1.00
H1737  H     0.93835   0.69459   0.73884   0.00000  Uiso   1.00
H1738  H     0.94885   0.73378   0.78287   0.00000  Uiso   1.00
H1739  H     0.99076   0.70630   0.75232   0.00000  Uiso   1.00
O1740  O     0.70878   0.89176   0.80752   0.00000  Uiso   1.00
C1741  C     0.69630   0.88289   0.85176   0.00000  Uiso   1.00
H1742  H     0.72366   0.88213   0.87350   0.00000  Uiso   1.00
H1743  H     0.68091   0.84935   0.85662   0.00000  Uiso   1.00
H1744  H     0.67592   0.91109   0.86371   0.00000  Uiso   1.00
O1745  O     0.85409   0.71324   0.67382   0.00000  Uiso   1.00
C1746  C     0.82252   0.70732   0.64232   0.00000  Uiso   1.00
H1747  H     0.79205   0.71760   0.65598   0.00000  Uiso   1.00
H1748  H     0.82170   0.67144   0.62980   0.00000  Uiso   1.00
H1749  H     0.82859   0.72993   0.61337   0.00000  Uiso   1.00
O1750  O     0.80251   0.95293   0.82164   0.00000  Uiso   1.00
C1751  C     0.76285   0.97094   0.83040   0.00000  Uiso   1.00
H1752  H     0.74970   0.95136   0.85821   0.00000  Uiso   1.00
H1753  H     0.74266   0.96841   0.80081   0.00000  Uiso   1.00
H1754  H     0.76284   0.67359   0.84226   0.00000  Uiso   1.00
O1755  O     0.82345   0.71245   0.82827   0.00000  Uiso   1.00
C1756  C     0.85842   0.69991   0.85343   0.00000  Uiso   1.00
H1757  H     0.88731   0.70472   0.83435   0.00000  Uiso   1.00
H1758  H     0.85661   0.99717   0.86559   0.00000  Uiso   1.00
H1759  H     0.85965   0.72247   0.88301   0.00000  Uiso   1.00
O1760  O     0.86197   0.95171   0.67740   0.00000  Uiso   1.00
C1761  C     0.90480   0.95619   0.67438   0.00000  Uiso   1.00
H1762  H     0.92020   0.94028   0.70346   0.00000  Uiso   1.00
H1763  H     0.91412   0.99258   0.67038   0.00000  Uiso   1.00
H1764  H     0.91561   0.93753   0.64446   0.00000  Uiso   1.00
loop_
_geom_bond_atom_site_label_1
_geom_bond_atom_site_label_2
_geom_bond_distance
_geom_bond_site_symmetry_2
_ccdc_geom_bond_type
C1     O40     1.297   .     A
C1     O37     1.316   .     A
C1     C10     1.465   .     S
C2     O39     1.308   .     A
C2     O38     1.304   .     A
C2     C9      1.461   .     S
C3     I57     2.128   .     S
C3     C28     1.412   .     A
C3     C911    1.386   1_554 S
C4     C27     1.421   .     A
C4     I58     2.133   .     S
C4     C912    1.393   .     S
C5     O59     1.396   .     S
C5     C10     1.416   .     A
C5     C203    1.406   1_455 S
C6     C9      1.404   .     A
C6     O64     1.388   .     S
C6     C106    1.407   .     S
C7     C9      1.408   .     A
C7     O69     1.382   .     S
C7     C103    1.406   .     S
C8     O74     1.385   .     S
C8     C10     1.405   .     A
C8     C202    1.407   1_455 S
C11    N36     1.382   .     A
C11    O79     1.379   .     S
C11    C602    1.433   1_545 S
C12    O84     1.383   .     S
C12    N35     1.373   .     A
C12    C307    1.431   .     S
C13    N36     1.374   .     A
C13    O89     1.376   .     S
C13    C600    1.431   1_545 S
C14    N35     1.372   .     A
C14    O94     1.381   .     S
C14    C305    1.433   .     S
C15    O44     1.312   .     A
C15    C20     1.464   .     S
C15    O41     1.302   .     A
C16    O43     1.310   .     A
C16    O42     1.298   .     A
C16    C19     1.452   .     S
C17    O45     1.383   .     S
C17    C27     1.417   .     A
C17    C19     1.408   .     A
C18    C20     1.424   .     A
C18    C28     1.402   .     A
C18    O50     1.392   .     S
C19    C21     1.400   .     A
C20    C22     1.408   .     A
C21    C23     1.399   .     A
C21    I55     2.153   .     S
C22    I56     2.142   .     S
C22    C24     1.407   .     A
C23    C29     1.400   .     A
C23    C25     1.416   .     A
C24    C26     1.408   .     A
C24    C30     1.400   .     A
C25    C27     1.423   .     A
C25    C908    1.413   .     S
C26    C28     1.414   .     A
C26    C907    1.413   1_554 S
C29    H33     1.080   .     S
C29    C885    1.386   .     S
C30    H34     1.079   .     S
C30    C886    1.393   1_554 S
Cu31   O43     1.965   .     S
Cu31   O37     1.977   .     S
Cu31   Cu32    2.723   .     S
Cu31   O41     1.967   .     S
Cu31   O39     1.970   .     S
Cu31   N35     2.046   .     S
Cu32   O38     1.977   .     S
Cu32   N36     2.046   .     S
Cu32   O44     1.965   .     S
Cu32   O40     1.970   .     S
Cu32   O42     1.967   .     S
O45    C46     1.414   .     S
C46    H49     1.105   .     S
C46    H48     1.114   .     S
C46    H47     1.107   .     S
O50    C51     1.401   .     S
C51    H52     1.103   .     S
C51    H53     1.110   .     S
C51    H54     1.109   .     S
O59    C60     1.415   .     S
C60    H63     1.109   .     S
C60    H62     1.112   .     S
C60    H61     1.108   .     S
O64    C65     1.412   .     S
C65    H67     1.115   .     S
C65    H68     1.108   .     S
C65    H66     1.109   .     S
O69    C70     1.410   .     S
C70    H71     1.106   .     S
C70    H73     1.112   .     S
C70    H72     1.114   .     S
O74    C75     1.418   .     S
C75    H76     1.108   .     S
C75    H77     1.112   .     S
C75    H78     1.108   .     S
O79    C80     1.414   .     S
C80    H83     1.109   .     S
C80    H82     1.110   .     S
C80    H81     1.113   .     S
O84    C85     1.414   .     S
C85    H87     1.112   .     S
C85    H86     1.102   .     S
C85    H382    1.105   .     S
H88    C673    1.105   1_545 S
O89    C90     1.413   .     S
C90    H93     1.109   .     S
C90    H91     1.114   .     S
C90    H680    1.111   1_545 S
H92    C384    1.111   .     S
O94    C95     1.409   .     S
C95    H96     1.106   .     S
C95    H98     1.108   .     S
C95    H97     1.110   .     S
C99    O138    1.297   .     A
C99    O135    1.316   .     A
C99    C108    1.465   .     S
C100   O137    1.308   .     A
C100   O136    1.304   .     A
C100   C107    1.461   .     S
C101   I155    2.128   .     S
C101   C126    1.412   .     A
C101   C1009   1.386   1_554 S
C102   C125    1.421   .     A
C102   I156    2.133   .     S
C102   C1010   1.393   .     S
C103   O157    1.396   .     S
C103   C108    1.416   .     A
C104   C107    1.404   .     A
C104   O162    1.388   .     S
C104   C204    1.407   .     S
C105   C107    1.408   .     A
C105   O167    1.382   .     S
C105   C201    1.406   .     S
C106   O172    1.385   .     S
C106   C108    1.405   .     A
C109   N134    1.382   .     A
C109   O177    1.379   .     S
C109   C700    1.433   1_545 S
C110   O182    1.383   .     S
C110   N133    1.373   .     A
C110   C405    1.431   .     S
C111   N134    1.374   .     A
C111   O187    1.376   .     S
C111   C698    1.431   1_545 S
C112   N133    1.372   .     A
C112   O192    1.381   .     S
C112   C403    1.433   .     S
C113   O142    1.312   .     A
C113   C118    1.464   .     S
C113   O139    1.302   .     A
C114   O141    1.310   .     A
C114   O140    1.298   .     A
C114   C117    1.452   .     S
C115   O143    1.383   .     S
C115   C125    1.417   .     A
C115   C117    1.408   .     A
C116   C118    1.424   .     A
C116   C126    1.402   .     A
C116   O148    1.392   .     S
C117   C119    1.400   .     A
C118   C120    1.408   .     A
C119   C121    1.399   .     A
C119   I153    2.153   .     S
C120   I154    2.142   .     S
C120   C122    1.407   .     A
C121   C127    1.400   .     A
C121   C123    1.416   .     A
C122   C124    1.408   .     A
C122   C128    1.400   .     A
C123   C125    1.423   .     A
C123   C1006   1.413   .     S
C124   C126    1.414   .     A
C124   C1005   1.413   1_554 S
C127   H131    1.080   .     S
C127   C983    1.386   .     S
C128   H132    1.079   .     S
C128   C984    1.393   1_554 S
Cu129  O141    1.965   .     S
Cu129  O135    1.977   .     S
Cu129  Cu130   2.723   .     S
Cu129  O139    1.967   .     S
Cu129  O137    1.970   .     S
Cu129  N133    2.046   .     S
Cu130  O136    1.977   .     S
Cu130  N134    2.046   .     S
Cu130  O142    1.965   .     S
Cu130  O138    1.970   .     S
Cu130  O140    1.967   .     S
O143   C144    1.414   .     S
C144   H147    1.105   .     S
C144   H146    1.114   .     S
C144   H145    1.107   .     S
O148   C149    1.401   .     S
C149   H150    1.103   .     S
C149   H151    1.110   .     S
C149   H152    1.109   .     S
O157   C158    1.415   .     S
C158   H161    1.109   .     S
C158   H160    1.112   .     S
C158   H159    1.108   .     S
O162   C163    1.412   .     S
C163   H165    1.115   .     S
C163   H166    1.108   .     S
C163   H164    1.109   .     S
O167   C168    1.410   .     S
C168   H169    1.106   .     S
C168   H171    1.112   .     S
C168   H170    1.114   .     S
O172   C173    1.418   .     S
C173   H174    1.108   .     S
C173   H175    1.112   .     S
C173   H176    1.108   .     S
O177   C178    1.414   .     S
C178   H181    1.109   .     S
C178   H180    1.110   .     S
C178   H179    1.113   .     S
O182   C183    1.414   .     S
C183   H185    1.112   .     S
C183   H184    1.102   .     S
C183   H480    1.105   .     S
H186   C771    1.105   1_545 S
O187   C188    1.413   .     S
C188   H191    1.109   .     S
C188   H189    1.114   .     S
C188   H778    1.111   1_545 S
H190   C482    1.111   .     S
O192   C193    1.409   .     S
C193   H194    1.106   .     S
C193   H196    1.108   .     S
C193   H195    1.110   .     S
C197   O236    1.297   .     A
C197   O233    1.316   .     A
C197   C206    1.465   .     S
C198   O235    1.308   .     A
C198   O234    1.304   .     A
C198   C205    1.461   .     S
C199   I253    2.128   .     S
C199   C224    1.412   .     A
C199   C1107   1.386   1_554 S
C200   C223    1.421   .     A
C200   I254    2.133   .     S
C200   C1108   1.393   .     S
C201   O255    1.396   .     S
C201   C206    1.416   .     A
C202   C205    1.404   .     A
C202   O260    1.388   .     S
C202   C8      1.407   1_655 S
C203   C205    1.408   .     A
C203   O265    1.382   .     S
C203   C5      1.406   1_655 S
C204   O270    1.385   .     S
C204   C206    1.405   .     A
C207   N232    1.382   .     A
C207   O275    1.379   .     S
C207   C798    1.433   1_545 S
C208   O280    1.383   .     S
C208   N231    1.373   .     A
C208   C503    1.431   .     S
C209   N232    1.374   .     A
C209   O285    1.376   .     S
C209   C796    1.431   1_545 S
C210   N231    1.372   .     A
C210   O290    1.381   .     S
C210   C501    1.433   .     S
C211   O240    1.312   .     A
C211   C216    1.464   .     S
C211   O237    1.302   .     A
C212   O239    1.310   .     A
C212   O238    1.298   .     A
C212   C215    1.452   .     S
C213   O241    1.383   .     S
C213   C223    1.417   .     A
C213   C215    1.408   .     A
C214   C216    1.424   .     A
C214   C224    1.402   .     A
C214   O246    1.392   .     S
C215   C217    1.400   .     A
C216   C218    1.408   .     A
C217   C219    1.399   .     A
C217   I251    2.153   .     S
C218   I252    2.142   .     S
C218   C220    1.407   .     A
C219   C225    1.400   .     A
C219   C221    1.416   .     A
C220   C222    1.408   .     A
C220   C226    1.400   .     A
C221   C223    1.423   .     A
C221   C1104   1.413   .     S
C222   C224    1.414   .     A
C222   C1103   1.413   1_554 S
C225   H229    1.080   .     S
C225   C1081   1.386   .     S
C226   H230    1.079   .     S
C226   C1082   1.393   1_554 S
Cu227  O239    1.965   .     S
Cu227  O233    1.977   .     S
Cu227  Cu228   2.723   .     S
Cu227  O237    1.967   .     S
Cu227  O235    1.970   .     S
Cu227  N231    2.046   .     S
Cu228  O234    1.977   .     S
Cu228  N232    2.046   .     S
Cu228  O240    1.965   .     S
Cu228  O236    1.970   .     S
Cu228  O238    1.967   .     S
O241   C242    1.414   .     S
C242   H245    1.105   .     S
C242   H244    1.114   .     S
C242   H243    1.107   .     S
O246   C247    1.401   .     S
C247   H248    1.103   .     S
C247   H249    1.110   .     S
C247   H250    1.109   .     S
O255   C256    1.415   .     S
C256   H259    1.109   .     S
C256   H258    1.112   .     S
C256   H257    1.108   .     S
O260   C261    1.412   .     S
C261   H263    1.115   .     S
C261   H264    1.108   .     S
C261   H262    1.109   .     S
O265   C266    1.410   .     S
C266   H267    1.106   .     S
C266   H269    1.112   .     S
C266   H268    1.114   .     S
O270   C271    1.418   .     S
C271   H272    1.108   .     S
C271   H273    1.112   .     S
C271   H274    1.108   .     S
O275   C276    1.414   .     S
C276   H279    1.109   .     S
C276   H278    1.110   .     S
C276   H277    1.113   .     S
O280   C281    1.414   .     S
C281   H283    1.112   .     S
C281   H282    1.102   .     S
C281   H578    1.105   .     S
H284   C869    1.105   1_545 S
O285   C286    1.413   .     S
C286   H289    1.109   .     S
C286   H287    1.114   .     S
C286   H876    1.111   1_545 S
H288   C580    1.111   .     S
O290   C291    1.409   .     S
C291   H292    1.106   .     S
C291   H294    1.108   .     S
C291   H293    1.110   .     S
C295   O334    1.297   .     A
C295   O331    1.316   .     A
C295   C304    1.465   .     S
C296   O333    1.308   .     A
C296   O332    1.304   .     A
C296   C303    1.461   .     S
C297   I351    2.128   .     S
C297   C322    1.412   .     A
C297   C1205   1.386   1_554 S
C298   C321    1.421   .     A
C298   I352    2.133   .     S
C298   C1206   1.393   .     S
C299   O353    1.396   .     S
C299   C304    1.416   .     A
C299   C497    1.406   1_455 S
C300   C303    1.404   .     A
C300   O358    1.388   .     S
C300   C400    1.407   .     S
C301   C303    1.408   .     A
C301   O363    1.382   .     S
C301   C397    1.406   .     S
C302   O368    1.385   .     S
C302   C304    1.405   .     A
C302   C496    1.407   1_455 S
C305   N330    1.382   .     A
C305   O373    1.379   .     S
C306   O378    1.383   .     S
C306   N329    1.373   .     A
C306   C601    1.431   .     S
C307   N330    1.374   .     A
C307   O383    1.376   .     S
C308   N329    1.372   .     A
C308   O388    1.381   .     S
C308   C599    1.433   .     S
C309   O338    1.312   .     A
C309   C314    1.464   .     S
C309   O335    1.302   .     A
C310   O337    1.310   .     A
C310   O336    1.298   .     A
C310   C313    1.452   .     S
C311   O339    1.383   .     S
C311   C321    1.417   .     A
C311   C313    1.408   .     A
C312   C314    1.424   .     A
C312   C322    1.402   .     A
C312   O344    1.392   .     S
C313   C315    1.400   .     A
C314   C316    1.408   .     A
C315   C317    1.399   .     A
C315   I349    2.153   .     S
C316   I350    2.142   .     S
C316   C318    1.407   .     A
C317   C323    1.400   .     A
C317   C319    1.416   .     A
C318   C320    1.408   .     A
C318   C324    1.400   .     A
C319   C321    1.423   .     A
C319   C1202   1.413   .     S
C320   C322    1.414   .     A
C320   C1201   1.413   1_554 S
C323   H327    1.080   .     S
C323   C1179   1.386   .     S
C324   H328    1.079   .     S
C324   C1180   1.393   1_554 S
Cu325  O337    1.965   .     S
Cu325  O331    1.977   .     S
Cu325  Cu326   2.723   .     S
Cu325  O335    1.967   .     S
Cu325  O333    1.970   .     S
Cu325  N329    2.046   .     S
Cu326  O332    1.977   .     S
Cu326  N330    2.046   .     S
Cu326  O338    1.965   .     S
Cu326  O334    1.970   .     S
Cu326  O336    1.967   .     S
O339   C340    1.414   .     S
C340   H343    1.105   .     S
C340   H342    1.114   .     S
C340   H341    1.107   .     S
O344   C345    1.401   .     S
C345   H346    1.103   .     S
C345   H347    1.110   .     S
C345   H348    1.109   .     S
O353   C354    1.415   .     S
C354   H357    1.109   .     S
C354   H356    1.112   .     S
C354   H355    1.108   .     S
O358   C359    1.412   .     S
C359   H361    1.115   .     S
C359   H362    1.108   .     S
C359   H360    1.109   .     S
O363   C364    1.410   .     S
C364   H365    1.106   .     S
C364   H367    1.112   .     S
C364   H366    1.114   .     S
O368   C369    1.418   .     S
C369   H370    1.108   .     S
C369   H371    1.112   .     S
C369   H372    1.108   .     S
O373   C374    1.414   .     S
C374   H377    1.109   .     S
C374   H376    1.110   .     S
C374   H375    1.113   .     S
O378   C379    1.414   .     S
C379   H381    1.112   .     S
C379   H380    1.102   .     S
C379   H676    1.105   .     S
O383   C384    1.413   .     S
C384   H387    1.109   .     S
C384   H385    1.114   .     S
H386   C678    1.111   .     S
O388   C389    1.409   .     S
C389   H390    1.106   .     S
C389   H392    1.108   .     S
C389   H391    1.110   .     S
C393   O432    1.297   .     A
C393   O429    1.316   .     A
C393   C402    1.465   .     S
C394   O431    1.308   .     A
C394   O430    1.304   .     A
C394   C401    1.461   .     S
C395   I449    2.128   .     S
C395   C420    1.412   .     A
C395   C1303   1.386   1_554 S
C396   C419    1.421   .     A
C396   I450    2.133   .     S
C396   C1304   1.393   .     S
C397   O451    1.396   .     S
C397   C402    1.416   .     A
C398   C401    1.404   .     A
C398   O456    1.388   .     S
C398   C498    1.407   .     S
C399   C401    1.408   .     A
C399   O461    1.382   .     S
C399   C495    1.406   .     S
C400   O466    1.385   .     S
C400   C402    1.405   .     A
C403   N428    1.382   .     A
C403   O471    1.379   .     S
C404   O476    1.383   .     S
C404   N427    1.373   .     A
C404   C699    1.431   .     S
C405   N428    1.374   .     A
C405   O481    1.376   .     S
C406   N427    1.372   .     A
C406   O486    1.381   .     S
C406   C697    1.433   .     S
C407   O436    1.312   .     A
C407   C412    1.464   .     S
C407   O433    1.302   .     A
C408   O435    1.310   .     A
C408   O434    1.298   .     A
C408   C411    1.452   .     S
C409   O437    1.383   .     S
C409   C419    1.417   .     A
C409   C411    1.408   .     A
C410   C412    1.424   .     A
C410   C420    1.402   .     A
C410   O442    1.392   .     S
C411   C413    1.400   .     A
C412   C414    1.408   .     A
C413   C415    1.399   .     A
C413   I447    2.153   .     S
C414   I448    2.142   .     S
C414   C416    1.407   .     A
C415   C421    1.400   .     A
C415   C417    1.416   .     A
C416   C418    1.408   .     A
C416   C422    1.400   .     A
C417   C419    1.423   .     A
C417   C1300   1.413   .     S
C418   C420    1.414   .     A
C418   C1299   1.413   1_554 S
C421   H425    1.080   .     S
C421   C1277   1.386   .     S
C422   H426    1.079   .     S
C422   C1278   1.393   1_554 S
Cu423  O435    1.965   .     S
Cu423  O429    1.977   .     S
Cu423  Cu424   2.723   .     S
Cu423  O433    1.967   .     S
Cu423  O431    1.970   .     S
Cu423  N427    2.046   .     S
Cu424  O430    1.977   .     S
Cu424  N428    2.046   .     S
Cu424  O436    1.965   .     S
Cu424  O432    1.970   .     S
Cu424  O434    1.967   .     S
O437   C438    1.414   .     S
C438   H441    1.105   .     S
C438   H440    1.114   .     S
C438   H439    1.107   .     S
O442   C443    1.401   .     S
C443   H444    1.103   .     S
C443   H445    1.110   .     S
C443   H446    1.109   .     S
O451   C452    1.415   .     S
C452   H455    1.109   .     S
C452   H454    1.112   .     S
C452   H453    1.108   .     S
O456   C457    1.412   .     S
C457   H459    1.115   .     S
C457   H460    1.108   .     S
C457   H458    1.109   .     S
O461   C462    1.410   .     S
C462   H463    1.106   .     S
C462   H465    1.112   .     S
C462   H464    1.114   .     S
O466   C467    1.418   .     S
C467   H468    1.108   .     S
C467   H469    1.112   .     S
C467   H470    1.108   .     S
O471   C472    1.414   .     S
C472   H475    1.109   .     S
C472   H474    1.110   .     S
C472   H473    1.113   .     S
O476   C477    1.414   .     S
C477   H479    1.112   .     S
C477   H478    1.102   .     S
C477   H774    1.105   .     S
O481   C482    1.413   .     S
C482   H485    1.109   .     S
C482   H483    1.114   .     S
H484   C776    1.111   .     S
O486   C487    1.409   .     S
C487   H488    1.106   .     S
C487   H490    1.108   .     S
C487   H489    1.110   .     S
C491   O530    1.297   .     A
C491   O527    1.316   .     A
C491   C500    1.465   .     S
C492   O529    1.308   .     A
C492   O528    1.304   .     A
C492   C499    1.461   .     S
C493   I547    2.128   .     S
C493   C518    1.412   .     A
C493   C1401   1.386   1_554 S
C494   C517    1.421   .     A
C494   I548    2.133   .     S
C494   C1402   1.393   .     S
C495   O549    1.396   .     S
C495   C500    1.416   .     A
C496   C499    1.404   .     A
C496   O554    1.388   .     S
C496   C302    1.407   1_655 S
C497   C499    1.408   .     A
C497   O559    1.382   .     S
C497   C299    1.406   1_655 S
C498   O564    1.385   .     S
C498   C500    1.405   .     A
C501   N526    1.382   .     A
C501   O569    1.379   .     S
C502   O574    1.383   .     S
C502   N525    1.373   .     A
C502   C797    1.431   .     S
C503   N526    1.374   .     A
C503   O579    1.376   .     S
C504   N525    1.372   .     A
C504   O584    1.381   .     S
C504   C795    1.433   .     S
C505   O534    1.312   .     A
C505   C510    1.464   .     S
C505   O531    1.302   .     A
C506   O533    1.310   .     A
C506   O532    1.298   .     A
C506   C509    1.452   .     S
C507   O535    1.383   .     S
C507   C517    1.417   .     A
C507   C509    1.408   .     A
C508   C510    1.424   .     A
C508   C518    1.402   .     A
C508   O540    1.392   .     S
C509   C511    1.400   .     A
C510   C512    1.408   .     A
C511   C513    1.399   .     A
C511   I545    2.153   .     S
C512   I546    2.142   .     S
C512   C514    1.407   .     A
C513   C519    1.400   .     A
C513   C515    1.416   .     A
C514   C516    1.408   .     A
C514   C520    1.400   .     A
C515   C517    1.423   .     A
C515   C1398   1.413   .     S
C516   C518    1.414   .     A
C516   C1397   1.413   1_554 S
C519   H523    1.080   .     S
C519   C1375   1.386   .     S
C520   H524    1.079   .     S
C520   C1376   1.393   1_554 S
Cu521  O533    1.965   .     S
Cu521  O527    1.977   .     S
Cu521  Cu522   2.723   .     S
Cu521  O531    1.967   .     S
Cu521  O529    1.970   .     S
Cu521  N525    2.046   .     S
Cu522  O528    1.977   .     S
Cu522  N526    2.046   .     S
Cu522  O534    1.965   .     S
Cu522  O530    1.970   .     S
Cu522  O532    1.967   .     S
O535   C536    1.414   .     S
C536   H539    1.105   .     S
C536   H538    1.114   .     S
C536   H537    1.107   .     S
O540   C541    1.401   .     S
C541   H542    1.103   .     S
C541   H543    1.110   .     S
C541   H544    1.109   .     S
O549   C550    1.415   .     S
C550   H553    1.109   .     S
C550   H552    1.112   .     S
C550   H551    1.108   .     S
O554   C555    1.412   .     S
C555   H557    1.115   .     S
C555   H558    1.108   .     S
C555   H556    1.109   .     S
O559   C560    1.410   .     S
C560   H561    1.106   .     S
C560   H563    1.112   .     S
C560   H562    1.114   .     S
O564   C565    1.418   .     S
C565   H566    1.108   .     S
C565   H567    1.112   .     S
C565   H568    1.108   .     S
O569   C570    1.414   .     S
C570   H573    1.109   .     S
C570   H572    1.110   .     S
C570   H571    1.113   .     S
O574   C575    1.414   .     S
C575   H577    1.112   .     S
C575   H576    1.102   .     S
C575   H872    1.105   .     S
O579   C580    1.413   .     S
C580   H583    1.109   .     S
C580   H581    1.114   .     S
H582   C874    1.111   .     S
O584   C585    1.409   .     S
C585   H586    1.106   .     S
C585   H588    1.108   .     S
C585   H587    1.110   .     S
C589   O628    1.297   .     A
C589   O625    1.316   .     A
C589   C598    1.465   .     S
C590   O627    1.308   .     A
C590   O626    1.304   .     A
C590   C597    1.461   .     S
C591   I645    2.128   .     S
C591   C616    1.412   .     A
C591   C1499   1.386   1_554 S
C592   C615    1.421   .     A
C592   I646    2.133   .     S
C592   C1500   1.393   .     S
C593   O647    1.396   .     S
C593   C598    1.416   .     A
C593   C791    1.406   1_455 S
C594   C597    1.404   .     A
C594   O652    1.388   .     S
C594   C694    1.407   .     S
C595   C597    1.408   .     A
C595   O657    1.382   .     S
C595   C691    1.406   .     S
C596   O662    1.385   .     S
C596   C598    1.405   .     A
C596   C790    1.407   1_455 S
C599   N624    1.382   .     A
C599   O667    1.379   .     S
C600   O672    1.383   .     S
C600   N623    1.373   .     A
C600   C13     1.431   1_565 S
C601   N624    1.374   .     A
C601   O677    1.376   .     S
C602   N623    1.372   .     A
C602   O682    1.381   .     S
C602   C11     1.433   1_565 S
C603   O632    1.312   .     A
C603   C608    1.464   .     S
C603   O629    1.302   .     A
C604   O631    1.310   .     A
C604   O630    1.298   .     A
C604   C607    1.452   .     S
C605   O633    1.383   .     S
C605   C615    1.417   .     A
C605   C607    1.408   .     A
C606   C608    1.424   .     A
C606   C616    1.402   .     A
C606   O638    1.392   .     S
C607   C609    1.400   .     A
C608   C610    1.408   .     A
C609   C611    1.399   .     A
C609   I643    2.153   .     S
C610   I644    2.142   .     S
C610   C612    1.407   .     A
C611   C617    1.400   .     A
C611   C613    1.416   .     A
C612   C614    1.408   .     A
C612   C618    1.400   .     A
C613   C615    1.423   .     A
C613   C1496   1.413   .     S
C614   C616    1.414   .     A
C614   C1495   1.413   1_554 S
C617   H621    1.080   .     S
C617   C1473   1.386   .     S
C618   H622    1.079   .     S
C618   C1474   1.393   1_554 S
Cu619  O631    1.965   .     S
Cu619  O625    1.977   .     S
Cu619  Cu620   2.723   .     S
Cu619  O629    1.967   .     S
Cu619  O627    1.970   .     S
Cu619  N623    2.046   .     S
Cu620  O626    1.977   .     S
Cu620  N624    2.046   .     S
Cu620  O632    1.965   .     S
Cu620  O628    1.970   .     S
Cu620  O630    1.967   .     S
O633   C634    1.414   .     S
C634   H637    1.105   .     S
C634   H636    1.114   .     S
C634   H635    1.107   .     S
O638   C639    1.401   .     S
C639   H640    1.103   .     S
C639   H641    1.110   .     S
C639   H642    1.109   .     S
O647   C648    1.415   .     S
C648   H651    1.109   .     S
C648   H650    1.112   .     S
C648   H649    1.108   .     S
O652   C653    1.412   .     S
C653   H655    1.115   .     S
C653   H656    1.108   .     S
C653   H654    1.109   .     S
O657   C658    1.410   .     S
C658   H659    1.106   .     S
C658   H661    1.112   .     S
C658   H660    1.114   .     S
O662   C663    1.418   .     S
C663   H664    1.108   .     S
C663   H665    1.112   .     S
C663   H666    1.108   .     S
O667   C668    1.414   .     S
C668   H671    1.109   .     S
C668   H670    1.110   .     S
C668   H669    1.113   .     S
O672   C673    1.414   .     S
C673   H675    1.112   .     S
C673   H674    1.102   .     S
C673   H88     1.105   1_565 S
O677   C678    1.413   .     S
C678   H681    1.109   .     S
C678   H679    1.114   .     S
H680   C90     1.111   1_565 S
O682   C683    1.409   .     S
C683   H684    1.106   .     S
C683   H686    1.108   .     S
C683   H685    1.110   .     S
C687   O726    1.297   .     A
C687   O723    1.316   .     A
C687   C696    1.465   .     S
C688   O725    1.308   .     A
C688   O724    1.304   .     A
C688   C695    1.461   .     S
C689   I743    2.128   .     S
C689   C714    1.412   .     A
C689   C1597   1.386   1_554 S
C690   C713    1.421   .     A
C690   I744    2.133   .     S
C690   C1598   1.393   .     S
C691   O745    1.396   .     S
C691   C696    1.416   .     A
C692   C695    1.404   .     A
C692   O750    1.388   .     S
C692   C792    1.407   .     S
C693   C695    1.408   .     A
C693   O755    1.382   .     S
C693   C789    1.406   .     S
C694   O760    1.385   .     S
C694   C696    1.405   .     A
C697   N722    1.382   .     A
C697   O765    1.379   .     S
C698   O770    1.383   .     S
C698   N721    1.373   .     A
C698   C111    1.431   1_565 S
C699   N722    1.374   .     A
C699   O775    1.376   .     S
C700   N721    1.372   .     A
C700   O780    1.381   .     S
C700   C109    1.433   1_565 S
C701   O730    1.312   .     A
C701   C706    1.464   .     S
C701   O727    1.302   .     A
C702   O729    1.310   .     A
C702   O728    1.298   .     A
C702   C705    1.452   .     S
C703   O731    1.383   .     S
C703   C713    1.417   .     A
C703   C705    1.408   .     A
C704   C706    1.424   .     A
C704   C714    1.402   .     A
C704   O736    1.392   .     S
C705   C707    1.400   .     A
C706   C708    1.408   .     A
C707   C709    1.399   .     A
C707   I741    2.153   .     S
C708   I742    2.142   .     S
C708   C710    1.407   .     A
C709   C715    1.400   .     A
C709   C711    1.416   .     A
C710   C712    1.408   .     A
C710   C716    1.400   .     A
C711   C713    1.423   .     A
C711   C1594   1.413   .     S
C712   C714    1.414   .     A
C712   C1593   1.413   1_554 S
C715   H719    1.080   .     S
C715   C1571   1.386   .     S
C716   H720    1.079   .     S
C716   C1572   1.393   1_554 S
Cu717  O729    1.965   .     S
Cu717  O723    1.977   .     S
Cu717  Cu718   2.723   .     S
Cu717  O727    1.967   .     S
Cu717  O725    1.970   .     S
Cu717  N721    2.046   .     S
Cu718  O724    1.977   .     S
Cu718  N722    2.046   .     S
Cu718  O730    1.965   .     S
Cu718  O726    1.970   .     S
Cu718  O728    1.967   .     S
O731   C732    1.414   .     S
C732   H735    1.105   .     S
C732   H734    1.114   .     S
C732   H733    1.107   .     S
O736   C737    1.401   .     S
C737   H738    1.103   .     S
C737   H739    1.110   .     S
C737   H740    1.109   .     S
O745   C746    1.415   .     S
C746   H749    1.109   .     S
C746   H748    1.112   .     S
C746   H747    1.108   .     S
O750   C751    1.412   .     S
C751   H753    1.115   .     S
C751   H754    1.108   .     S
C751   H752    1.109   .     S
O755   C756    1.410   .     S
C756   H757    1.106   .     S
C756   H759    1.112   .     S
C756   H758    1.114   .     S
O760   C761    1.418   .     S
C761   H762    1.108   .     S
C761   H763    1.112   .     S
C761   H764    1.108   .     S
O765   C766    1.414   .     S
C766   H769    1.109   .     S
C766   H768    1.110   .     S
C766   H767    1.113   .     S
O770   C771    1.414   .     S
C771   H773    1.112   .     S
C771   H772    1.102   .     S
C771   H186    1.105   1_565 S
O775   C776    1.413   .     S
C776   H779    1.109   .     S
C776   H777    1.114   .     S
H778   C188    1.111   1_565 S
O780   C781    1.409   .     S
C781   H782    1.106   .     S
C781   H784    1.108   .     S
C781   H783    1.110   .     S
C785   O824    1.297   .     A
C785   O821    1.316   .     A
C785   C794    1.465   .     S
C786   O823    1.308   .     A
C786   O822    1.304   .     A
C786   C793    1.461   .     S
C787   I841    2.128   .     S
C787   C812    1.412   .     A
C787   C1695   1.386   1_554 S
C788   C811    1.421   .     A
C788   I842    2.133   .     S
C788   C1696   1.393   .     S
C789   O843    1.396   .     S
C789   C794    1.416   .     A
C790   C793    1.404   .     A
C790   O848    1.388   .     S
C790   C596    1.407   1_655 S
C791   C793    1.408   .     A
C791   O853    1.382   .     S
C791   C593    1.406   1_655 S
C792   O858    1.385   .     S
C792   C794    1.405   .     A
C795   N820    1.382   .     A
C795   O863    1.379   .     S
C796   O868    1.383   .     S
C796   N819    1.373   .     A
C796   C209    1.431   1_565 S
C797   N820    1.374   .     A
C797   O873    1.376   .     S
C798   N819    1.372   .     A
C798   O878    1.381   .     S
C798   C207    1.433   1_565 S
C799   O828    1.312   .     A
C799   C804    1.464   .     S
C799   O825    1.302   .     A
C800   O827    1.310   .     A
C800   O826    1.298   .     A
C800   C803    1.452   .     S
C801   O829    1.383   .     S
C801   C811    1.417   .     A
C801   C803    1.408   .     A
C802   C804    1.424   .     A
C802   C812    1.402   .     A
C802   O834    1.392   .     S
C803   C805    1.400   .     A
C804   C806    1.408   .     A
C805   C807    1.399   .     A
C805   I839    2.153   .     S
C806   I840    2.142   .     S
C806   C808    1.407   .     A
C807   C813    1.400   .     A
C807   C809    1.416   .     A
C808   C810    1.408   .     A
C808   C814    1.400   .     A
C809   C811    1.423   .     A
C809   C1692   1.413   .     S
C810   C812    1.414   .     A
C810   C1691   1.413   1_554 S
C813   H817    1.080   .     S
C813   C1669   1.386   .     S
C814   H818    1.079   .     S
C814   C1670   1.393   1_554 S
Cu815  O827    1.965   .     S
Cu815  O821    1.977   .     S
Cu815  Cu816   2.723   .     S
Cu815  O825    1.967   .     S
Cu815  O823    1.970   .     S
Cu815  N819    2.046   .     S
Cu816  O822    1.977   .     S
Cu816  N820    2.046   .     S
Cu816  O828    1.965   .     S
Cu816  O824    1.970   .     S
Cu816  O826    1.967   .     S
O829   C830    1.414   .     S
C830   H833    1.105   .     S
C830   H832    1.114   .     S
C830   H831    1.107   .     S
O834   C835    1.401   .     S
C835   H836    1.103   .     S
C835   H837    1.110   .     S
C835   H838    1.109   .     S
O843   C844    1.415   .     S
C844   H847    1.109   .     S
C844   H846    1.112   .     S
C844   H845    1.108   .     S
O848   C849    1.412   .     S
C849   H851    1.115   .     S
C849   H852    1.108   .     S
C849   H850    1.109   .     S
O853   C854    1.410   .     S
C854   H855    1.106   .     S
C854   H857    1.112   .     S
C854   H856    1.114   .     S
O858   C859    1.418   .     S
C859   H860    1.108   .     S
C859   H861    1.112   .     S
C859   H862    1.108   .     S
O863   C864    1.414   .     S
C864   H867    1.109   .     S
C864   H866    1.110   .     S
C864   H865    1.113   .     S
O868   C869    1.414   .     S
C869   H871    1.112   .     S
C869   H870    1.102   .     S
C869   H284    1.105   1_565 S
O873   C874    1.413   .     S
C874   H877    1.109   .     S
C874   H875    1.114   .     S
H876   C286    1.111   1_565 S
O878   C879    1.409   .     S
C879   H880    1.106   .     S
C879   H882    1.108   .     S
C879   H881    1.110   .     S
C883   O922    1.297   .     A
C883   O919    1.316   .     A
C883   C892    1.465   .     S
C884   O921    1.308   .     A
C884   O920    1.304   .     A
C884   C891    1.461   .     S
C885   I939    2.128   .     S
C885   C910    1.412   .     A
C886   C909    1.421   .     A
C886   I940    2.133   .     S
C886   C30     1.393   1_556 S
C887   O941    1.396   .     S
C887   C892    1.416   .     A
C887   C1085   1.406   1_455 S
C888   C891    1.404   .     A
C888   O946    1.388   .     S
C888   C988    1.407   .     S
C889   C891    1.408   .     A
C889   O951    1.382   .     S
C889   C985    1.406   .     S
C890   O956    1.385   .     S
C890   C892    1.405   .     A
C890   C1084   1.407   1_455 S
C893   N918    1.382   .     A
C893   O961    1.379   .     S
C893   C1484   1.433   1_545 S
C894   O966    1.383   .     S
C894   N917    1.373   .     A
C894   C1189   1.431   .     S
C895   N918    1.374   .     A
C895   O971    1.376   .     S
C895   C1482   1.431   1_545 S
C896   N917    1.372   .     A
C896   O976    1.381   .     S
C896   C1187   1.433   .     S
C897   O926    1.312   .     A
C897   C902    1.464   .     S
C897   O923    1.302   .     A
C898   O925    1.310   .     A
C898   O924    1.298   .     A
C898   C901    1.452   .     S
C899   O927    1.383   .     S
C899   C909    1.417   .     A
C899   C901    1.408   .     A
C900   C902    1.424   .     A
C900   C910    1.402   .     A
C900   O932    1.392   .     S
C901   C903    1.400   .     A
C902   C904    1.408   .     A
C903   C905    1.399   .     A
C903   I937    2.153   .     S
C904   I938    2.142   .     S
C904   C906    1.407   .     A
C905   C911    1.400   .     A
C905   C907    1.416   .     A
C906   C908    1.408   .     A
C906   C912    1.400   .     A
C907   C909    1.423   .     A
C907   C26     1.413   1_556 S
C908   C910    1.414   .     A
C911   H915    1.080   .     S
C911   C3      1.386   1_556 S
C912   H916    1.079   .     S
Cu913  O925    1.965   .     S
Cu913  O919    1.977   .     S
Cu913  Cu914   2.723   .     S
Cu913  O923    1.967   .     S
Cu913  O921    1.970   .     S
Cu913  N917    2.046   .     S
Cu914  O920    1.977   .     S
Cu914  N918    2.046   .     S
Cu914  O926    1.965   .     S
Cu914  O922    1.970   .     S
Cu914  O924    1.967   .     S
O927   C928    1.414   .     S
C928   H931    1.105   .     S
C928   H930    1.114   .     S
C928   H929    1.107   .     S
O932   C933    1.401   .     S
C933   H934    1.103   .     S
C933   H935    1.110   .     S
C933   H936    1.109   .     S
O941   C942    1.415   .     S
C942   H945    1.109   .     S
C942   H944    1.112   .     S
C942   H943    1.108   .     S
O946   C947    1.412   .     S
C947   H949    1.115   .     S
C947   H950    1.108   .     S
C947   H948    1.109   .     S
O951   C952    1.410   .     S
C952   H953    1.106   .     S
C952   H955    1.112   .     S
C952   H954    1.114   .     S
O956   C957    1.418   .     S
C957   H958    1.108   .     S
C957   H959    1.112   .     S
C957   H960    1.108   .     S
O961   C962    1.414   .     S
C962   H965    1.109   .     S
C962   H964    1.110   .     S
C962   H963    1.113   .     S
O966   C967    1.414   .     S
C967   H969    1.112   .     S
C967   H968    1.102   .     S
C967   H1264   1.105   .     S
H970   C1555   1.105   1_545 S
O971   C972    1.413   .     S
C972   H975    1.109   .     S
C972   H973    1.114   .     S
C972   H1562   1.111   1_545 S
H974   C1266   1.111   .     S
O976   C977    1.409   .     S
C977   H978    1.106   .     S
C977   H980    1.108   .     S
C977   H979    1.110   .     S
C981   O1020   1.297   .     A
C981   O1017   1.316   .     A
C981   C990    1.465   .     S
C982   O1019   1.308   .     A
C982   O1018   1.304   .     A
C982   C989    1.461   .     S
C983   I1037   2.128   .     S
C983   C1008   1.412   .     A
C984   C1007   1.421   .     A
C984   I1038   2.133   .     S
C984   C128    1.393   1_556 S
C985   O1039   1.396   .     S
C985   C990    1.416   .     A
C986   C989    1.404   .     A
C986   O1044   1.388   .     S
C986   C1086   1.407   .     S
C987   C989    1.408   .     A
C987   O1049   1.382   .     S
C987   C1083   1.406   .     S
C988   O1054   1.385   .     S
C988   C990    1.405   .     A
C991   N1016   1.382   .     A
C991   O1059   1.379   .     S
C991   C1582   1.433   1_545 S
C992   O1064   1.383   .     S
C992   N1015   1.373   .     A
C992   C1287   1.431   .     S
C993   N1016   1.374   .     A
C993   O1069   1.376   .     S
C993   C1580   1.431   1_545 S
C994   N1015   1.372   .     A
C994   O1074   1.381   .     S
C994   C1285   1.433   .     S
C995   O1024   1.312   .     A
C995   C1000   1.464   .     S
C995   O1021   1.302   .     A
C996   O1023   1.310   .     A
C996   O1022   1.298   .     A
C996   C999    1.452   .     S
C997   O1025   1.383   .     S
C997   C1007   1.417   .     A
C997   C999    1.408   .     A
C998   C1000   1.424   .     A
C998   C1008   1.402   .     A
C998   O1030   1.392   .     S
C999   C1001   1.400   .     A
C1000  C1002   1.408   .     A
C1001  C1003   1.399   .     A
C1001  I1035   2.153   .     S
C1002  I1036   2.142   .     S
C1002  C1004   1.407   .     A
C1003  C1009   1.400   .     A
C1003  C1005   1.416   .     A
C1004  C1006   1.408   .     A
C1004  C1010   1.400   .     A
C1005  C1007   1.423   .     A
C1005  C124    1.413   1_556 S
C1006  C1008   1.414   .     A
C1009  H1013   1.080   .     S
C1009  C101    1.386   1_556 S
C1010  H1014   1.079   .     S
Cu1011 O1023   1.965   .     S
Cu1011 O1017   1.977   .     S
Cu1011 Cu1012  2.723   .     S
Cu1011 O1021   1.967   .     S
Cu1011 O1019   1.970   .     S
Cu1011 N1015   2.046   .     S
Cu1012 O1018   1.977   .     S
Cu1012 N1016   2.046   .     S
Cu1012 O1024   1.965   .     S
Cu1012 O1020   1.970   .     S
Cu1012 O1022   1.967   .     S
O1025  C1026   1.414   .     S
C1026  H1029   1.105   .     S
C1026  H1028   1.114   .     S
C1026  H1027   1.107   .     S
O1030  C1031   1.401   .     S
C1031  H1032   1.103   .     S
C1031  H1033   1.110   .     S
C1031  H1034   1.109   .     S
O1039  C1040   1.415   .     S
C1040  H1043   1.109   .     S
C1040  H1042   1.112   .     S
C1040  H1041   1.108   .     S
O1044  C1045   1.412   .     S
C1045  H1047   1.115   .     S
C1045  H1048   1.108   .     S
C1045  H1046   1.109   .     S
O1049  C1050   1.410   .     S
C1050  H1051   1.106   .     S
C1050  H1053   1.112   .     S
C1050  H1052   1.114   .     S
O1054  C1055   1.418   .     S
C1055  H1056   1.108   .     S
C1055  H1057   1.112   .     S
C1055  H1058   1.108   .     S
O1059  C1060   1.414   .     S
C1060  H1063   1.109   .     S
C1060  H1062   1.110   .     S
C1060  H1061   1.113   .     S
O1064  C1065   1.414   .     S
C1065  H1067   1.112   .     S
C1065  H1066   1.102   .     S
C1065  H1362   1.105   .     S
H1068  C1653   1.105   1_545 S
O1069  C1070   1.413   .     S
C1070  H1073   1.109   .     S
C1070  H1071   1.114   .     S
C1070  H1660   1.111   1_545 S
H1072  C1364   1.111   .     S
O1074  C1075   1.409   .     S
C1075  H1076   1.106   .     S
C1075  H1078   1.108   .     S
C1075  H1077   1.110   .     S
C1079  O1118   1.297   .     A
C1079  O1115   1.316   .     A
C1079  C1088   1.465   .     S
C1080  O1117   1.308   .     A
C1080  O1116   1.304   .     A
C1080  C1087   1.461   .     S
C1081  I1135   2.128   .     S
C1081  C1106   1.412   .     A
C1082  C1105   1.421   .     A
C1082  I1136   2.133   .     S
C1082  C226    1.393   1_556 S
C1083  O1137   1.396   .     S
C1083  C1088   1.416   .     A
C1084  C1087   1.404   .     A
C1084  O1142   1.388   .     S
C1084  C890    1.407   1_655 S
C1085  C1087   1.408   .     A
C1085  O1147   1.382   .     S
C1085  C887    1.406   1_655 S
C1086  O1152   1.385   .     S
C1086  C1088   1.405   .     A
C1089  N1114   1.382   .     A
C1089  O1157   1.379   .     S
C1089  C1680   1.433   1_545 S
C1090  O1162   1.383   .     S
C1090  N1113   1.373   .     A
C1090  C1385   1.431   .     S
C1091  N1114   1.374   .     A
C1091  O1167   1.376   .     S
C1091  C1678   1.431   1_545 S
C1092  N1113   1.372   .     A
C1092  O1172   1.381   .     S
C1092  C1383   1.433   .     S
C1093  O1122   1.312   .     A
C1093  C1098   1.464   .     S
C1093  O1119   1.302   .     A
C1094  O1121   1.310   .     A
C1094  O1120   1.298   .     A
C1094  C1097   1.452   .     S
C1095  O1123   1.383   .     S
C1095  C1105   1.417   .     A
C1095  C1097   1.408   .     A
C1096  C1098   1.424   .     A
C1096  C1106   1.402   .     A
C1096  O1128   1.392   .     S
C1097  C1099   1.400   .     A
C1098  C1100   1.408   .     A
C1099  C1101   1.399   .     A
C1099  I1133   2.153   .     S
C1100  I1134   2.142   .     S
C1100  C1102   1.407   .     A
C1101  C1107   1.400   .     A
C1101  C1103   1.416   .     A
C1102  C1104   1.408   .     A
C1102  C1108   1.400   .     A
C1103  C1105   1.423   .     A
C1103  C222    1.413   1_556 S
C1104  C1106   1.414   .     A
C1107  H1111   1.080   .     S
C1107  C199    1.386   1_556 S
C1108  H1112   1.079   .     S
Cu1109 O1121   1.965   .     S
Cu1109 O1115   1.977   .     S
Cu1109 Cu1110  2.723   .     S
Cu1109 O1119   1.967   .     S
Cu1109 O1117   1.970   .     S
Cu1109 N1113   2.046   .     S
Cu1110 O1116   1.977   .     S
Cu1110 N1114   2.046   .     S
Cu1110 O1122   1.965   .     S
Cu1110 O1118   1.970   .     S
Cu1110 O1120   1.967   .     S
O1123  C1124   1.414   .     S
C1124  H1127   1.105   .     S
C1124  H1126   1.114   .     S
C1124  H1125   1.107   .     S
O1128  C1129   1.401   .     S
C1129  H1130   1.103   .     S
C1129  H1131   1.110   .     S
C1129  H1132   1.109   .     S
O1137  C1138   1.415   .     S
C1138  H1141   1.109   .     S
C1138  H1140   1.112   .     S
C1138  H1139   1.108   .     S
O1142  C1143   1.412   .     S
C1143  H1145   1.115   .     S
C1143  H1146   1.108   .     S
C1143  H1144   1.109   .     S
O1147  C1148   1.410   .     S
C1148  H1149   1.106   .     S
C1148  H1151   1.112   .     S
C1148  H1150   1.114   .     S
O1152  C1153   1.418   .     S
C1153  H1154   1.108   .     S
C1153  H1155   1.112   .     S
C1153  H1156   1.108   .     S
O1157  C1158   1.414   .     S
C1158  H1161   1.109   .     S
C1158  H1160   1.110   .     S
C1158  H1159   1.113   .     S
O1162  C1163   1.414   .     S
C1163  H1165   1.112   .     S
C1163  H1164   1.102   .     S
C1163  H1460   1.105   .     S
H1166  C1751   1.105   1_545 S
O1167  C1168   1.413   .     S
C1168  H1171   1.109   .     S
C1168  H1169   1.114   .     S
C1168  H1758   1.111   1_545 S
H1170  C1462   1.111   .     S
O1172  C1173   1.409   .     S
C1173  H1174   1.106   .     S
C1173  H1176   1.108   .     S
C1173  H1175   1.110   .     S
C1177  O1216   1.297   .     A
C1177  O1213   1.316   .     A
C1177  C1186   1.465   .     S
C1178  O1215   1.308   .     A
C1178  O1214   1.304   .     A
C1178  C1185   1.461   .     S
C1179  I1233   2.128   .     S
C1179  C1204   1.412   .     A
C1180  C1203   1.421   .     A
C1180  I1234   2.133   .     S
C1180  C324    1.393   1_556 S
C1181  O1235   1.396   .     S
C1181  C1186   1.416   .     A
C1181  C1379   1.406   1_455 S
C1182  C1185   1.404   .     A
C1182  O1240   1.388   .     S
C1182  C1282   1.407   .     S
C1183  C1185   1.408   .     A
C1183  O1245   1.382   .     S
C1183  C1279   1.406   .     S
C1184  O1250   1.385   .     S
C1184  C1186   1.405   .     A
C1184  C1378   1.407   1_455 S
C1187  N1212   1.382   .     A
C1187  O1255   1.379   .     S
C1188  O1260   1.383   .     S
C1188  N1211   1.373   .     A
C1188  C1483   1.431   .     S
C1189  N1212   1.374   .     A
C1189  O1265   1.376   .     S
C1190  N1211   1.372   .     A
C1190  O1270   1.381   .     S
C1190  C1481   1.433   .     S
C1191  O1220   1.312   .     A
C1191  C1196   1.464   .     S
C1191  O1217   1.302   .     A
C1192  O1219   1.310   .     A
C1192  O1218   1.298   .     A
C1192  C1195   1.452   .     S
C1193  O1221   1.383   .     S
C1193  C1203   1.417   .     A
C1193  C1195   1.408   .     A
C1194  C1196   1.424   .     A
C1194  C1204   1.402   .     A
C1194  O1226   1.392   .     S
C1195  C1197   1.400   .     A
C1196  C1198   1.408   .     A
C1197  C1199   1.399   .     A
C1197  I1231   2.153   .     S
C1198  I1232   2.142   .     S
C1198  C1200   1.407   .     A
C1199  C1205   1.400   .     A
C1199  C1201   1.416   .     A
C1200  C1202   1.408   .     A
C1200  C1206   1.400   .     A
C1201  C1203   1.423   .     A
C1201  C320    1.413   1_556 S
C1202  C1204   1.414   .     A
C1205  H1209   1.080   .     S
C1205  C297    1.386   1_556 S
C1206  H1210   1.079   .     S
Cu1207 O1219   1.965   .     S
Cu1207 O1213   1.977   .     S
Cu1207 Cu1208  2.723   .     S
Cu1207 O1217   1.967   .     S
Cu1207 O1215   1.970   .     S
Cu1207 N1211   2.046   .     S
Cu1208 O1214   1.977   .     S
Cu1208 N1212   2.046   .     S
Cu1208 O1220   1.965   .     S
Cu1208 O1216   1.970   .     S
Cu1208 O1218   1.967   .     S
O1221  C1222   1.414   .     S
C1222  H1225   1.105   .     S
C1222  H1224   1.114   .     S
C1222  H1223   1.107   .     S
O1226  C1227   1.401   .     S
C1227  H1228   1.103   .     S
C1227  H1229   1.110   .     S
C1227  H1230   1.109   .     S
O1235  C1236   1.415   .     S
C1236  H1239   1.109   .     S
C1236  H1238   1.112   .     S
C1236  H1237   1.108   .     S
O1240  C1241   1.412   .     S
C1241  H1243   1.115   .     S
C1241  H1244   1.108   .     S
C1241  H1242   1.109   .     S
O1245  C1246   1.410   .     S
C1246  H1247   1.106   .     S
C1246  H1249   1.112   .     S
C1246  H1248   1.114   .     S
O1250  C1251   1.418   .     S
C1251  H1252   1.108   .     S
C1251  H1253   1.112   .     S
C1251  H1254   1.108   .     S
O1255  C1256   1.414   .     S
C1256  H1259   1.109   .     S
C1256  H1258   1.110   .     S
C1256  H1257   1.113   .     S
O1260  C1261   1.414   .     S
C1261  H1263   1.112   .     S
C1261  H1262   1.102   .     S
C1261  H1558   1.105   .     S
O1265  C1266   1.413   .     S
C1266  H1269   1.109   .     S
C1266  H1267   1.114   .     S
H1268  C1560   1.111   .     S
O1270  C1271   1.409   .     S
C1271  H1272   1.106   .     S
C1271  H1274   1.108   .     S
C1271  H1273   1.110   .     S
C1275  O1314   1.297   .     A
C1275  O1311   1.316   .     A
C1275  C1284   1.465   .     S
C1276  O1313   1.308   .     A
C1276  O1312   1.304   .     A
C1276  C1283   1.461   .     S
C1277  I1331   2.128   .     S
C1277  C1302   1.412   .     A
C1278  C1301   1.421   .     A
C1278  I1332   2.133   .     S
C1278  C422    1.393   1_556 S
C1279  O1333   1.396   .     S
C1279  C1284   1.416   .     A
C1280  C1283   1.404   .     A
C1280  O1338   1.388   .     S
C1280  C1380   1.407   .     S
C1281  C1283   1.408   .     A
C1281  O1343   1.382   .     S
C1281  C1377   1.406   .     S
C1282  O1348   1.385   .     S
C1282  C1284   1.405   .     A
C1285  N1310   1.382   .     A
C1285  O1353   1.379   .     S
C1286  O1358   1.383   .     S
C1286  N1309   1.373   .     A
C1286  C1581   1.431   .     S
C1287  N1310   1.374   .     A
C1287  O1363   1.376   .     S
C1288  N1309   1.372   .     A
C1288  O1368   1.381   .     S
C1288  C1579   1.433   .     S
C1289  O1318   1.312   .     A
C1289  C1294   1.464   .     S
C1289  O1315   1.302   .     A
C1290  O1317   1.310   .     A
C1290  O1316   1.298   .     A
C1290  C1293   1.452   .     S
C1291  O1319   1.383   .     S
C1291  C1301   1.417   .     A
C1291  C1293   1.408   .     A
C1292  C1294   1.424   .     A
C1292  C1302   1.402   .     A
C1292  O1324   1.392   .     S
C1293  C1295   1.400   .     A
C1294  C1296   1.408   .     A
C1295  C1297   1.399   .     A
C1295  I1329   2.153   .     S
C1296  I1330   2.142   .     S
C1296  C1298   1.407   .     A
C1297  C1303   1.400   .     A
C1297  C1299   1.416   .     A
C1298  C1300   1.408   .     A
C1298  C1304   1.400   .     A
C1299  C1301   1.423   .     A
C1299  C418    1.413   1_556 S
C1300  C1302   1.414   .     A
C1303  H1307   1.080   .     S
C1303  C395    1.386   1_556 S
C1304  H1308   1.079   .     S
Cu1305 O1317   1.965   .     S
Cu1305 O1311   1.977   .     S
Cu1305 Cu1306  2.723   .     S
Cu1305 O1315   1.967   .     S
Cu1305 O1313   1.970   .     S
Cu1305 N1309   2.046   .     S
Cu1306 O1312   1.977   .     S
Cu1306 N1310   2.046   .     S
Cu1306 O1318   1.965   .     S
Cu1306 O1314   1.970   .     S
Cu1306 O1316   1.967   .     S
O1319  C1320   1.414   .     S
C1320  H1323   1.105   .     S
C1320  H1322   1.114   .     S
C1320  H1321   1.107   .     S
O1324  C1325   1.401   .     S
C1325  H1326   1.103   .     S
C1325  H1327   1.110   .     S
C1325  H1328   1.109   .     S
O1333  C1334   1.415   .     S
C1334  H1337   1.109   .     S
C1334  H1336   1.112   .     S
C1334  H1335   1.108   .     S
O1338  C1339   1.412   .     S
C1339  H1341   1.115   .     S
C1339  H1342   1.108   .     S
C1339  H1340   1.109   .     S
O1343  C1344   1.410   .     S
C1344  H1345   1.106   .     S
C1344  H1347   1.112   .     S
C1344  H1346   1.114   .     S
O1348  C1349   1.418   .     S
C1349  H1350   1.108   .     S
C1349  H1351   1.112   .     S
C1349  H1352   1.108   .     S
O1353  C1354   1.414   .     S
C1354  H1357   1.109   .     S
C1354  H1356   1.110   .     S
C1354  H1355   1.113   .     S
O1358  C1359   1.414   .     S
C1359  H1361   1.112   .     S
C1359  H1360   1.102   .     S
C1359  H1656   1.105   .     S
O1363  C1364   1.413   .     S
C1364  H1367   1.109   .     S
C1364  H1365   1.114   .     S
H1366  C1658   1.111   .     S
O1368  C1369   1.409   .     S
C1369  H1370   1.106   .     S
C1369  H1372   1.108   .     S
C1369  H1371   1.110   .     S
C1373  O1412   1.297   .     A
C1373  O1409   1.316   .     A
C1373  C1382   1.465   .     S
C1374  O1411   1.308   .     A
C1374  O1410   1.304   .     A
C1374  C1381   1.461   .     S
C1375  I1429   2.128   .     S
C1375  C1400   1.412   .     A
C1376  C1399   1.421   .     A
C1376  I1430   2.133   .     S
C1376  C520    1.393   1_556 S
C1377  O1431   1.396   .     S
C1377  C1382   1.416   .     A
C1378  C1381   1.404   .     A
C1378  O1436   1.388   .     S
C1378  C1184   1.407   1_655 S
C1379  C1381   1.408   .     A
C1379  O1441   1.382   .     S
C1379  C1181   1.406   1_655 S
C1380  O1446   1.385   .     S
C1380  C1382   1.405   .     A
C1383  N1408   1.382   .     A
C1383  O1451   1.379   .     S
C1384  O1456   1.383   .     S
C1384  N1407   1.373   .     A
C1384  C1679   1.431   .     S
C1385  N1408   1.374   .     A
C1385  O1461   1.376   .     S
C1386  N1407   1.372   .     A
C1386  O1466   1.381   .     S
C1386  C1677   1.433   .     S
C1387  O1416   1.312   .     A
C1387  C1392   1.464   .     S
C1387  O1413   1.302   .     A
C1388  O1415   1.310   .     A
C1388  O1414   1.298   .     A
C1388  C1391   1.452   .     S
C1389  O1417   1.383   .     S
C1389  C1399   1.417   .     A
C1389  C1391   1.408   .     A
C1390  C1392   1.424   .     A
C1390  C1400   1.402   .     A
C1390  O1422   1.392   .     S
C1391  C1393   1.400   .     A
C1392  C1394   1.408   .     A
C1393  C1395   1.399   .     A
C1393  I1427   2.153   .     S
C1394  I1428   2.142   .     S
C1394  C1396   1.407   .     A
C1395  C1401   1.400   .     A
C1395  C1397   1.416   .     A
C1396  C1398   1.408   .     A
C1396  C1402   1.400   .     A
C1397  C1399   1.423   .     A
C1397  C516    1.413   1_556 S
C1398  C1400   1.414   .     A
C1401  H1405   1.080   .     S
C1401  C493    1.386   1_556 S
C1402  H1406   1.079   .     S
Cu1403 O1415   1.965   .     S
Cu1403 O1409   1.977   .     S
Cu1403 Cu1404  2.723   .     S
Cu1403 O1413   1.967   .     S
Cu1403 O1411   1.970   .     S
Cu1403 N1407   2.046   .     S
Cu1404 O1410   1.977   .     S
Cu1404 N1408   2.046   .     S
Cu1404 O1416   1.965   .     S
Cu1404 O1412   1.970   .     S
Cu1404 O1414   1.967   .     S
O1417  C1418   1.414   .     S
C1418  H1421   1.105   .     S
C1418  H1420   1.114   .     S
C1418  H1419   1.107   .     S
O1422  C1423   1.401   .     S
C1423  H1424   1.103   .     S
C1423  H1425   1.110   .     S
C1423  H1426   1.109   .     S
O1431  C1432   1.415   .     S
C1432  H1435   1.109   .     S
C1432  H1434   1.112   .     S
C1432  H1433   1.108   .     S
O1436  C1437   1.412   .     S
C1437  H1439   1.115   .     S
C1437  H1440   1.108   .     S
C1437  H1438   1.109   .     S
O1441  C1442   1.410   .     S
C1442  H1443   1.106   .     S
C1442  H1445   1.112   .     S
C1442  H1444   1.114   .     S
O1446  C1447   1.418   .     S
C1447  H1448   1.108   .     S
C1447  H1449   1.112   .     S
C1447  H1450   1.108   .     S
O1451  C1452   1.414   .     S
C1452  H1455   1.109   .     S
C1452  H1454   1.110   .     S
C1452  H1453   1.113   .     S
O1456  C1457   1.414   .     S
C1457  H1459   1.112   .     S
C1457  H1458   1.102   .     S
C1457  H1754   1.105   .     S
O1461  C1462   1.413   .     S
C1462  H1465   1.109   .     S
C1462  H1463   1.114   .     S
H1464  C1756   1.111   .     S
O1466  C1467   1.409   .     S
C1467  H1468   1.106   .     S
C1467  H1470   1.108   .     S
C1467  H1469   1.110   .     S
C1471  O1510   1.297   .     A
C1471  O1507   1.316   .     A
C1471  C1480   1.465   .     S
C1472  O1509   1.308   .     A
C1472  O1508   1.304   .     A
C1472  C1479   1.461   .     S
C1473  I1527   2.128   .     S
C1473  C1498   1.412   .     A
C1474  C1497   1.421   .     A
C1474  I1528   2.133   .     S
C1474  C618    1.393   1_556 S
C1475  O1529   1.396   .     S
C1475  C1480   1.416   .     A
C1475  C1673   1.406   1_455 S
C1476  C1479   1.404   .     A
C1476  O1534   1.388   .     S
C1476  C1576   1.407   .     S
C1477  C1479   1.408   .     A
C1477  O1539   1.382   .     S
C1477  C1573   1.406   .     S
C1478  O1544   1.385   .     S
C1478  C1480   1.405   .     A
C1478  C1672   1.407   1_455 S
C1481  N1506   1.382   .     A
C1481  O1549   1.379   .     S
C1482  O1554   1.383   .     S
C1482  N1505   1.373   .     A
C1482  C895    1.431   1_565 S
C1483  N1506   1.374   .     A
C1483  O1559   1.376   .     S
C1484  N1505   1.372   .     A
C1484  O1564   1.381   .     S
C1484  C893    1.433   1_565 S
C1485  O1514   1.312   .     A
C1485  C1490   1.464   .     S
C1485  O1511   1.302   .     A
C1486  O1513   1.310   .     A
C1486  O1512   1.298   .     A
C1486  C1489   1.452   .     S
C1487  O1515   1.383   .     S
C1487  C1497   1.417   .     A
C1487  C1489   1.408   .     A
C1488  C1490   1.424   .     A
C1488  C1498   1.402   .     A
C1488  O1520   1.392   .     S
C1489  C1491   1.400   .     A
C1490  C1492   1.408   .     A
C1491  C1493   1.399   .     A
C1491  I1525   2.153   .     S
C1492  I1526   2.142   .     S
C1492  C1494   1.407   .     A
C1493  C1499   1.400   .     A
C1493  C1495   1.416   .     A
C1494  C1496   1.408   .     A
C1494  C1500   1.400   .     A
C1495  C1497   1.423   .     A
C1495  C614    1.413   1_556 S
C1496  C1498   1.414   .     A
C1499  H1503   1.080   .     S
C1499  C591    1.386   1_556 S
C1500  H1504   1.079   .     S
Cu1501 O1513   1.965   .     S
Cu1501 O1507   1.977   .     S
Cu1501 Cu1502  2.723   .     S
Cu1501 O1511   1.967   .     S
Cu1501 O1509   1.970   .     S
Cu1501 N1505   2.046   .     S
Cu1502 O1508   1.977   .     S
Cu1502 N1506   2.046   .     S
Cu1502 O1514   1.965   .     S
Cu1502 O1510   1.970   .     S
Cu1502 O1512   1.967   .     S
O1515  C1516   1.414   .     S
C1516  H1519   1.105   .     S
C1516  H1518   1.114   .     S
C1516  H1517   1.107   .     S
O1520  C1521   1.401   .     S
C1521  H1522   1.103   .     S
C1521  H1523   1.110   .     S
C1521  H1524   1.109   .     S
O1529  C1530   1.415   .     S
C1530  H1533   1.109   .     S
C1530  H1532   1.112   .     S
C1530  H1531   1.108   .     S
O1534  C1535   1.412   .     S
C1535  H1537   1.115   .     S
C1535  H1538   1.108   .     S
C1535  H1536   1.109   .     S
O1539  C1540   1.410   .     S
C1540  H1541   1.106   .     S
C1540  H1543   1.112   .     S
C1540  H1542   1.114   .     S
O1544  C1545   1.418   .     S
C1545  H1546   1.108   .     S
C1545  H1547   1.112   .     S
C1545  H1548   1.108   .     S
O1549  C1550   1.414   .     S
C1550  H1553   1.109   .     S
C1550  H1552   1.110   .     S
C1550  H1551   1.113   .     S
O1554  C1555   1.414   .     S
C1555  H1557   1.112   .     S
C1555  H1556   1.102   .     S
C1555  H970    1.105   1_565 S
O1559  C1560   1.413   .     S
C1560  H1563   1.109   .     S
C1560  H1561   1.114   .     S
H1562  C972    1.111   1_565 S
O1564  C1565   1.409   .     S
C1565  H1566   1.106   .     S
C1565  H1568   1.108   .     S
C1565  H1567   1.110   .     S
C1569  O1608   1.297   .     A
C1569  O1605   1.316   .     A
C1569  C1578   1.465   .     S
C1570  O1607   1.308   .     A
C1570  O1606   1.304   .     A
C1570  C1577   1.461   .     S
C1571  I1625   2.128   .     S
C1571  C1596   1.412   .     A
C1572  C1595   1.421   .     A
C1572  I1626   2.133   .     S
C1572  C716    1.393   1_556 S
C1573  O1627   1.396   .     S
C1573  C1578   1.416   .     A
C1574  C1577   1.404   .     A
C1574  O1632   1.388   .     S
C1574  C1674   1.407   .     S
C1575  C1577   1.408   .     A
C1575  O1637   1.382   .     S
C1575  C1671   1.406   .     S
C1576  O1642   1.385   .     S
C1576  C1578   1.405   .     A
C1579  N1604   1.382   .     A
C1579  O1647   1.379   .     S
C1580  O1652   1.383   .     S
C1580  N1603   1.373   .     A
C1580  C993    1.431   1_565 S
C1581  N1604   1.374   .     A
C1581  O1657   1.376   .     S
C1582  N1603   1.372   .     A
C1582  O1662   1.381   .     S
C1582  C991    1.433   1_565 S
C1583  O1612   1.312   .     A
C1583  C1588   1.464   .     S
C1583  O1609   1.302   .     A
C1584  O1611   1.310   .     A
C1584  O1610   1.298   .     A
C1584  C1587   1.452   .     S
C1585  O1613   1.383   .     S
C1585  C1595   1.417   .     A
C1585  C1587   1.408   .     A
C1586  C1588   1.424   .     A
C1586  C1596   1.402   .     A
C1586  O1618   1.392   .     S
C1587  C1589   1.400   .     A
C1588  C1590   1.408   .     A
C1589  C1591   1.399   .     A
C1589  I1623   2.153   .     S
C1590  I1624   2.142   .     S
C1590  C1592   1.407   .     A
C1591  C1597   1.400   .     A
C1591  C1593   1.416   .     A
C1592  C1594   1.408   .     A
C1592  C1598   1.400   .     A
C1593  C1595   1.423   .     A
C1593  C712    1.413   1_556 S
C1594  C1596   1.414   .     A
C1597  H1601   1.080   .     S
C1597  C689    1.386   1_556 S
C1598  H1602   1.079   .     S
Cu1599 O1611   1.965   .     S
Cu1599 O1605   1.977   .     S
Cu1599 Cu1600  2.723   .     S
Cu1599 O1609   1.967   .     S
Cu1599 O1607   1.970   .     S
Cu1599 N1603   2.046   .     S
Cu1600 O1606   1.977   .     S
Cu1600 N1604   2.046   .     S
Cu1600 O1612   1.965   .     S
Cu1600 O1608   1.970   .     S
Cu1600 O1610   1.967   .     S
O1613  C1614   1.414   .     S
C1614  H1617   1.105   .     S
C1614  H1616   1.114   .     S
C1614  H1615   1.107   .     S
O1618  C1619   1.401   .     S
C1619  H1620   1.103   .     S
C1619  H1621   1.110   .     S
C1619  H1622   1.109   .     S
O1627  C1628   1.415   .     S
C1628  H1631   1.109   .     S
C1628  H1630   1.112   .     S
C1628  H1629   1.108   .     S
O1632  C1633   1.412   .     S
C1633  H1635   1.115   .     S
C1633  H1636   1.108   .     S
C1633  H1634   1.109   .     S
O1637  C1638   1.410   .     S
C1638  H1639   1.106   .     S
C1638  H1641   1.112   .     S
C1638  H1640   1.114   .     S
O1642  C1643   1.418   .     S
C1643  H1644   1.108   .     S
C1643  H1645   1.112   .     S
C1643  H1646   1.108   .     S
O1647  C1648   1.414   .     S
C1648  H1651   1.109   .     S
C1648  H1650   1.110   .     S
C1648  H1649   1.113   .     S
O1652  C1653   1.414   .     S
C1653  H1655   1.112   .     S
C1653  H1654   1.102   .     S
C1653  H1068   1.105   1_565 S
O1657  C1658   1.413   .     S
C1658  H1661   1.109   .     S
C1658  H1659   1.114   .     S
H1660  C1070   1.111   1_565 S
O1662  C1663   1.409   .     S
C1663  H1664   1.106   .     S
C1663  H1666   1.108   .     S
C1663  H1665   1.110   .     S
C1667  O1706   1.297   .     A
C1667  O1703   1.316   .     A
C1667  C1676   1.465   .     S
C1668  O1705   1.308   .     A
C1668  O1704   1.304   .     A
C1668  C1675   1.461   .     S
C1669  I1723   2.128   .     S
C1669  C1694   1.412   .     A
C1670  C1693   1.421   .     A
C1670  I1724   2.133   .     S
C1670  C814    1.393   1_556 S
C1671  O1725   1.396   .     S
C1671  C1676   1.416   .     A
C1672  C1675   1.404   .     A
C1672  O1730   1.388   .     S
C1672  C1478   1.407   1_655 S
C1673  C1675   1.408   .     A
C1673  O1735   1.382   .     S
C1673  C1475   1.406   1_655 S
C1674  O1740   1.385   .     S
C1674  C1676   1.405   .     A
C1677  N1702   1.382   .     A
C1677  O1745   1.379   .     S
C1678  O1750   1.383   .     S
C1678  N1701   1.373   .     A
C1678  C1091   1.431   1_565 S
C1679  N1702   1.374   .     A
C1679  O1755   1.376   .     S
C1680  N1701   1.372   .     A
C1680  O1760   1.381   .     S
C1680  C1089   1.433   1_565 S
C1681  O1710   1.312   .     A
C1681  C1686   1.464   .     S
C1681  O1707   1.302   .     A
C1682  O1709   1.310   .     A
C1682  O1708   1.298   .     A
C1682  C1685   1.452   .     S
C1683  O1711   1.383   .     S
C1683  C1693   1.417   .     A
C1683  C1685   1.408   .     A
C1684  C1686   1.424   .     A
C1684  C1694   1.402   .     A
C1684  O1716   1.392   .     S
C1685  C1687   1.400   .     A
C1686  C1688   1.408   .     A
C1687  C1689   1.399   .     A
C1687  I1721   2.153   .     S
C1688  I1722   2.142   .     S
C1688  C1690   1.407   .     A
C1689  C1695   1.400   .     A
C1689  C1691   1.416   .     A
C1690  C1692   1.408   .     A
C1690  C1696   1.400   .     A
C1691  C1693   1.423   .     A
C1691  C810    1.413   1_556 S
C1692  C1694   1.414   .     A
C1695  H1699   1.080   .     S
C1695  C787    1.386   1_556 S
C1696  H1700   1.079   .     S
Cu1697 O1709   1.965   .     S
Cu1697 O1703   1.977   .     S
Cu1697 Cu1698  2.723   .     S
Cu1697 O1707   1.967   .     S
Cu1697 O1705   1.970   .     S
Cu1697 N1701   2.046   .     S
Cu1698 O1704   1.977   .     S
Cu1698 N1702   2.046   .     S
Cu1698 O1710   1.965   .     S
Cu1698 O1706   1.970   .     S
Cu1698 O1708   1.967   .     S
O1711  C1712   1.414   .     S
C1712  H1715   1.105   .     S
C1712  H1714   1.114   .     S
C1712  H1713   1.107   .     S
O1716  C1717   1.401   .     S
C1717  H1718   1.103   .     S
C1717  H1719   1.110   .     S
C1717  H1720   1.109   .     S
O1725  C1726   1.415   .     S
C1726  H1729   1.109   .     S
C1726  H1728   1.112   .     S
C1726  H1727   1.108   .     S
O1730  C1731   1.412   .     S
C1731  H1733   1.115   .     S
C1731  H1734   1.108   .     S
C1731  H1732   1.109   .     S
O1735  C1736   1.410   .     S
C1736  H1737   1.106   .     S
C1736  H1739   1.112   .     S
C1736  H1738   1.114   .     S
O1740  C1741   1.418   .     S
C1741  H1742   1.108   .     S
C1741  H1743   1.112   .     S
C1741  H1744   1.108   .     S
O1745  C1746   1.414   .     S
C1746  H1749   1.109   .     S
C1746  H1748   1.110   .     S
C1746  H1747   1.113   .     S
O1750  C1751   1.414   .     S
C1751  H1753   1.112   .     S
C1751  H1752   1.102   .     S
C1751  H1166   1.105   1_565 S
O1755  C1756   1.413   .     S
C1756  H1759   1.109   .     S
C1756  H1757   1.114   .     S
H1758  C1168   1.111   1_565 S
O1760  C1761   1.409   .     S
C1761  H1762   1.106   .     S
C1761  H1764   1.108   .     S
C1761  H1763   1.110   .     S
