data_str_m2_o1_o16_pcu_sym.206
_audit_creation_date              2020-01-03
_audit_creation_method            'Materials Studio'
_symmetry_space_group_name_H-M    'P1'
_symmetry_Int_Tables_number       1
_symmetry_cell_setting            triclinic
loop_
_symmetry_equiv_pos_as_xyz
  x,y,z
_cell_length_a                    28.5002
_cell_length_b                    32.5138
_cell_length_c                    26.9826
_cell_angle_alpha                 90.1207
_cell_angle_beta                  72.3726
_cell_angle_gamma                 90.2779
loop_
_atom_site_label
_atom_site_type_symbol
_atom_site_fract_x
_atom_site_fract_y
_atom_site_fract_z
_atom_site_U_iso_or_equiv
_atom_site_adp_type
_atom_site_occupancy
C1     C     0.16722   0.24603   0.24906   0.00000  Uiso   1.00
C2     C     0.14690   0.16101   0.48845   0.00000  Uiso   1.00
C3     C     0.15674   0.17545   0.43656   0.00000  Uiso   1.00
C4     C     0.18224   0.16999   0.01497   0.00000  Uiso   1.00
C5     C     0.22865   0.18745   0.48765   0.00000  Uiso   1.00
C6     C     0.23610   0.20289   0.43783   0.00000  Uiso   1.00
C7     C     0.19922   0.19957   0.41443   0.00000  Uiso   1.00
C8     C     0.17181   0.16494   0.06858   0.00000  Uiso   1.00
C9     C     0.25546   0.18243   0.06460   0.00000  Uiso   1.00
C10    C     0.12417   0.16525   0.40763   0.00000  Uiso   1.00
C11    C     0.21171   0.31276   0.24654   0.00000  Uiso   1.00
C12    C     0.14026   0.16772   0.35023   0.00000  Uiso   1.00
C13    C     0.20978   0.02212   0.24905   0.00000  Uiso   1.00
C14    C     0.16730   0.04289   0.24788   0.00000  Uiso   1.00
C15    C     0.12586   0.02101   0.24508   0.00000  Uiso   1.00
C16    C     0.12639   0.31184   0.24503   0.00000  Uiso   1.00
C17    C     0.16865   0.29075   0.24692   0.00000  Uiso   1.00
C18    C     0.29982   0.19329   0.28085   0.00000  Uiso   1.00
C19    C     0.01599   0.19310   0.28118   0.00000  Uiso   1.00
C20    C     0.03364   0.14034   0.21865   0.00000  Uiso   1.00
C21    C     0.31730   0.14030   0.21873   0.00000  Uiso   1.00
C22    C     0.16672   0.08739   0.24948   0.00000  Uiso   1.00
C23    C     0.19294   0.16730   0.15004   0.00000  Uiso   1.00
C24    C     0.26558   0.19201   0.01210   0.00000  Uiso   1.00
C25    C     0.20784   0.17048   0.09338   0.00000  Uiso   1.00
C26    C     0.07851   0.14683   0.43298   0.00000  Uiso   1.00
C27    C     0.06812   0.13342   0.48387   0.00000  Uiso   1.00
C28    C     0.10300   0.13725   0.01042   0.00000  Uiso   1.00
Cu29   Cu    0.11978   0.16666   0.25000   0.00000  Uiso   1.00
Cu30   Cu    0.21355   0.16667   0.25000   0.00000  Uiso   1.00
H31    H     0.28374   0.18702   0.08336   0.00000  Uiso   1.00
H32    H     0.24162   0.03889   0.25241   0.00000  Uiso   1.00
H33    H     0.09282   0.03665   0.24362   0.00000  Uiso   1.00
H34    H     0.09346   0.29556   0.24394   0.00000  Uiso   1.00
H35    H     0.27430   0.21489   0.30512   0.00000  Uiso   1.00
H36    H     0.05943   0.11926   0.19360   0.00000  Uiso   1.00
H37    H     0.30559   0.11920   0.19371   0.00000  Uiso   1.00
H38    H     0.26956   0.21942   0.41774   0.00000  Uiso   1.00
H39    H     0.13466   0.15988   0.09257   0.00000  Uiso   1.00
H40    H     0.20450   0.21630   0.37865   0.00000  Uiso   1.00
N41    N     0.04931   0.16666   0.24998   0.00000  Uiso   1.00
N42    N     0.28402   0.16669   0.24999   0.00000  Uiso   1.00
O43    O     0.12708   0.22678   0.25000   0.00000  Uiso   1.00
O44    O     0.20627   0.22679   0.25000   0.00000  Uiso   1.00
O45    O     0.10775   0.16665   0.32549   0.00000  Uiso   1.00
O46    O     0.18694   0.16666   0.32549   0.00000  Uiso   1.00
O47    O     0.12706   0.10654   0.24999   0.00000  Uiso   1.00
O48    O     0.20625   0.10655   0.24999   0.00000  Uiso   1.00
O49    O     0.14640   0.16667   0.17451   0.00000  Uiso   1.00
O50    O     0.22559   0.16668   0.17451   0.00000  Uiso   1.00
F51    F     0.03030   0.21951   0.31280   0.00000  Uiso   1.00
F52    F     0.31074   0.20715   0.48577   0.00000  Uiso   1.00
F53    F     0.04516   0.13860   0.40740   0.00000  Uiso   1.00
O54    O     0.09295   0.11704   0.05750   0.00000  Uiso   1.00
C55    C     0.11468   0.07768   0.04911   0.00000  Uiso   1.00
H56    H     0.15520   0.08007   0.03006   0.00000  Uiso   1.00
H57    H     0.09792   0.05876   0.02433   0.00000  Uiso   1.00
C58    C     0.10557   0.05632   0.10165   0.00000  Uiso   1.00
H59    H     0.12272   0.07471   0.12643   0.00000  Uiso   1.00
H60    H     0.06529   0.05437   0.12156   0.00000  Uiso   1.00
C61    C     0.12707   0.01305   0.09535   0.00000  Uiso   1.00
H62    H     0.11027   0.32731   0.07094   0.00000  Uiso   1.00
H63    H     0.11921   0.33165   0.13412   0.00000  Uiso   1.00
H64    H     0.16759   0.01433   0.07701   0.00000  Uiso   1.00
F65    F     0.02509   0.11334   0.00650   0.00000  Uiso   1.00
O66    O     0.25340   0.29263   0.25022   0.00000  Uiso   1.00
C67    C     0.29414   0.29980   0.20542   0.00000  Uiso   1.00
H68    H     0.32806   0.29745   0.21739   0.00000  Uiso   1.00
H69    H     0.29478   0.33111   0.18848   0.00000  Uiso   1.00
C70    C     0.29633   0.26708   0.16380   0.00000  Uiso   1.00
H71    H     0.29742   0.23601   0.18041   0.00000  Uiso   1.00
H72    H     0.26290   0.26913   0.15088   0.00000  Uiso   1.00
C73    C     0.00858   0.27270   0.11681   0.00000  Uiso   1.00
H74    H     0.00824   0.30343   0.09902   0.00000  Uiso   1.00
H75    H     0.00901   0.24874   0.08729   0.00000  Uiso   1.00
H76    H     0.04252   0.26968   0.12862   0.00000  Uiso   1.00
C77    C     0.50055   0.24603   0.24906   0.00000  Uiso   1.00
C78    C     0.48023   0.16101   0.48845   0.00000  Uiso   1.00
C79    C     0.49007   0.17545   0.43656   0.00000  Uiso   1.00
C80    C     0.51557   0.16999   0.01497   0.00000  Uiso   1.00
C81    C     0.56199   0.18745   0.48765   0.00000  Uiso   1.00
C82    C     0.56944   0.20289   0.43783   0.00000  Uiso   1.00
C83    C     0.53255   0.19957   0.41443   0.00000  Uiso   1.00
C84    C     0.50514   0.16494   0.06858   0.00000  Uiso   1.00
C85    C     0.58880   0.18243   0.06460   0.00000  Uiso   1.00
C86    C     0.45750   0.16525   0.40763   0.00000  Uiso   1.00
C87    C     0.54505   0.31276   0.24654   0.00000  Uiso   1.00
C88    C     0.47360   0.16772   0.35023   0.00000  Uiso   1.00
C89    C     0.54311   0.02212   0.24905   0.00000  Uiso   1.00
C90    C     0.50064   0.04289   0.24788   0.00000  Uiso   1.00
C91    C     0.45919   0.02101   0.24508   0.00000  Uiso   1.00
C92    C     0.45973   0.31184   0.24503   0.00000  Uiso   1.00
C93    C     0.50198   0.29075   0.24692   0.00000  Uiso   1.00
C94    C     0.63315   0.19329   0.28085   0.00000  Uiso   1.00
C95    C     0.34932   0.19310   0.28118   0.00000  Uiso   1.00
C96    C     0.36698   0.14034   0.21865   0.00000  Uiso   1.00
C97    C     0.65063   0.14030   0.21873   0.00000  Uiso   1.00
C98    C     0.50005   0.08739   0.24948   0.00000  Uiso   1.00
C99    C     0.52627   0.16730   0.15004   0.00000  Uiso   1.00
C100   C     0.59891   0.19201   0.01210   0.00000  Uiso   1.00
C101   C     0.54117   0.17048   0.09338   0.00000  Uiso   1.00
C102   C     0.41184   0.14683   0.43298   0.00000  Uiso   1.00
C103   C     0.40145   0.13342   0.48387   0.00000  Uiso   1.00
C104   C     0.43634   0.13725   0.01042   0.00000  Uiso   1.00
Cu105  Cu    0.45311   0.16666   0.25000   0.00000  Uiso   1.00
Cu106  Cu    0.54689   0.16667   0.25000   0.00000  Uiso   1.00
H107   H     0.61707   0.18702   0.08336   0.00000  Uiso   1.00
H108   H     0.57496   0.03889   0.25241   0.00000  Uiso   1.00
H109   H     0.42615   0.03665   0.24362   0.00000  Uiso   1.00
H110   H     0.42680   0.29556   0.24394   0.00000  Uiso   1.00
H111   H     0.60764   0.21489   0.30512   0.00000  Uiso   1.00
H112   H     0.39277   0.11926   0.19360   0.00000  Uiso   1.00
H113   H     0.63892   0.11920   0.19371   0.00000  Uiso   1.00
H114   H     0.60289   0.21942   0.41774   0.00000  Uiso   1.00
H115   H     0.46800   0.15988   0.09257   0.00000  Uiso   1.00
H116   H     0.53783   0.21630   0.37865   0.00000  Uiso   1.00
N117   N     0.38265   0.16666   0.24998   0.00000  Uiso   1.00
N118   N     0.61735   0.16669   0.24999   0.00000  Uiso   1.00
O119   O     0.46042   0.22678   0.25000   0.00000  Uiso   1.00
O120   O     0.53961   0.22679   0.25000   0.00000  Uiso   1.00
O121   O     0.44108   0.16665   0.32549   0.00000  Uiso   1.00
O122   O     0.52027   0.16666   0.32549   0.00000  Uiso   1.00
O123   O     0.46039   0.10654   0.24999   0.00000  Uiso   1.00
O124   O     0.53958   0.10655   0.24999   0.00000  Uiso   1.00
O125   O     0.47973   0.16667   0.17451   0.00000  Uiso   1.00
O126   O     0.55892   0.16668   0.17451   0.00000  Uiso   1.00
F127   F     0.36363   0.21951   0.31280   0.00000  Uiso   1.00
F128   F     0.64407   0.20715   0.48577   0.00000  Uiso   1.00
F129   F     0.37850   0.13860   0.40740   0.00000  Uiso   1.00
O130   O     0.42628   0.11704   0.05750   0.00000  Uiso   1.00
C131   C     0.44802   0.07768   0.04911   0.00000  Uiso   1.00
H132   H     0.48854   0.08007   0.03006   0.00000  Uiso   1.00
H133   H     0.43125   0.05876   0.02433   0.00000  Uiso   1.00
C134   C     0.43890   0.05632   0.10165   0.00000  Uiso   1.00
H135   H     0.45605   0.07471   0.12643   0.00000  Uiso   1.00
H136   H     0.39862   0.05437   0.12156   0.00000  Uiso   1.00
C137   C     0.46040   0.01305   0.09535   0.00000  Uiso   1.00
H138   H     0.44360   0.32731   0.07094   0.00000  Uiso   1.00
H139   H     0.45254   0.33165   0.13412   0.00000  Uiso   1.00
H140   H     0.50093   0.01433   0.07701   0.00000  Uiso   1.00
F141   F     0.35842   0.11334   0.00650   0.00000  Uiso   1.00
O142   O     0.58673   0.29263   0.25022   0.00000  Uiso   1.00
C143   C     0.62747   0.29980   0.20542   0.00000  Uiso   1.00
H144   H     0.66140   0.29745   0.21739   0.00000  Uiso   1.00
H145   H     0.62811   0.33111   0.18848   0.00000  Uiso   1.00
C146   C     0.62966   0.26708   0.16380   0.00000  Uiso   1.00
H147   H     0.63075   0.23601   0.18041   0.00000  Uiso   1.00
H148   H     0.59624   0.26913   0.15088   0.00000  Uiso   1.00
C149   C     0.34191   0.27270   0.11681   0.00000  Uiso   1.00
H150   H     0.34157   0.30343   0.09902   0.00000  Uiso   1.00
H151   H     0.34235   0.24874   0.08729   0.00000  Uiso   1.00
H152   H     0.37585   0.26968   0.12862   0.00000  Uiso   1.00
C153   C     0.83388   0.24603   0.24906   0.00000  Uiso   1.00
C154   C     0.81356   0.16101   0.48845   0.00000  Uiso   1.00
C155   C     0.82340   0.17545   0.43656   0.00000  Uiso   1.00
C156   C     0.84890   0.16999   0.01497   0.00000  Uiso   1.00
C157   C     0.89532   0.18745   0.48765   0.00000  Uiso   1.00
C158   C     0.90277   0.20289   0.43783   0.00000  Uiso   1.00
C159   C     0.86589   0.19957   0.41443   0.00000  Uiso   1.00
C160   C     0.83848   0.16494   0.06858   0.00000  Uiso   1.00
C161   C     0.92213   0.18243   0.06460   0.00000  Uiso   1.00
C162   C     0.79083   0.16525   0.40763   0.00000  Uiso   1.00
C163   C     0.87838   0.31276   0.24654   0.00000  Uiso   1.00
C164   C     0.80693   0.16772   0.35023   0.00000  Uiso   1.00
C165   C     0.87645   0.02212   0.24905   0.00000  Uiso   1.00
C166   C     0.83397   0.04289   0.24788   0.00000  Uiso   1.00
C167   C     0.79253   0.02101   0.24508   0.00000  Uiso   1.00
C168   C     0.79306   0.31184   0.24503   0.00000  Uiso   1.00
C169   C     0.83531   0.29075   0.24692   0.00000  Uiso   1.00
C170   C     0.96649   0.19329   0.28085   0.00000  Uiso   1.00
C171   C     0.68266   0.19310   0.28118   0.00000  Uiso   1.00
C172   C     0.70031   0.14034   0.21865   0.00000  Uiso   1.00
C173   C     0.98397   0.14030   0.21873   0.00000  Uiso   1.00
C174   C     0.83339   0.08739   0.24948   0.00000  Uiso   1.00
C175   C     0.85960   0.16730   0.15004   0.00000  Uiso   1.00
C176   C     0.93225   0.19201   0.01210   0.00000  Uiso   1.00
C177   C     0.87451   0.17048   0.09338   0.00000  Uiso   1.00
C178   C     0.74517   0.14683   0.43298   0.00000  Uiso   1.00
C179   C     0.73478   0.13342   0.48387   0.00000  Uiso   1.00
C180   C     0.76967   0.13725   0.01042   0.00000  Uiso   1.00
Cu181  Cu    0.78645   0.16666   0.25000   0.00000  Uiso   1.00
Cu182  Cu    0.88022   0.16667   0.25000   0.00000  Uiso   1.00
H183   H     0.95040   0.18702   0.08336   0.00000  Uiso   1.00
H184   H     0.90829   0.03889   0.25241   0.00000  Uiso   1.00
H185   H     0.75949   0.03665   0.24362   0.00000  Uiso   1.00
H186   H     0.76013   0.29556   0.24394   0.00000  Uiso   1.00
H187   H     0.94097   0.21489   0.30512   0.00000  Uiso   1.00
H188   H     0.72610   0.11926   0.19360   0.00000  Uiso   1.00
H189   H     0.97226   0.11920   0.19371   0.00000  Uiso   1.00
H190   H     0.93622   0.21942   0.41774   0.00000  Uiso   1.00
H191   H     0.80133   0.15988   0.09257   0.00000  Uiso   1.00
H192   H     0.87117   0.21630   0.37865   0.00000  Uiso   1.00
N193   N     0.71598   0.16666   0.24998   0.00000  Uiso   1.00
N194   N     0.95069   0.16669   0.24999   0.00000  Uiso   1.00
O195   O     0.79375   0.22678   0.25000   0.00000  Uiso   1.00
O196   O     0.87294   0.22679   0.25000   0.00000  Uiso   1.00
O197   O     0.77441   0.16665   0.32549   0.00000  Uiso   1.00
O198   O     0.85360   0.16666   0.32549   0.00000  Uiso   1.00
O199   O     0.79373   0.10654   0.24999   0.00000  Uiso   1.00
O200   O     0.87292   0.10655   0.24999   0.00000  Uiso   1.00
O201   O     0.81306   0.16667   0.17451   0.00000  Uiso   1.00
O202   O     0.89225   0.16668   0.17451   0.00000  Uiso   1.00
F203   F     0.69697   0.21951   0.31280   0.00000  Uiso   1.00
F204   F     0.97741   0.20715   0.48577   0.00000  Uiso   1.00
F205   F     0.71183   0.13860   0.40740   0.00000  Uiso   1.00
O206   O     0.75961   0.11704   0.05750   0.00000  Uiso   1.00
C207   C     0.78135   0.07768   0.04911   0.00000  Uiso   1.00
H208   H     0.82187   0.08007   0.03006   0.00000  Uiso   1.00
H209   H     0.76459   0.05876   0.02433   0.00000  Uiso   1.00
C210   C     0.77223   0.05632   0.10165   0.00000  Uiso   1.00
H211   H     0.78938   0.07471   0.12643   0.00000  Uiso   1.00
H212   H     0.73195   0.05437   0.12156   0.00000  Uiso   1.00
C213   C     0.79374   0.01305   0.09535   0.00000  Uiso   1.00
H214   H     0.77694   0.32731   0.07094   0.00000  Uiso   1.00
H215   H     0.78587   0.33165   0.13412   0.00000  Uiso   1.00
H216   H     0.83426   0.01433   0.07701   0.00000  Uiso   1.00
F217   F     0.69175   0.11334   0.00650   0.00000  Uiso   1.00
O218   O     0.92006   0.29263   0.25022   0.00000  Uiso   1.00
C219   C     0.96081   0.29980   0.20542   0.00000  Uiso   1.00
H220   H     0.99473   0.29745   0.21739   0.00000  Uiso   1.00
H221   H     0.96145   0.33111   0.18848   0.00000  Uiso   1.00
C222   C     0.96300   0.26708   0.16380   0.00000  Uiso   1.00
H223   H     0.96409   0.23601   0.18041   0.00000  Uiso   1.00
H224   H     0.92957   0.26913   0.15088   0.00000  Uiso   1.00
C225   C     0.67524   0.27270   0.11681   0.00000  Uiso   1.00
H226   H     0.67491   0.30343   0.09902   0.00000  Uiso   1.00
H227   H     0.67568   0.24874   0.08729   0.00000  Uiso   1.00
H228   H     0.70918   0.26968   0.12862   0.00000  Uiso   1.00
C229   C     0.16722   0.57937   0.24906   0.00000  Uiso   1.00
C230   C     0.14690   0.49435   0.48845   0.00000  Uiso   1.00
C231   C     0.15674   0.50878   0.43656   0.00000  Uiso   1.00
C232   C     0.18224   0.50332   0.01497   0.00000  Uiso   1.00
C233   C     0.22865   0.52079   0.48765   0.00000  Uiso   1.00
C234   C     0.23610   0.53623   0.43783   0.00000  Uiso   1.00
C235   C     0.19922   0.53291   0.41443   0.00000  Uiso   1.00
C236   C     0.17181   0.49827   0.06858   0.00000  Uiso   1.00
C237   C     0.25546   0.51576   0.06460   0.00000  Uiso   1.00
C238   C     0.12417   0.49858   0.40763   0.00000  Uiso   1.00
C239   C     0.21171   0.64609   0.24654   0.00000  Uiso   1.00
C240   C     0.14026   0.50106   0.35023   0.00000  Uiso   1.00
C241   C     0.20978   0.35545   0.24905   0.00000  Uiso   1.00
C242   C     0.16730   0.37622   0.24788   0.00000  Uiso   1.00
C243   C     0.12586   0.35435   0.24508   0.00000  Uiso   1.00
C244   C     0.12639   0.64518   0.24503   0.00000  Uiso   1.00
C245   C     0.16865   0.62408   0.24692   0.00000  Uiso   1.00
C246   C     0.29982   0.52662   0.28085   0.00000  Uiso   1.00
C247   C     0.01599   0.52644   0.28118   0.00000  Uiso   1.00
C248   C     0.03364   0.47367   0.21865   0.00000  Uiso   1.00
C249   C     0.31730   0.47363   0.21873   0.00000  Uiso   1.00
C250   C     0.16672   0.42072   0.24948   0.00000  Uiso   1.00
C251   C     0.19294   0.50063   0.15004   0.00000  Uiso   1.00
C252   C     0.26558   0.52535   0.01210   0.00000  Uiso   1.00
C253   C     0.20784   0.50381   0.09338   0.00000  Uiso   1.00
C254   C     0.07851   0.48016   0.43298   0.00000  Uiso   1.00
C255   C     0.06812   0.46676   0.48387   0.00000  Uiso   1.00
C256   C     0.10300   0.47058   0.01042   0.00000  Uiso   1.00
Cu257  Cu    0.11978   0.49999   0.25000   0.00000  Uiso   1.00
Cu258  Cu    0.21355   0.50001   0.25000   0.00000  Uiso   1.00
H259   H     0.28374   0.52036   0.08336   0.00000  Uiso   1.00
H260   H     0.24162   0.37222   0.25241   0.00000  Uiso   1.00
H261   H     0.09282   0.36998   0.24362   0.00000  Uiso   1.00
H262   H     0.09346   0.62889   0.24394   0.00000  Uiso   1.00
H263   H     0.27430   0.54822   0.30512   0.00000  Uiso   1.00
H264   H     0.05943   0.45259   0.19360   0.00000  Uiso   1.00
H265   H     0.30559   0.45253   0.19371   0.00000  Uiso   1.00
H266   H     0.26956   0.55275   0.41774   0.00000  Uiso   1.00
H267   H     0.13466   0.49321   0.09257   0.00000  Uiso   1.00
H268   H     0.20450   0.54964   0.37865   0.00000  Uiso   1.00
N269   N     0.04931   0.49999   0.24998   0.00000  Uiso   1.00
N270   N     0.28402   0.50002   0.24999   0.00000  Uiso   1.00
O271   O     0.12708   0.56011   0.25000   0.00000  Uiso   1.00
O272   O     0.20627   0.56012   0.25000   0.00000  Uiso   1.00
O273   O     0.10775   0.49998   0.32549   0.00000  Uiso   1.00
O274   O     0.18694   0.49999   0.32549   0.00000  Uiso   1.00
O275   O     0.12706   0.43988   0.24999   0.00000  Uiso   1.00
O276   O     0.20625   0.43989   0.24999   0.00000  Uiso   1.00
O277   O     0.14640   0.50001   0.17451   0.00000  Uiso   1.00
O278   O     0.22559   0.50002   0.17451   0.00000  Uiso   1.00
F279   F     0.03030   0.55285   0.31280   0.00000  Uiso   1.00
F280   F     0.31074   0.54048   0.48577   0.00000  Uiso   1.00
F281   F     0.04516   0.47193   0.40740   0.00000  Uiso   1.00
O282   O     0.09295   0.45037   0.05750   0.00000  Uiso   1.00
C283   C     0.11468   0.41102   0.04911   0.00000  Uiso   1.00
H284   H     0.15520   0.41340   0.03006   0.00000  Uiso   1.00
H285   H     0.09792   0.39209   0.02433   0.00000  Uiso   1.00
C286   C     0.10557   0.38966   0.10165   0.00000  Uiso   1.00
H287   H     0.12272   0.40804   0.12643   0.00000  Uiso   1.00
H288   H     0.06529   0.38770   0.12156   0.00000  Uiso   1.00
C289   C     0.12707   0.34638   0.09535   0.00000  Uiso   1.00
H290   H     0.11027   0.66064   0.07094   0.00000  Uiso   1.00
H291   H     0.11921   0.66498   0.13412   0.00000  Uiso   1.00
H292   H     0.16759   0.34766   0.07701   0.00000  Uiso   1.00
F293   F     0.02509   0.44667   0.00650   0.00000  Uiso   1.00
O294   O     0.25340   0.62597   0.25022   0.00000  Uiso   1.00
C295   C     0.29414   0.63314   0.20542   0.00000  Uiso   1.00
H296   H     0.32806   0.63079   0.21739   0.00000  Uiso   1.00
H297   H     0.29478   0.66444   0.18848   0.00000  Uiso   1.00
C298   C     0.29633   0.60042   0.16380   0.00000  Uiso   1.00
H299   H     0.29742   0.56935   0.18041   0.00000  Uiso   1.00
H300   H     0.26290   0.60247   0.15088   0.00000  Uiso   1.00
C301   C     0.00858   0.60603   0.11681   0.00000  Uiso   1.00
H302   H     0.00824   0.63677   0.09902   0.00000  Uiso   1.00
H303   H     0.00901   0.58207   0.08729   0.00000  Uiso   1.00
H304   H     0.04252   0.60301   0.12862   0.00000  Uiso   1.00
C305   C     0.50055   0.57937   0.24906   0.00000  Uiso   1.00
C306   C     0.48023   0.49435   0.48845   0.00000  Uiso   1.00
C307   C     0.49007   0.50878   0.43656   0.00000  Uiso   1.00
C308   C     0.51557   0.50332   0.01497   0.00000  Uiso   1.00
C309   C     0.56199   0.52079   0.48765   0.00000  Uiso   1.00
C310   C     0.56944   0.53623   0.43783   0.00000  Uiso   1.00
C311   C     0.53255   0.53291   0.41443   0.00000  Uiso   1.00
C312   C     0.50514   0.49827   0.06858   0.00000  Uiso   1.00
C313   C     0.58880   0.51576   0.06460   0.00000  Uiso   1.00
C314   C     0.45750   0.49858   0.40763   0.00000  Uiso   1.00
C315   C     0.54505   0.64609   0.24654   0.00000  Uiso   1.00
C316   C     0.47360   0.50106   0.35023   0.00000  Uiso   1.00
C317   C     0.54311   0.35545   0.24905   0.00000  Uiso   1.00
C318   C     0.50064   0.37622   0.24788   0.00000  Uiso   1.00
C319   C     0.45919   0.35435   0.24508   0.00000  Uiso   1.00
C320   C     0.45973   0.64518   0.24503   0.00000  Uiso   1.00
C321   C     0.50198   0.62408   0.24692   0.00000  Uiso   1.00
C322   C     0.63315   0.52662   0.28085   0.00000  Uiso   1.00
C323   C     0.34932   0.52644   0.28118   0.00000  Uiso   1.00
C324   C     0.36698   0.47367   0.21865   0.00000  Uiso   1.00
C325   C     0.65063   0.47363   0.21873   0.00000  Uiso   1.00
C326   C     0.50005   0.42072   0.24948   0.00000  Uiso   1.00
C327   C     0.52627   0.50063   0.15004   0.00000  Uiso   1.00
C328   C     0.59891   0.52535   0.01210   0.00000  Uiso   1.00
C329   C     0.54117   0.50381   0.09338   0.00000  Uiso   1.00
C330   C     0.41184   0.48016   0.43298   0.00000  Uiso   1.00
C331   C     0.40145   0.46676   0.48387   0.00000  Uiso   1.00
C332   C     0.43634   0.47058   0.01042   0.00000  Uiso   1.00
Cu333  Cu    0.45311   0.49999   0.25000   0.00000  Uiso   1.00
Cu334  Cu    0.54689   0.50001   0.25000   0.00000  Uiso   1.00
H335   H     0.61707   0.52036   0.08336   0.00000  Uiso   1.00
H336   H     0.57496   0.37222   0.25241   0.00000  Uiso   1.00
H337   H     0.42615   0.36998   0.24362   0.00000  Uiso   1.00
H338   H     0.42680   0.62889   0.24394   0.00000  Uiso   1.00
H339   H     0.60764   0.54822   0.30512   0.00000  Uiso   1.00
H340   H     0.39277   0.45259   0.19360   0.00000  Uiso   1.00
H341   H     0.63892   0.45253   0.19371   0.00000  Uiso   1.00
H342   H     0.60289   0.55275   0.41774   0.00000  Uiso   1.00
H343   H     0.46800   0.49321   0.09257   0.00000  Uiso   1.00
H344   H     0.53783   0.54964   0.37865   0.00000  Uiso   1.00
N345   N     0.38265   0.49999   0.24998   0.00000  Uiso   1.00
N346   N     0.61735   0.50002   0.24999   0.00000  Uiso   1.00
O347   O     0.46042   0.56011   0.25000   0.00000  Uiso   1.00
O348   O     0.53961   0.56012   0.25000   0.00000  Uiso   1.00
O349   O     0.44108   0.49998   0.32549   0.00000  Uiso   1.00
O350   O     0.52027   0.49999   0.32549   0.00000  Uiso   1.00
O351   O     0.46039   0.43988   0.24999   0.00000  Uiso   1.00
O352   O     0.53958   0.43989   0.24999   0.00000  Uiso   1.00
O353   O     0.47973   0.50001   0.17451   0.00000  Uiso   1.00
O354   O     0.55892   0.50002   0.17451   0.00000  Uiso   1.00
F355   F     0.36363   0.55285   0.31280   0.00000  Uiso   1.00
F356   F     0.64407   0.54048   0.48577   0.00000  Uiso   1.00
F357   F     0.37850   0.47193   0.40740   0.00000  Uiso   1.00
O358   O     0.42628   0.45037   0.05750   0.00000  Uiso   1.00
C359   C     0.44802   0.41102   0.04911   0.00000  Uiso   1.00
H360   H     0.48854   0.41340   0.03006   0.00000  Uiso   1.00
H361   H     0.43125   0.39209   0.02433   0.00000  Uiso   1.00
C362   C     0.43890   0.38966   0.10165   0.00000  Uiso   1.00
H363   H     0.45605   0.40804   0.12643   0.00000  Uiso   1.00
H364   H     0.39862   0.38770   0.12156   0.00000  Uiso   1.00
C365   C     0.46040   0.34638   0.09535   0.00000  Uiso   1.00
H366   H     0.44360   0.66064   0.07094   0.00000  Uiso   1.00
H367   H     0.45254   0.66498   0.13412   0.00000  Uiso   1.00
H368   H     0.50093   0.34766   0.07701   0.00000  Uiso   1.00
F369   F     0.35842   0.44667   0.00650   0.00000  Uiso   1.00
O370   O     0.58673   0.62597   0.25022   0.00000  Uiso   1.00
C371   C     0.62747   0.63314   0.20542   0.00000  Uiso   1.00
H372   H     0.66140   0.63079   0.21739   0.00000  Uiso   1.00
H373   H     0.62811   0.66444   0.18848   0.00000  Uiso   1.00
C374   C     0.62966   0.60042   0.16380   0.00000  Uiso   1.00
H375   H     0.63075   0.56935   0.18041   0.00000  Uiso   1.00
H376   H     0.59624   0.60247   0.15088   0.00000  Uiso   1.00
C377   C     0.34191   0.60603   0.11681   0.00000  Uiso   1.00
H378   H     0.34157   0.63677   0.09902   0.00000  Uiso   1.00
H379   H     0.34235   0.58207   0.08729   0.00000  Uiso   1.00
H380   H     0.37585   0.60301   0.12862   0.00000  Uiso   1.00
C381   C     0.83388   0.57937   0.24906   0.00000  Uiso   1.00
C382   C     0.81356   0.49435   0.48845   0.00000  Uiso   1.00
C383   C     0.82340   0.50878   0.43656   0.00000  Uiso   1.00
C384   C     0.84890   0.50332   0.01497   0.00000  Uiso   1.00
C385   C     0.89532   0.52079   0.48765   0.00000  Uiso   1.00
C386   C     0.90277   0.53623   0.43783   0.00000  Uiso   1.00
C387   C     0.86589   0.53291   0.41443   0.00000  Uiso   1.00
C388   C     0.83848   0.49827   0.06858   0.00000  Uiso   1.00
C389   C     0.92213   0.51576   0.06460   0.00000  Uiso   1.00
C390   C     0.79083   0.49858   0.40763   0.00000  Uiso   1.00
C391   C     0.87838   0.64609   0.24654   0.00000  Uiso   1.00
C392   C     0.80693   0.50106   0.35023   0.00000  Uiso   1.00
C393   C     0.87645   0.35545   0.24905   0.00000  Uiso   1.00
C394   C     0.83397   0.37622   0.24788   0.00000  Uiso   1.00
C395   C     0.79253   0.35435   0.24508   0.00000  Uiso   1.00
C396   C     0.79306   0.64518   0.24503   0.00000  Uiso   1.00
C397   C     0.83531   0.62408   0.24692   0.00000  Uiso   1.00
C398   C     0.96649   0.52662   0.28085   0.00000  Uiso   1.00
C399   C     0.68266   0.52644   0.28118   0.00000  Uiso   1.00
C400   C     0.70031   0.47367   0.21865   0.00000  Uiso   1.00
C401   C     0.98397   0.47363   0.21873   0.00000  Uiso   1.00
C402   C     0.83339   0.42072   0.24948   0.00000  Uiso   1.00
C403   C     0.85960   0.50063   0.15004   0.00000  Uiso   1.00
C404   C     0.93225   0.52535   0.01210   0.00000  Uiso   1.00
C405   C     0.87451   0.50381   0.09338   0.00000  Uiso   1.00
C406   C     0.74517   0.48016   0.43298   0.00000  Uiso   1.00
C407   C     0.73478   0.46676   0.48387   0.00000  Uiso   1.00
C408   C     0.76967   0.47058   0.01042   0.00000  Uiso   1.00
Cu409  Cu    0.78645   0.49999   0.25000   0.00000  Uiso   1.00
Cu410  Cu    0.88022   0.50001   0.25000   0.00000  Uiso   1.00
H411   H     0.95040   0.52036   0.08336   0.00000  Uiso   1.00
H412   H     0.90829   0.37222   0.25241   0.00000  Uiso   1.00
H413   H     0.75949   0.36998   0.24362   0.00000  Uiso   1.00
H414   H     0.76013   0.62889   0.24394   0.00000  Uiso   1.00
H415   H     0.94097   0.54822   0.30512   0.00000  Uiso   1.00
H416   H     0.72610   0.45259   0.19360   0.00000  Uiso   1.00
H417   H     0.97226   0.45253   0.19371   0.00000  Uiso   1.00
H418   H     0.93622   0.55275   0.41774   0.00000  Uiso   1.00
H419   H     0.80133   0.49321   0.09257   0.00000  Uiso   1.00
H420   H     0.87117   0.54964   0.37865   0.00000  Uiso   1.00
N421   N     0.71598   0.49999   0.24998   0.00000  Uiso   1.00
N422   N     0.95069   0.50002   0.24999   0.00000  Uiso   1.00
O423   O     0.79375   0.56011   0.25000   0.00000  Uiso   1.00
O424   O     0.87294   0.56012   0.25000   0.00000  Uiso   1.00
O425   O     0.77441   0.49998   0.32549   0.00000  Uiso   1.00
O426   O     0.85360   0.49999   0.32549   0.00000  Uiso   1.00
O427   O     0.79373   0.43988   0.24999   0.00000  Uiso   1.00
O428   O     0.87292   0.43989   0.24999   0.00000  Uiso   1.00
O429   O     0.81306   0.50001   0.17451   0.00000  Uiso   1.00
O430   O     0.89225   0.50002   0.17451   0.00000  Uiso   1.00
F431   F     0.69697   0.55285   0.31280   0.00000  Uiso   1.00
F432   F     0.97741   0.54048   0.48577   0.00000  Uiso   1.00
F433   F     0.71183   0.47193   0.40740   0.00000  Uiso   1.00
O434   O     0.75961   0.45037   0.05750   0.00000  Uiso   1.00
C435   C     0.78135   0.41102   0.04911   0.00000  Uiso   1.00
H436   H     0.82187   0.41340   0.03006   0.00000  Uiso   1.00
H437   H     0.76459   0.39209   0.02433   0.00000  Uiso   1.00
C438   C     0.77223   0.38966   0.10165   0.00000  Uiso   1.00
H439   H     0.78938   0.40804   0.12643   0.00000  Uiso   1.00
H440   H     0.73195   0.38770   0.12156   0.00000  Uiso   1.00
C441   C     0.79374   0.34638   0.09535   0.00000  Uiso   1.00
H442   H     0.77694   0.66064   0.07094   0.00000  Uiso   1.00
H443   H     0.78587   0.66498   0.13412   0.00000  Uiso   1.00
H444   H     0.83426   0.34766   0.07701   0.00000  Uiso   1.00
F445   F     0.69175   0.44667   0.00650   0.00000  Uiso   1.00
O446   O     0.92006   0.62597   0.25022   0.00000  Uiso   1.00
C447   C     0.96081   0.63314   0.20542   0.00000  Uiso   1.00
H448   H     0.99473   0.63079   0.21739   0.00000  Uiso   1.00
H449   H     0.96145   0.66444   0.18848   0.00000  Uiso   1.00
C450   C     0.96300   0.60042   0.16380   0.00000  Uiso   1.00
H451   H     0.96409   0.56935   0.18041   0.00000  Uiso   1.00
H452   H     0.92957   0.60247   0.15088   0.00000  Uiso   1.00
C453   C     0.67524   0.60603   0.11681   0.00000  Uiso   1.00
H454   H     0.67491   0.63677   0.09902   0.00000  Uiso   1.00
H455   H     0.67568   0.58207   0.08729   0.00000  Uiso   1.00
H456   H     0.70918   0.60301   0.12862   0.00000  Uiso   1.00
C457   C     0.16722   0.91270   0.24906   0.00000  Uiso   1.00
C458   C     0.14690   0.82768   0.48845   0.00000  Uiso   1.00
C459   C     0.15674   0.84211   0.43656   0.00000  Uiso   1.00
C460   C     0.18224   0.83666   0.01497   0.00000  Uiso   1.00
C461   C     0.22865   0.85412   0.48765   0.00000  Uiso   1.00
C462   C     0.23610   0.86956   0.43783   0.00000  Uiso   1.00
C463   C     0.19922   0.86624   0.41443   0.00000  Uiso   1.00
C464   C     0.17181   0.83160   0.06858   0.00000  Uiso   1.00
C465   C     0.25546   0.84909   0.06460   0.00000  Uiso   1.00
C466   C     0.12417   0.83192   0.40763   0.00000  Uiso   1.00
C467   C     0.21171   0.97943   0.24654   0.00000  Uiso   1.00
C468   C     0.14026   0.83439   0.35023   0.00000  Uiso   1.00
C469   C     0.20978   0.68878   0.24905   0.00000  Uiso   1.00
C470   C     0.16730   0.70956   0.24788   0.00000  Uiso   1.00
C471   C     0.12586   0.68768   0.24508   0.00000  Uiso   1.00
C472   C     0.12639   0.97851   0.24503   0.00000  Uiso   1.00
C473   C     0.16865   0.95742   0.24692   0.00000  Uiso   1.00
C474   C     0.29982   0.85996   0.28085   0.00000  Uiso   1.00
C475   C     0.01599   0.85977   0.28118   0.00000  Uiso   1.00
C476   C     0.03364   0.80701   0.21865   0.00000  Uiso   1.00
C477   C     0.31730   0.80697   0.21873   0.00000  Uiso   1.00
C478   C     0.16672   0.75406   0.24948   0.00000  Uiso   1.00
C479   C     0.19294   0.83396   0.15004   0.00000  Uiso   1.00
C480   C     0.26558   0.85868   0.01210   0.00000  Uiso   1.00
C481   C     0.20784   0.83715   0.09338   0.00000  Uiso   1.00
C482   C     0.07851   0.81350   0.43298   0.00000  Uiso   1.00
C483   C     0.06812   0.80009   0.48387   0.00000  Uiso   1.00
C484   C     0.10300   0.80392   0.01042   0.00000  Uiso   1.00
Cu485  Cu    0.11978   0.83333   0.25000   0.00000  Uiso   1.00
Cu486  Cu    0.21355   0.83334   0.25000   0.00000  Uiso   1.00
H487   H     0.28374   0.85369   0.08336   0.00000  Uiso   1.00
H488   H     0.24162   0.70556   0.25241   0.00000  Uiso   1.00
H489   H     0.09282   0.70331   0.24362   0.00000  Uiso   1.00
H490   H     0.09346   0.96222   0.24394   0.00000  Uiso   1.00
H491   H     0.27430   0.88156   0.30512   0.00000  Uiso   1.00
H492   H     0.05943   0.78592   0.19360   0.00000  Uiso   1.00
H493   H     0.30559   0.78586   0.19371   0.00000  Uiso   1.00
H494   H     0.26956   0.88608   0.41774   0.00000  Uiso   1.00
H495   H     0.13466   0.82655   0.09257   0.00000  Uiso   1.00
H496   H     0.20450   0.88297   0.37865   0.00000  Uiso   1.00
N497   N     0.04931   0.83332   0.24998   0.00000  Uiso   1.00
N498   N     0.28402   0.83335   0.24999   0.00000  Uiso   1.00
O499   O     0.12708   0.89345   0.25000   0.00000  Uiso   1.00
O500   O     0.20627   0.89346   0.25000   0.00000  Uiso   1.00
O501   O     0.10775   0.83332   0.32549   0.00000  Uiso   1.00
O502   O     0.18694   0.83333   0.32549   0.00000  Uiso   1.00
O503   O     0.12706   0.77321   0.24999   0.00000  Uiso   1.00
O504   O     0.20625   0.77322   0.24999   0.00000  Uiso   1.00
O505   O     0.14640   0.83334   0.17451   0.00000  Uiso   1.00
O506   O     0.22559   0.83335   0.17451   0.00000  Uiso   1.00
F507   F     0.03030   0.88618   0.31280   0.00000  Uiso   1.00
F508   F     0.31074   0.87381   0.48577   0.00000  Uiso   1.00
F509   F     0.04516   0.80526   0.40740   0.00000  Uiso   1.00
O510   O     0.09295   0.78370   0.05750   0.00000  Uiso   1.00
C511   C     0.11468   0.74435   0.04911   0.00000  Uiso   1.00
H512   H     0.15520   0.74673   0.03006   0.00000  Uiso   1.00
H513   H     0.09792   0.72543   0.02433   0.00000  Uiso   1.00
C514   C     0.10557   0.72299   0.10165   0.00000  Uiso   1.00
H515   H     0.12272   0.74138   0.12643   0.00000  Uiso   1.00
H516   H     0.06529   0.72104   0.12156   0.00000  Uiso   1.00
C517   C     0.12707   0.67971   0.09535   0.00000  Uiso   1.00
H518   H     0.11027   0.99397   0.07094   0.00000  Uiso   1.00
H519   H     0.11921   0.99832   0.13412   0.00000  Uiso   1.00
H520   H     0.16759   0.68100   0.07701   0.00000  Uiso   1.00
F521   F     0.02509   0.78001   0.00650   0.00000  Uiso   1.00
O522   O     0.25340   0.95930   0.25022   0.00000  Uiso   1.00
C523   C     0.29414   0.96647   0.20542   0.00000  Uiso   1.00
H524   H     0.32806   0.96412   0.21739   0.00000  Uiso   1.00
H525   H     0.29478   0.99778   0.18848   0.00000  Uiso   1.00
C526   C     0.29633   0.93375   0.16380   0.00000  Uiso   1.00
H527   H     0.29742   0.90268   0.18041   0.00000  Uiso   1.00
H528   H     0.26290   0.93580   0.15088   0.00000  Uiso   1.00
C529   C     0.00858   0.93937   0.11681   0.00000  Uiso   1.00
H530   H     0.00824   0.97010   0.09902   0.00000  Uiso   1.00
H531   H     0.00901   0.91541   0.08729   0.00000  Uiso   1.00
H532   H     0.04252   0.93635   0.12862   0.00000  Uiso   1.00
C533   C     0.50055   0.91270   0.24906   0.00000  Uiso   1.00
C534   C     0.48023   0.82768   0.48845   0.00000  Uiso   1.00
C535   C     0.49007   0.84211   0.43656   0.00000  Uiso   1.00
C536   C     0.51557   0.83666   0.01497   0.00000  Uiso   1.00
C537   C     0.56199   0.85412   0.48765   0.00000  Uiso   1.00
C538   C     0.56944   0.86956   0.43783   0.00000  Uiso   1.00
C539   C     0.53255   0.86624   0.41443   0.00000  Uiso   1.00
C540   C     0.50514   0.83160   0.06858   0.00000  Uiso   1.00
C541   C     0.58880   0.84909   0.06460   0.00000  Uiso   1.00
C542   C     0.45750   0.83192   0.40763   0.00000  Uiso   1.00
C543   C     0.54505   0.97943   0.24654   0.00000  Uiso   1.00
C544   C     0.47360   0.83439   0.35023   0.00000  Uiso   1.00
C545   C     0.54311   0.68878   0.24905   0.00000  Uiso   1.00
C546   C     0.50064   0.70956   0.24788   0.00000  Uiso   1.00
C547   C     0.45919   0.68768   0.24508   0.00000  Uiso   1.00
C548   C     0.45973   0.97851   0.24503   0.00000  Uiso   1.00
C549   C     0.50198   0.95742   0.24692   0.00000  Uiso   1.00
C550   C     0.63315   0.85996   0.28085   0.00000  Uiso   1.00
C551   C     0.34932   0.85977   0.28118   0.00000  Uiso   1.00
C552   C     0.36698   0.80701   0.21865   0.00000  Uiso   1.00
C553   C     0.65063   0.80697   0.21873   0.00000  Uiso   1.00
C554   C     0.50005   0.75406   0.24948   0.00000  Uiso   1.00
C555   C     0.52627   0.83396   0.15004   0.00000  Uiso   1.00
C556   C     0.59891   0.85868   0.01210   0.00000  Uiso   1.00
C557   C     0.54117   0.83715   0.09338   0.00000  Uiso   1.00
C558   C     0.41184   0.81350   0.43298   0.00000  Uiso   1.00
C559   C     0.40145   0.80009   0.48387   0.00000  Uiso   1.00
C560   C     0.43634   0.80392   0.01042   0.00000  Uiso   1.00
Cu561  Cu    0.45311   0.83333   0.25000   0.00000  Uiso   1.00
Cu562  Cu    0.54689   0.83334   0.25000   0.00000  Uiso   1.00
H563   H     0.61707   0.85369   0.08336   0.00000  Uiso   1.00
H564   H     0.57496   0.70556   0.25241   0.00000  Uiso   1.00
H565   H     0.42615   0.70331   0.24362   0.00000  Uiso   1.00
H566   H     0.42680   0.96222   0.24394   0.00000  Uiso   1.00
H567   H     0.60764   0.88156   0.30512   0.00000  Uiso   1.00
H568   H     0.39277   0.78592   0.19360   0.00000  Uiso   1.00
H569   H     0.63892   0.78586   0.19371   0.00000  Uiso   1.00
H570   H     0.60289   0.88608   0.41774   0.00000  Uiso   1.00
H571   H     0.46800   0.82655   0.09257   0.00000  Uiso   1.00
H572   H     0.53783   0.88297   0.37865   0.00000  Uiso   1.00
N573   N     0.38265   0.83332   0.24998   0.00000  Uiso   1.00
N574   N     0.61735   0.83335   0.24999   0.00000  Uiso   1.00
O575   O     0.46042   0.89345   0.25000   0.00000  Uiso   1.00
O576   O     0.53961   0.89346   0.25000   0.00000  Uiso   1.00
O577   O     0.44108   0.83332   0.32549   0.00000  Uiso   1.00
O578   O     0.52027   0.83333   0.32549   0.00000  Uiso   1.00
O579   O     0.46039   0.77321   0.24999   0.00000  Uiso   1.00
O580   O     0.53958   0.77322   0.24999   0.00000  Uiso   1.00
O581   O     0.47973   0.83334   0.17451   0.00000  Uiso   1.00
O582   O     0.55892   0.83335   0.17451   0.00000  Uiso   1.00
F583   F     0.36363   0.88618   0.31280   0.00000  Uiso   1.00
F584   F     0.64407   0.87381   0.48577   0.00000  Uiso   1.00
F585   F     0.37850   0.80526   0.40740   0.00000  Uiso   1.00
O586   O     0.42628   0.78370   0.05750   0.00000  Uiso   1.00
C587   C     0.44802   0.74435   0.04911   0.00000  Uiso   1.00
H588   H     0.48854   0.74673   0.03006   0.00000  Uiso   1.00
H589   H     0.43125   0.72543   0.02433   0.00000  Uiso   1.00
C590   C     0.43890   0.72299   0.10165   0.00000  Uiso   1.00
H591   H     0.45605   0.74138   0.12643   0.00000  Uiso   1.00
H592   H     0.39862   0.72104   0.12156   0.00000  Uiso   1.00
C593   C     0.46040   0.67971   0.09535   0.00000  Uiso   1.00
H594   H     0.44360   0.99397   0.07094   0.00000  Uiso   1.00
H595   H     0.45254   0.99832   0.13412   0.00000  Uiso   1.00
H596   H     0.50093   0.68100   0.07701   0.00000  Uiso   1.00
F597   F     0.35842   0.78001   0.00650   0.00000  Uiso   1.00
O598   O     0.58673   0.95930   0.25022   0.00000  Uiso   1.00
C599   C     0.62747   0.96647   0.20542   0.00000  Uiso   1.00
H600   H     0.66140   0.96412   0.21739   0.00000  Uiso   1.00
H601   H     0.62811   0.99778   0.18848   0.00000  Uiso   1.00
C602   C     0.62966   0.93375   0.16380   0.00000  Uiso   1.00
H603   H     0.63075   0.90268   0.18041   0.00000  Uiso   1.00
H604   H     0.59624   0.93580   0.15088   0.00000  Uiso   1.00
C605   C     0.34191   0.93937   0.11681   0.00000  Uiso   1.00
H606   H     0.34157   0.97010   0.09902   0.00000  Uiso   1.00
H607   H     0.34235   0.91541   0.08729   0.00000  Uiso   1.00
H608   H     0.37585   0.93635   0.12862   0.00000  Uiso   1.00
C609   C     0.83388   0.91270   0.24906   0.00000  Uiso   1.00
C610   C     0.81356   0.82768   0.48845   0.00000  Uiso   1.00
C611   C     0.82340   0.84211   0.43656   0.00000  Uiso   1.00
C612   C     0.84890   0.83666   0.01497   0.00000  Uiso   1.00
C613   C     0.89532   0.85412   0.48765   0.00000  Uiso   1.00
C614   C     0.90277   0.86956   0.43783   0.00000  Uiso   1.00
C615   C     0.86589   0.86624   0.41443   0.00000  Uiso   1.00
C616   C     0.83848   0.83160   0.06858   0.00000  Uiso   1.00
C617   C     0.92213   0.84909   0.06460   0.00000  Uiso   1.00
C618   C     0.79083   0.83192   0.40763   0.00000  Uiso   1.00
C619   C     0.87838   0.97943   0.24654   0.00000  Uiso   1.00
C620   C     0.80693   0.83439   0.35023   0.00000  Uiso   1.00
C621   C     0.87645   0.68878   0.24905   0.00000  Uiso   1.00
C622   C     0.83397   0.70956   0.24788   0.00000  Uiso   1.00
C623   C     0.79253   0.68768   0.24508   0.00000  Uiso   1.00
C624   C     0.79306   0.97851   0.24503   0.00000  Uiso   1.00
C625   C     0.83531   0.95742   0.24692   0.00000  Uiso   1.00
C626   C     0.96649   0.85996   0.28085   0.00000  Uiso   1.00
C627   C     0.68266   0.85977   0.28118   0.00000  Uiso   1.00
C628   C     0.70031   0.80701   0.21865   0.00000  Uiso   1.00
C629   C     0.98397   0.80697   0.21873   0.00000  Uiso   1.00
C630   C     0.83339   0.75406   0.24948   0.00000  Uiso   1.00
C631   C     0.85960   0.83396   0.15004   0.00000  Uiso   1.00
C632   C     0.93225   0.85868   0.01210   0.00000  Uiso   1.00
C633   C     0.87451   0.83715   0.09338   0.00000  Uiso   1.00
C634   C     0.74517   0.81350   0.43298   0.00000  Uiso   1.00
C635   C     0.73478   0.80009   0.48387   0.00000  Uiso   1.00
C636   C     0.76967   0.80392   0.01042   0.00000  Uiso   1.00
Cu637  Cu    0.78645   0.83333   0.25000   0.00000  Uiso   1.00
Cu638  Cu    0.88022   0.83334   0.25000   0.00000  Uiso   1.00
H639   H     0.95040   0.85369   0.08336   0.00000  Uiso   1.00
H640   H     0.90829   0.70556   0.25241   0.00000  Uiso   1.00
H641   H     0.75949   0.70331   0.24362   0.00000  Uiso   1.00
H642   H     0.76013   0.96222   0.24394   0.00000  Uiso   1.00
H643   H     0.94097   0.88156   0.30512   0.00000  Uiso   1.00
H644   H     0.72610   0.78592   0.19360   0.00000  Uiso   1.00
H645   H     0.97226   0.78586   0.19371   0.00000  Uiso   1.00
H646   H     0.93622   0.88608   0.41774   0.00000  Uiso   1.00
H647   H     0.80133   0.82655   0.09257   0.00000  Uiso   1.00
H648   H     0.87117   0.88297   0.37865   0.00000  Uiso   1.00
N649   N     0.71598   0.83332   0.24998   0.00000  Uiso   1.00
N650   N     0.95069   0.83335   0.24999   0.00000  Uiso   1.00
O651   O     0.79375   0.89345   0.25000   0.00000  Uiso   1.00
O652   O     0.87294   0.89346   0.25000   0.00000  Uiso   1.00
O653   O     0.77441   0.83332   0.32549   0.00000  Uiso   1.00
O654   O     0.85360   0.83333   0.32549   0.00000  Uiso   1.00
O655   O     0.79373   0.77321   0.24999   0.00000  Uiso   1.00
O656   O     0.87292   0.77322   0.24999   0.00000  Uiso   1.00
O657   O     0.81306   0.83334   0.17451   0.00000  Uiso   1.00
O658   O     0.89225   0.83335   0.17451   0.00000  Uiso   1.00
F659   F     0.69697   0.88618   0.31280   0.00000  Uiso   1.00
F660   F     0.97741   0.87381   0.48577   0.00000  Uiso   1.00
F661   F     0.71183   0.80526   0.40740   0.00000  Uiso   1.00
O662   O     0.75961   0.78370   0.05750   0.00000  Uiso   1.00
C663   C     0.78135   0.74435   0.04911   0.00000  Uiso   1.00
H664   H     0.82187   0.74673   0.03006   0.00000  Uiso   1.00
H665   H     0.76459   0.72543   0.02433   0.00000  Uiso   1.00
C666   C     0.77223   0.72299   0.10165   0.00000  Uiso   1.00
H667   H     0.78938   0.74138   0.12643   0.00000  Uiso   1.00
H668   H     0.73195   0.72104   0.12156   0.00000  Uiso   1.00
C669   C     0.79374   0.67971   0.09535   0.00000  Uiso   1.00
H670   H     0.77694   0.99397   0.07094   0.00000  Uiso   1.00
H671   H     0.78587   0.99832   0.13412   0.00000  Uiso   1.00
H672   H     0.83426   0.68100   0.07701   0.00000  Uiso   1.00
F673   F     0.69175   0.78001   0.00650   0.00000  Uiso   1.00
O674   O     0.92006   0.95930   0.25022   0.00000  Uiso   1.00
C675   C     0.96081   0.96647   0.20542   0.00000  Uiso   1.00
H676   H     0.99473   0.96412   0.21739   0.00000  Uiso   1.00
H677   H     0.96145   0.99778   0.18848   0.00000  Uiso   1.00
C678   C     0.96300   0.93375   0.16380   0.00000  Uiso   1.00
H679   H     0.96409   0.90268   0.18041   0.00000  Uiso   1.00
H680   H     0.92957   0.93580   0.15088   0.00000  Uiso   1.00
C681   C     0.67524   0.93937   0.11681   0.00000  Uiso   1.00
H682   H     0.67491   0.97010   0.09902   0.00000  Uiso   1.00
H683   H     0.67568   0.91541   0.08729   0.00000  Uiso   1.00
H684   H     0.70918   0.93635   0.12862   0.00000  Uiso   1.00
C685   C     0.16722   0.24603   0.74906   0.00000  Uiso   1.00
C686   C     0.14690   0.16101   0.98845   0.00000  Uiso   1.00
C687   C     0.15674   0.17545   0.93656   0.00000  Uiso   1.00
C688   C     0.18224   0.16999   0.51497   0.00000  Uiso   1.00
C689   C     0.22865   0.18745   0.98765   0.00000  Uiso   1.00
C690   C     0.23610   0.20289   0.93783   0.00000  Uiso   1.00
C691   C     0.19922   0.19957   0.91443   0.00000  Uiso   1.00
C692   C     0.17181   0.16494   0.56858   0.00000  Uiso   1.00
C693   C     0.25546   0.18243   0.56460   0.00000  Uiso   1.00
C694   C     0.12417   0.16525   0.90763   0.00000  Uiso   1.00
C695   C     0.21171   0.31276   0.74654   0.00000  Uiso   1.00
C696   C     0.14026   0.16772   0.85023   0.00000  Uiso   1.00
C697   C     0.20978   0.02212   0.74905   0.00000  Uiso   1.00
C698   C     0.16730   0.04289   0.74788   0.00000  Uiso   1.00
C699   C     0.12586   0.02101   0.74508   0.00000  Uiso   1.00
C700   C     0.12639   0.31184   0.74503   0.00000  Uiso   1.00
C701   C     0.16865   0.29075   0.74692   0.00000  Uiso   1.00
C702   C     0.29982   0.19329   0.78085   0.00000  Uiso   1.00
C703   C     0.01599   0.19310   0.78118   0.00000  Uiso   1.00
C704   C     0.03364   0.14034   0.71865   0.00000  Uiso   1.00
C705   C     0.31730   0.14030   0.71873   0.00000  Uiso   1.00
C706   C     0.16672   0.08739   0.74948   0.00000  Uiso   1.00
C707   C     0.19294   0.16730   0.65004   0.00000  Uiso   1.00
C708   C     0.26558   0.19201   0.51210   0.00000  Uiso   1.00
C709   C     0.20784   0.17048   0.59338   0.00000  Uiso   1.00
C710   C     0.07851   0.14683   0.93298   0.00000  Uiso   1.00
C711   C     0.06812   0.13342   0.98387   0.00000  Uiso   1.00
C712   C     0.10300   0.13725   0.51042   0.00000  Uiso   1.00
Cu713  Cu    0.11978   0.16666   0.75000   0.00000  Uiso   1.00
Cu714  Cu    0.21355   0.16667   0.75000   0.00000  Uiso   1.00
H715   H     0.28374   0.18702   0.58336   0.00000  Uiso   1.00
H716   H     0.24162   0.03889   0.75241   0.00000  Uiso   1.00
H717   H     0.09282   0.03665   0.74362   0.00000  Uiso   1.00
H718   H     0.09346   0.29556   0.74394   0.00000  Uiso   1.00
H719   H     0.27430   0.21489   0.80512   0.00000  Uiso   1.00
H720   H     0.05943   0.11926   0.69360   0.00000  Uiso   1.00
H721   H     0.30559   0.11920   0.69371   0.00000  Uiso   1.00
H722   H     0.26956   0.21942   0.91774   0.00000  Uiso   1.00
H723   H     0.13466   0.15988   0.59257   0.00000  Uiso   1.00
H724   H     0.20450   0.21630   0.87865   0.00000  Uiso   1.00
N725   N     0.04931   0.16666   0.74998   0.00000  Uiso   1.00
N726   N     0.28402   0.16669   0.74999   0.00000  Uiso   1.00
O727   O     0.12708   0.22678   0.75000   0.00000  Uiso   1.00
O728   O     0.20627   0.22679   0.75000   0.00000  Uiso   1.00
O729   O     0.10775   0.16665   0.82549   0.00000  Uiso   1.00
O730   O     0.18694   0.16666   0.82549   0.00000  Uiso   1.00
O731   O     0.12706   0.10654   0.74999   0.00000  Uiso   1.00
O732   O     0.20625   0.10655   0.74999   0.00000  Uiso   1.00
O733   O     0.14640   0.16667   0.67451   0.00000  Uiso   1.00
O734   O     0.22559   0.16668   0.67451   0.00000  Uiso   1.00
F735   F     0.03030   0.21951   0.81280   0.00000  Uiso   1.00
F736   F     0.31074   0.20715   0.98577   0.00000  Uiso   1.00
F737   F     0.04516   0.13860   0.90740   0.00000  Uiso   1.00
O738   O     0.09295   0.11704   0.55750   0.00000  Uiso   1.00
C739   C     0.11468   0.07768   0.54911   0.00000  Uiso   1.00
H740   H     0.15520   0.08007   0.53006   0.00000  Uiso   1.00
H741   H     0.09792   0.05876   0.52433   0.00000  Uiso   1.00
C742   C     0.10557   0.05632   0.60165   0.00000  Uiso   1.00
H743   H     0.12272   0.07471   0.62643   0.00000  Uiso   1.00
H744   H     0.06529   0.05437   0.62156   0.00000  Uiso   1.00
C745   C     0.12707   0.01305   0.59535   0.00000  Uiso   1.00
H746   H     0.11027   0.32731   0.57094   0.00000  Uiso   1.00
H747   H     0.11921   0.33165   0.63412   0.00000  Uiso   1.00
H748   H     0.16759   0.01433   0.57701   0.00000  Uiso   1.00
F749   F     0.02509   0.11334   0.50650   0.00000  Uiso   1.00
O750   O     0.25340   0.29263   0.75022   0.00000  Uiso   1.00
C751   C     0.29414   0.29980   0.70542   0.00000  Uiso   1.00
H752   H     0.32806   0.29745   0.71739   0.00000  Uiso   1.00
H753   H     0.29478   0.33111   0.68848   0.00000  Uiso   1.00
C754   C     0.29633   0.26708   0.66380   0.00000  Uiso   1.00
H755   H     0.29742   0.23601   0.68041   0.00000  Uiso   1.00
H756   H     0.26290   0.26913   0.65088   0.00000  Uiso   1.00
C757   C     0.00858   0.27270   0.61681   0.00000  Uiso   1.00
H758   H     0.00824   0.30343   0.59902   0.00000  Uiso   1.00
H759   H     0.00901   0.24874   0.58729   0.00000  Uiso   1.00
H760   H     0.04252   0.26968   0.62862   0.00000  Uiso   1.00
C761   C     0.50055   0.24603   0.74906   0.00000  Uiso   1.00
C762   C     0.48023   0.16101   0.98845   0.00000  Uiso   1.00
C763   C     0.49007   0.17545   0.93656   0.00000  Uiso   1.00
C764   C     0.51557   0.16999   0.51497   0.00000  Uiso   1.00
C765   C     0.56199   0.18745   0.98765   0.00000  Uiso   1.00
C766   C     0.56944   0.20289   0.93783   0.00000  Uiso   1.00
C767   C     0.53255   0.19957   0.91443   0.00000  Uiso   1.00
C768   C     0.50514   0.16494   0.56858   0.00000  Uiso   1.00
C769   C     0.58880   0.18243   0.56460   0.00000  Uiso   1.00
C770   C     0.45750   0.16525   0.90763   0.00000  Uiso   1.00
C771   C     0.54505   0.31276   0.74654   0.00000  Uiso   1.00
C772   C     0.47360   0.16772   0.85023   0.00000  Uiso   1.00
C773   C     0.54311   0.02212   0.74905   0.00000  Uiso   1.00
C774   C     0.50064   0.04289   0.74788   0.00000  Uiso   1.00
C775   C     0.45919   0.02101   0.74508   0.00000  Uiso   1.00
C776   C     0.45973   0.31184   0.74503   0.00000  Uiso   1.00
C777   C     0.50198   0.29075   0.74692   0.00000  Uiso   1.00
C778   C     0.63315   0.19329   0.78085   0.00000  Uiso   1.00
C779   C     0.34932   0.19310   0.78118   0.00000  Uiso   1.00
C780   C     0.36698   0.14034   0.71865   0.00000  Uiso   1.00
C781   C     0.65063   0.14030   0.71873   0.00000  Uiso   1.00
C782   C     0.50005   0.08739   0.74948   0.00000  Uiso   1.00
C783   C     0.52627   0.16730   0.65004   0.00000  Uiso   1.00
C784   C     0.59891   0.19201   0.51210   0.00000  Uiso   1.00
C785   C     0.54117   0.17048   0.59338   0.00000  Uiso   1.00
C786   C     0.41184   0.14683   0.93298   0.00000  Uiso   1.00
C787   C     0.40145   0.13342   0.98387   0.00000  Uiso   1.00
C788   C     0.43634   0.13725   0.51042   0.00000  Uiso   1.00
Cu789  Cu    0.45311   0.16666   0.75000   0.00000  Uiso   1.00
Cu790  Cu    0.54689   0.16667   0.75000   0.00000  Uiso   1.00
H791   H     0.61707   0.18702   0.58336   0.00000  Uiso   1.00
H792   H     0.57496   0.03889   0.75241   0.00000  Uiso   1.00
H793   H     0.42615   0.03665   0.74362   0.00000  Uiso   1.00
H794   H     0.42680   0.29556   0.74394   0.00000  Uiso   1.00
H795   H     0.60764   0.21489   0.80512   0.00000  Uiso   1.00
H796   H     0.39277   0.11926   0.69360   0.00000  Uiso   1.00
H797   H     0.63892   0.11920   0.69371   0.00000  Uiso   1.00
H798   H     0.60289   0.21942   0.91774   0.00000  Uiso   1.00
H799   H     0.46800   0.15988   0.59257   0.00000  Uiso   1.00
H800   H     0.53783   0.21630   0.87865   0.00000  Uiso   1.00
N801   N     0.38265   0.16666   0.74998   0.00000  Uiso   1.00
N802   N     0.61735   0.16669   0.74999   0.00000  Uiso   1.00
O803   O     0.46042   0.22678   0.75000   0.00000  Uiso   1.00
O804   O     0.53961   0.22679   0.75000   0.00000  Uiso   1.00
O805   O     0.44108   0.16665   0.82549   0.00000  Uiso   1.00
O806   O     0.52027   0.16666   0.82549   0.00000  Uiso   1.00
O807   O     0.46039   0.10654   0.74999   0.00000  Uiso   1.00
O808   O     0.53958   0.10655   0.74999   0.00000  Uiso   1.00
O809   O     0.47973   0.16667   0.67451   0.00000  Uiso   1.00
O810   O     0.55892   0.16668   0.67451   0.00000  Uiso   1.00
F811   F     0.36363   0.21951   0.81280   0.00000  Uiso   1.00
F812   F     0.64407   0.20715   0.98577   0.00000  Uiso   1.00
F813   F     0.37850   0.13860   0.90740   0.00000  Uiso   1.00
O814   O     0.42628   0.11704   0.55750   0.00000  Uiso   1.00
C815   C     0.44802   0.07768   0.54911   0.00000  Uiso   1.00
H816   H     0.48854   0.08007   0.53006   0.00000  Uiso   1.00
H817   H     0.43125   0.05876   0.52433   0.00000  Uiso   1.00
C818   C     0.43890   0.05632   0.60165   0.00000  Uiso   1.00
H819   H     0.45605   0.07471   0.62643   0.00000  Uiso   1.00
H820   H     0.39862   0.05437   0.62156   0.00000  Uiso   1.00
C821   C     0.46040   0.01305   0.59535   0.00000  Uiso   1.00
H822   H     0.44360   0.32731   0.57094   0.00000  Uiso   1.00
H823   H     0.45254   0.33165   0.63412   0.00000  Uiso   1.00
H824   H     0.50093   0.01433   0.57701   0.00000  Uiso   1.00
F825   F     0.35842   0.11334   0.50650   0.00000  Uiso   1.00
O826   O     0.58673   0.29263   0.75022   0.00000  Uiso   1.00
C827   C     0.62747   0.29980   0.70542   0.00000  Uiso   1.00
H828   H     0.66140   0.29745   0.71739   0.00000  Uiso   1.00
H829   H     0.62811   0.33111   0.68848   0.00000  Uiso   1.00
C830   C     0.62966   0.26708   0.66380   0.00000  Uiso   1.00
H831   H     0.63075   0.23601   0.68041   0.00000  Uiso   1.00
H832   H     0.59624   0.26913   0.65088   0.00000  Uiso   1.00
C833   C     0.34191   0.27270   0.61681   0.00000  Uiso   1.00
H834   H     0.34157   0.30343   0.59902   0.00000  Uiso   1.00
H835   H     0.34235   0.24874   0.58729   0.00000  Uiso   1.00
H836   H     0.37585   0.26968   0.62862   0.00000  Uiso   1.00
C837   C     0.83388   0.24603   0.74906   0.00000  Uiso   1.00
C838   C     0.81356   0.16101   0.98845   0.00000  Uiso   1.00
C839   C     0.82340   0.17545   0.93656   0.00000  Uiso   1.00
C840   C     0.84890   0.16999   0.51497   0.00000  Uiso   1.00
C841   C     0.89532   0.18745   0.98765   0.00000  Uiso   1.00
C842   C     0.90277   0.20289   0.93783   0.00000  Uiso   1.00
C843   C     0.86589   0.19957   0.91443   0.00000  Uiso   1.00
C844   C     0.83848   0.16494   0.56858   0.00000  Uiso   1.00
C845   C     0.92213   0.18243   0.56460   0.00000  Uiso   1.00
C846   C     0.79083   0.16525   0.90763   0.00000  Uiso   1.00
C847   C     0.87838   0.31276   0.74654   0.00000  Uiso   1.00
C848   C     0.80693   0.16772   0.85023   0.00000  Uiso   1.00
C849   C     0.87645   0.02212   0.74905   0.00000  Uiso   1.00
C850   C     0.83397   0.04289   0.74788   0.00000  Uiso   1.00
C851   C     0.79253   0.02101   0.74508   0.00000  Uiso   1.00
C852   C     0.79306   0.31184   0.74503   0.00000  Uiso   1.00
C853   C     0.83531   0.29075   0.74692   0.00000  Uiso   1.00
C854   C     0.96649   0.19329   0.78085   0.00000  Uiso   1.00
C855   C     0.68266   0.19310   0.78118   0.00000  Uiso   1.00
C856   C     0.70031   0.14034   0.71865   0.00000  Uiso   1.00
C857   C     0.98397   0.14030   0.71873   0.00000  Uiso   1.00
C858   C     0.83339   0.08739   0.74948   0.00000  Uiso   1.00
C859   C     0.85960   0.16730   0.65004   0.00000  Uiso   1.00
C860   C     0.93225   0.19201   0.51210   0.00000  Uiso   1.00
C861   C     0.87451   0.17048   0.59338   0.00000  Uiso   1.00
C862   C     0.74517   0.14683   0.93298   0.00000  Uiso   1.00
C863   C     0.73478   0.13342   0.98387   0.00000  Uiso   1.00
C864   C     0.76967   0.13725   0.51042   0.00000  Uiso   1.00
Cu865  Cu    0.78645   0.16666   0.75000   0.00000  Uiso   1.00
Cu866  Cu    0.88022   0.16667   0.75000   0.00000  Uiso   1.00
H867   H     0.95040   0.18702   0.58336   0.00000  Uiso   1.00
H868   H     0.90829   0.03889   0.75241   0.00000  Uiso   1.00
H869   H     0.75949   0.03665   0.74362   0.00000  Uiso   1.00
H870   H     0.76013   0.29556   0.74394   0.00000  Uiso   1.00
H871   H     0.94097   0.21489   0.80512   0.00000  Uiso   1.00
H872   H     0.72610   0.11926   0.69360   0.00000  Uiso   1.00
H873   H     0.97226   0.11920   0.69371   0.00000  Uiso   1.00
H874   H     0.93622   0.21942   0.91774   0.00000  Uiso   1.00
H875   H     0.80133   0.15988   0.59257   0.00000  Uiso   1.00
H876   H     0.87117   0.21630   0.87865   0.00000  Uiso   1.00
N877   N     0.71598   0.16666   0.74998   0.00000  Uiso   1.00
N878   N     0.95069   0.16669   0.74999   0.00000  Uiso   1.00
O879   O     0.79375   0.22678   0.75000   0.00000  Uiso   1.00
O880   O     0.87294   0.22679   0.75000   0.00000  Uiso   1.00
O881   O     0.77441   0.16665   0.82549   0.00000  Uiso   1.00
O882   O     0.85360   0.16666   0.82549   0.00000  Uiso   1.00
O883   O     0.79373   0.10654   0.74999   0.00000  Uiso   1.00
O884   O     0.87292   0.10655   0.74999   0.00000  Uiso   1.00
O885   O     0.81306   0.16667   0.67451   0.00000  Uiso   1.00
O886   O     0.89225   0.16668   0.67451   0.00000  Uiso   1.00
F887   F     0.69697   0.21951   0.81280   0.00000  Uiso   1.00
F888   F     0.97741   0.20715   0.98577   0.00000  Uiso   1.00
F889   F     0.71183   0.13860   0.90740   0.00000  Uiso   1.00
O890   O     0.75961   0.11704   0.55750   0.00000  Uiso   1.00
C891   C     0.78135   0.07768   0.54911   0.00000  Uiso   1.00
H892   H     0.82187   0.08007   0.53006   0.00000  Uiso   1.00
H893   H     0.76459   0.05876   0.52433   0.00000  Uiso   1.00
C894   C     0.77223   0.05632   0.60165   0.00000  Uiso   1.00
H895   H     0.78938   0.07471   0.62643   0.00000  Uiso   1.00
H896   H     0.73195   0.05437   0.62156   0.00000  Uiso   1.00
C897   C     0.79374   0.01305   0.59535   0.00000  Uiso   1.00
H898   H     0.77694   0.32731   0.57094   0.00000  Uiso   1.00
H899   H     0.78587   0.33165   0.63412   0.00000  Uiso   1.00
H900   H     0.83426   0.01433   0.57701   0.00000  Uiso   1.00
F901   F     0.69175   0.11334   0.50650   0.00000  Uiso   1.00
O902   O     0.92006   0.29263   0.75022   0.00000  Uiso   1.00
C903   C     0.96081   0.29980   0.70542   0.00000  Uiso   1.00
H904   H     0.99473   0.29745   0.71739   0.00000  Uiso   1.00
H905   H     0.96145   0.33111   0.68848   0.00000  Uiso   1.00
C906   C     0.96300   0.26708   0.66380   0.00000  Uiso   1.00
H907   H     0.96409   0.23601   0.68041   0.00000  Uiso   1.00
H908   H     0.92957   0.26913   0.65088   0.00000  Uiso   1.00
C909   C     0.67524   0.27270   0.61681   0.00000  Uiso   1.00
H910   H     0.67491   0.30343   0.59902   0.00000  Uiso   1.00
H911   H     0.67568   0.24874   0.58729   0.00000  Uiso   1.00
H912   H     0.70918   0.26968   0.62862   0.00000  Uiso   1.00
C913   C     0.16722   0.57937   0.74906   0.00000  Uiso   1.00
C914   C     0.14690   0.49435   0.98845   0.00000  Uiso   1.00
C915   C     0.15674   0.50878   0.93656   0.00000  Uiso   1.00
C916   C     0.18224   0.50332   0.51497   0.00000  Uiso   1.00
C917   C     0.22865   0.52079   0.98765   0.00000  Uiso   1.00
C918   C     0.23610   0.53623   0.93783   0.00000  Uiso   1.00
C919   C     0.19922   0.53291   0.91443   0.00000  Uiso   1.00
C920   C     0.17181   0.49827   0.56858   0.00000  Uiso   1.00
C921   C     0.25546   0.51576   0.56460   0.00000  Uiso   1.00
C922   C     0.12417   0.49858   0.90763   0.00000  Uiso   1.00
C923   C     0.21171   0.64609   0.74654   0.00000  Uiso   1.00
C924   C     0.14026   0.50106   0.85023   0.00000  Uiso   1.00
C925   C     0.20978   0.35545   0.74905   0.00000  Uiso   1.00
C926   C     0.16730   0.37622   0.74788   0.00000  Uiso   1.00
C927   C     0.12586   0.35435   0.74508   0.00000  Uiso   1.00
C928   C     0.12639   0.64518   0.74503   0.00000  Uiso   1.00
C929   C     0.16865   0.62408   0.74692   0.00000  Uiso   1.00
C930   C     0.29982   0.52662   0.78085   0.00000  Uiso   1.00
C931   C     0.01599   0.52644   0.78118   0.00000  Uiso   1.00
C932   C     0.03364   0.47367   0.71865   0.00000  Uiso   1.00
C933   C     0.31730   0.47363   0.71873   0.00000  Uiso   1.00
C934   C     0.16672   0.42072   0.74948   0.00000  Uiso   1.00
C935   C     0.19294   0.50063   0.65004   0.00000  Uiso   1.00
C936   C     0.26558   0.52535   0.51210   0.00000  Uiso   1.00
C937   C     0.20784   0.50381   0.59338   0.00000  Uiso   1.00
C938   C     0.07851   0.48016   0.93298   0.00000  Uiso   1.00
C939   C     0.06812   0.46676   0.98387   0.00000  Uiso   1.00
C940   C     0.10300   0.47058   0.51042   0.00000  Uiso   1.00
Cu941  Cu    0.11978   0.49999   0.75000   0.00000  Uiso   1.00
Cu942  Cu    0.21355   0.50001   0.75000   0.00000  Uiso   1.00
H943   H     0.28374   0.52036   0.58336   0.00000  Uiso   1.00
H944   H     0.24162   0.37222   0.75241   0.00000  Uiso   1.00
H945   H     0.09282   0.36998   0.74362   0.00000  Uiso   1.00
H946   H     0.09346   0.62889   0.74394   0.00000  Uiso   1.00
H947   H     0.27430   0.54822   0.80512   0.00000  Uiso   1.00
H948   H     0.05943   0.45259   0.69360   0.00000  Uiso   1.00
H949   H     0.30559   0.45253   0.69371   0.00000  Uiso   1.00
H950   H     0.26956   0.55275   0.91774   0.00000  Uiso   1.00
H951   H     0.13466   0.49321   0.59257   0.00000  Uiso   1.00
H952   H     0.20450   0.54964   0.87865   0.00000  Uiso   1.00
N953   N     0.04931   0.49999   0.74998   0.00000  Uiso   1.00
N954   N     0.28402   0.50002   0.74999   0.00000  Uiso   1.00
O955   O     0.12708   0.56011   0.75000   0.00000  Uiso   1.00
O956   O     0.20627   0.56012   0.75000   0.00000  Uiso   1.00
O957   O     0.10775   0.49998   0.82549   0.00000  Uiso   1.00
O958   O     0.18694   0.49999   0.82549   0.00000  Uiso   1.00
O959   O     0.12706   0.43988   0.74999   0.00000  Uiso   1.00
O960   O     0.20625   0.43989   0.74999   0.00000  Uiso   1.00
O961   O     0.14640   0.50001   0.67451   0.00000  Uiso   1.00
O962   O     0.22559   0.50002   0.67451   0.00000  Uiso   1.00
F963   F     0.03030   0.55285   0.81280   0.00000  Uiso   1.00
F964   F     0.31074   0.54048   0.98577   0.00000  Uiso   1.00
F965   F     0.04516   0.47193   0.90740   0.00000  Uiso   1.00
O966   O     0.09295   0.45037   0.55750   0.00000  Uiso   1.00
C967   C     0.11468   0.41102   0.54911   0.00000  Uiso   1.00
H968   H     0.15520   0.41340   0.53006   0.00000  Uiso   1.00
H969   H     0.09792   0.39209   0.52433   0.00000  Uiso   1.00
C970   C     0.10557   0.38966   0.60165   0.00000  Uiso   1.00
H971   H     0.12272   0.40804   0.62643   0.00000  Uiso   1.00
H972   H     0.06529   0.38770   0.62156   0.00000  Uiso   1.00
C973   C     0.12707   0.34638   0.59535   0.00000  Uiso   1.00
H974   H     0.11027   0.66064   0.57094   0.00000  Uiso   1.00
H975   H     0.11921   0.66498   0.63412   0.00000  Uiso   1.00
H976   H     0.16759   0.34766   0.57701   0.00000  Uiso   1.00
F977   F     0.02509   0.44667   0.50650   0.00000  Uiso   1.00
O978   O     0.25340   0.62597   0.75022   0.00000  Uiso   1.00
C979   C     0.29414   0.63314   0.70542   0.00000  Uiso   1.00
H980   H     0.32806   0.63079   0.71739   0.00000  Uiso   1.00
H981   H     0.29478   0.66444   0.68848   0.00000  Uiso   1.00
C982   C     0.29633   0.60042   0.66380   0.00000  Uiso   1.00
H983   H     0.29742   0.56935   0.68041   0.00000  Uiso   1.00
H984   H     0.26290   0.60247   0.65088   0.00000  Uiso   1.00
C985   C     0.00858   0.60603   0.61681   0.00000  Uiso   1.00
H986   H     0.00824   0.63677   0.59902   0.00000  Uiso   1.00
H987   H     0.00901   0.58207   0.58729   0.00000  Uiso   1.00
H988   H     0.04252   0.60301   0.62862   0.00000  Uiso   1.00
C989   C     0.50055   0.57937   0.74906   0.00000  Uiso   1.00
C990   C     0.48023   0.49435   0.98845   0.00000  Uiso   1.00
C991   C     0.49007   0.50878   0.93656   0.00000  Uiso   1.00
C992   C     0.51557   0.50332   0.51497   0.00000  Uiso   1.00
C993   C     0.56199   0.52079   0.98765   0.00000  Uiso   1.00
C994   C     0.56944   0.53623   0.93783   0.00000  Uiso   1.00
C995   C     0.53255   0.53291   0.91443   0.00000  Uiso   1.00
C996   C     0.50514   0.49827   0.56858   0.00000  Uiso   1.00
C997   C     0.58880   0.51576   0.56460   0.00000  Uiso   1.00
C998   C     0.45750   0.49858   0.90763   0.00000  Uiso   1.00
C999   C     0.54505   0.64609   0.74654   0.00000  Uiso   1.00
C1000  C     0.47360   0.50106   0.85023   0.00000  Uiso   1.00
C1001  C     0.54311   0.35545   0.74905   0.00000  Uiso   1.00
C1002  C     0.50064   0.37622   0.74788   0.00000  Uiso   1.00
C1003  C     0.45919   0.35435   0.74508   0.00000  Uiso   1.00
C1004  C     0.45973   0.64518   0.74503   0.00000  Uiso   1.00
C1005  C     0.50198   0.62408   0.74692   0.00000  Uiso   1.00
C1006  C     0.63315   0.52662   0.78085   0.00000  Uiso   1.00
C1007  C     0.34932   0.52644   0.78118   0.00000  Uiso   1.00
C1008  C     0.36698   0.47367   0.71865   0.00000  Uiso   1.00
C1009  C     0.65063   0.47363   0.71873   0.00000  Uiso   1.00
C1010  C     0.50005   0.42072   0.74948   0.00000  Uiso   1.00
C1011  C     0.52627   0.50063   0.65004   0.00000  Uiso   1.00
C1012  C     0.59891   0.52535   0.51210   0.00000  Uiso   1.00
C1013  C     0.54117   0.50381   0.59338   0.00000  Uiso   1.00
C1014  C     0.41184   0.48016   0.93298   0.00000  Uiso   1.00
C1015  C     0.40145   0.46676   0.98387   0.00000  Uiso   1.00
C1016  C     0.43634   0.47058   0.51042   0.00000  Uiso   1.00
Cu1017 Cu    0.45311   0.49999   0.75000   0.00000  Uiso   1.00
Cu1018 Cu    0.54689   0.50001   0.75000   0.00000  Uiso   1.00
H1019  H     0.61707   0.52036   0.58336   0.00000  Uiso   1.00
H1020  H     0.57496   0.37222   0.75241   0.00000  Uiso   1.00
H1021  H     0.42615   0.36998   0.74362   0.00000  Uiso   1.00
H1022  H     0.42680   0.62889   0.74394   0.00000  Uiso   1.00
H1023  H     0.60764   0.54822   0.80512   0.00000  Uiso   1.00
H1024  H     0.39277   0.45259   0.69360   0.00000  Uiso   1.00
H1025  H     0.63892   0.45253   0.69371   0.00000  Uiso   1.00
H1026  H     0.60289   0.55275   0.91774   0.00000  Uiso   1.00
H1027  H     0.46800   0.49321   0.59257   0.00000  Uiso   1.00
H1028  H     0.53783   0.54964   0.87865   0.00000  Uiso   1.00
N1029  N     0.38265   0.49999   0.74998   0.00000  Uiso   1.00
N1030  N     0.61735   0.50002   0.74999   0.00000  Uiso   1.00
O1031  O     0.46042   0.56011   0.75000   0.00000  Uiso   1.00
O1032  O     0.53961   0.56012   0.75000   0.00000  Uiso   1.00
O1033  O     0.44108   0.49998   0.82549   0.00000  Uiso   1.00
O1034  O     0.52027   0.49999   0.82549   0.00000  Uiso   1.00
O1035  O     0.46039   0.43988   0.74999   0.00000  Uiso   1.00
O1036  O     0.53958   0.43989   0.74999   0.00000  Uiso   1.00
O1037  O     0.47973   0.50001   0.67451   0.00000  Uiso   1.00
O1038  O     0.55892   0.50002   0.67451   0.00000  Uiso   1.00
F1039  F     0.36363   0.55285   0.81280   0.00000  Uiso   1.00
F1040  F     0.64407   0.54048   0.98577   0.00000  Uiso   1.00
F1041  F     0.37850   0.47193   0.90740   0.00000  Uiso   1.00
O1042  O     0.42628   0.45037   0.55750   0.00000  Uiso   1.00
C1043  C     0.44802   0.41102   0.54911   0.00000  Uiso   1.00
H1044  H     0.48854   0.41340   0.53006   0.00000  Uiso   1.00
H1045  H     0.43125   0.39209   0.52433   0.00000  Uiso   1.00
C1046  C     0.43890   0.38966   0.60165   0.00000  Uiso   1.00
H1047  H     0.45605   0.40804   0.62643   0.00000  Uiso   1.00
H1048  H     0.39862   0.38770   0.62156   0.00000  Uiso   1.00
C1049  C     0.46040   0.34638   0.59535   0.00000  Uiso   1.00
H1050  H     0.44360   0.66064   0.57094   0.00000  Uiso   1.00
H1051  H     0.45254   0.66498   0.63412   0.00000  Uiso   1.00
H1052  H     0.50093   0.34766   0.57701   0.00000  Uiso   1.00
F1053  F     0.35842   0.44667   0.50650   0.00000  Uiso   1.00
O1054  O     0.58673   0.62597   0.75022   0.00000  Uiso   1.00
C1055  C     0.62747   0.63314   0.70542   0.00000  Uiso   1.00
H1056  H     0.66140   0.63079   0.71739   0.00000  Uiso   1.00
H1057  H     0.62811   0.66444   0.68848   0.00000  Uiso   1.00
C1058  C     0.62966   0.60042   0.66380   0.00000  Uiso   1.00
H1059  H     0.63075   0.56935   0.68041   0.00000  Uiso   1.00
H1060  H     0.59624   0.60247   0.65088   0.00000  Uiso   1.00
C1061  C     0.34191   0.60603   0.61681   0.00000  Uiso   1.00
H1062  H     0.34157   0.63677   0.59902   0.00000  Uiso   1.00
H1063  H     0.34235   0.58207   0.58729   0.00000  Uiso   1.00
H1064  H     0.37585   0.60301   0.62862   0.00000  Uiso   1.00
C1065  C     0.83388   0.57937   0.74906   0.00000  Uiso   1.00
C1066  C     0.81356   0.49435   0.98845   0.00000  Uiso   1.00
C1067  C     0.82340   0.50878   0.93656   0.00000  Uiso   1.00
C1068  C     0.84890   0.50332   0.51497   0.00000  Uiso   1.00
C1069  C     0.89532   0.52079   0.98765   0.00000  Uiso   1.00
C1070  C     0.90277   0.53623   0.93783   0.00000  Uiso   1.00
C1071  C     0.86589   0.53291   0.91443   0.00000  Uiso   1.00
C1072  C     0.83848   0.49827   0.56858   0.00000  Uiso   1.00
C1073  C     0.92213   0.51576   0.56460   0.00000  Uiso   1.00
C1074  C     0.79083   0.49858   0.90763   0.00000  Uiso   1.00
C1075  C     0.87838   0.64609   0.74654   0.00000  Uiso   1.00
C1076  C     0.80693   0.50106   0.85023   0.00000  Uiso   1.00
C1077  C     0.87645   0.35545   0.74905   0.00000  Uiso   1.00
C1078  C     0.83397   0.37622   0.74788   0.00000  Uiso   1.00
C1079  C     0.79253   0.35435   0.74508   0.00000  Uiso   1.00
C1080  C     0.79306   0.64518   0.74503   0.00000  Uiso   1.00
C1081  C     0.83531   0.62408   0.74692   0.00000  Uiso   1.00
C1082  C     0.96649   0.52662   0.78085   0.00000  Uiso   1.00
C1083  C     0.68266   0.52644   0.78118   0.00000  Uiso   1.00
C1084  C     0.70031   0.47367   0.71865   0.00000  Uiso   1.00
C1085  C     0.98397   0.47363   0.71873   0.00000  Uiso   1.00
C1086  C     0.83339   0.42072   0.74948   0.00000  Uiso   1.00
C1087  C     0.85960   0.50063   0.65004   0.00000  Uiso   1.00
C1088  C     0.93225   0.52535   0.51210   0.00000  Uiso   1.00
C1089  C     0.87451   0.50381   0.59338   0.00000  Uiso   1.00
C1090  C     0.74517   0.48016   0.93298   0.00000  Uiso   1.00
C1091  C     0.73478   0.46676   0.98387   0.00000  Uiso   1.00
C1092  C     0.76967   0.47058   0.51042   0.00000  Uiso   1.00
Cu1093 Cu    0.78645   0.49999   0.75000   0.00000  Uiso   1.00
Cu1094 Cu    0.88022   0.50001   0.75000   0.00000  Uiso   1.00
H1095  H     0.95040   0.52036   0.58336   0.00000  Uiso   1.00
H1096  H     0.90829   0.37222   0.75241   0.00000  Uiso   1.00
H1097  H     0.75949   0.36998   0.74362   0.00000  Uiso   1.00
H1098  H     0.76013   0.62889   0.74394   0.00000  Uiso   1.00
H1099  H     0.94097   0.54822   0.80512   0.00000  Uiso   1.00
H1100  H     0.72610   0.45259   0.69360   0.00000  Uiso   1.00
H1101  H     0.97226   0.45253   0.69371   0.00000  Uiso   1.00
H1102  H     0.93622   0.55275   0.91774   0.00000  Uiso   1.00
H1103  H     0.80133   0.49321   0.59257   0.00000  Uiso   1.00
H1104  H     0.87117   0.54964   0.87865   0.00000  Uiso   1.00
N1105  N     0.71598   0.49999   0.74998   0.00000  Uiso   1.00
N1106  N     0.95069   0.50002   0.74999   0.00000  Uiso   1.00
O1107  O     0.79375   0.56011   0.75000   0.00000  Uiso   1.00
O1108  O     0.87294   0.56012   0.75000   0.00000  Uiso   1.00
O1109  O     0.77441   0.49998   0.82549   0.00000  Uiso   1.00
O1110  O     0.85360   0.49999   0.82549   0.00000  Uiso   1.00
O1111  O     0.79373   0.43988   0.74999   0.00000  Uiso   1.00
O1112  O     0.87292   0.43989   0.74999   0.00000  Uiso   1.00
O1113  O     0.81306   0.50001   0.67451   0.00000  Uiso   1.00
O1114  O     0.89225   0.50002   0.67451   0.00000  Uiso   1.00
F1115  F     0.69697   0.55285   0.81280   0.00000  Uiso   1.00
F1116  F     0.97741   0.54048   0.98577   0.00000  Uiso   1.00
F1117  F     0.71183   0.47193   0.90740   0.00000  Uiso   1.00
O1118  O     0.75961   0.45037   0.55750   0.00000  Uiso   1.00
C1119  C     0.78135   0.41102   0.54911   0.00000  Uiso   1.00
H1120  H     0.82187   0.41340   0.53006   0.00000  Uiso   1.00
H1121  H     0.76459   0.39209   0.52433   0.00000  Uiso   1.00
C1122  C     0.77223   0.38966   0.60165   0.00000  Uiso   1.00
H1123  H     0.78938   0.40804   0.62643   0.00000  Uiso   1.00
H1124  H     0.73195   0.38770   0.62156   0.00000  Uiso   1.00
C1125  C     0.79374   0.34638   0.59535   0.00000  Uiso   1.00
H1126  H     0.77694   0.66064   0.57094   0.00000  Uiso   1.00
H1127  H     0.78587   0.66498   0.63412   0.00000  Uiso   1.00
H1128  H     0.83426   0.34766   0.57701   0.00000  Uiso   1.00
F1129  F     0.69175   0.44667   0.50650   0.00000  Uiso   1.00
O1130  O     0.92006   0.62597   0.75022   0.00000  Uiso   1.00
C1131  C     0.96081   0.63314   0.70542   0.00000  Uiso   1.00
H1132  H     0.99473   0.63079   0.71739   0.00000  Uiso   1.00
H1133  H     0.96145   0.66444   0.68848   0.00000  Uiso   1.00
C1134  C     0.96300   0.60042   0.66380   0.00000  Uiso   1.00
H1135  H     0.96409   0.56935   0.68041   0.00000  Uiso   1.00
H1136  H     0.92957   0.60247   0.65088   0.00000  Uiso   1.00
C1137  C     0.67524   0.60603   0.61681   0.00000  Uiso   1.00
H1138  H     0.67491   0.63677   0.59902   0.00000  Uiso   1.00
H1139  H     0.67568   0.58207   0.58729   0.00000  Uiso   1.00
H1140  H     0.70918   0.60301   0.62862   0.00000  Uiso   1.00
C1141  C     0.16722   0.91270   0.74906   0.00000  Uiso   1.00
C1142  C     0.14690   0.82768   0.98845   0.00000  Uiso   1.00
C1143  C     0.15674   0.84211   0.93656   0.00000  Uiso   1.00
C1144  C     0.18224   0.83666   0.51497   0.00000  Uiso   1.00
C1145  C     0.22865   0.85412   0.98765   0.00000  Uiso   1.00
C1146  C     0.23610   0.86956   0.93783   0.00000  Uiso   1.00
C1147  C     0.19922   0.86624   0.91443   0.00000  Uiso   1.00
C1148  C     0.17181   0.83160   0.56858   0.00000  Uiso   1.00
C1149  C     0.25546   0.84909   0.56460   0.00000  Uiso   1.00
C1150  C     0.12417   0.83192   0.90763   0.00000  Uiso   1.00
C1151  C     0.21171   0.97943   0.74654   0.00000  Uiso   1.00
C1152  C     0.14026   0.83439   0.85023   0.00000  Uiso   1.00
C1153  C     0.20978   0.68878   0.74905   0.00000  Uiso   1.00
C1154  C     0.16730   0.70956   0.74788   0.00000  Uiso   1.00
C1155  C     0.12586   0.68768   0.74508   0.00000  Uiso   1.00
C1156  C     0.12639   0.97851   0.74503   0.00000  Uiso   1.00
C1157  C     0.16865   0.95742   0.74692   0.00000  Uiso   1.00
C1158  C     0.29982   0.85996   0.78085   0.00000  Uiso   1.00
C1159  C     0.01599   0.85977   0.78118   0.00000  Uiso   1.00
C1160  C     0.03364   0.80701   0.71865   0.00000  Uiso   1.00
C1161  C     0.31730   0.80697   0.71873   0.00000  Uiso   1.00
C1162  C     0.16672   0.75406   0.74948   0.00000  Uiso   1.00
C1163  C     0.19294   0.83396   0.65004   0.00000  Uiso   1.00
C1164  C     0.26558   0.85868   0.51210   0.00000  Uiso   1.00
C1165  C     0.20784   0.83715   0.59338   0.00000  Uiso   1.00
C1166  C     0.07851   0.81350   0.93298   0.00000  Uiso   1.00
C1167  C     0.06812   0.80009   0.98387   0.00000  Uiso   1.00
C1168  C     0.10300   0.80392   0.51042   0.00000  Uiso   1.00
Cu1169 Cu    0.11978   0.83333   0.75000   0.00000  Uiso   1.00
Cu1170 Cu    0.21355   0.83334   0.75000   0.00000  Uiso   1.00
H1171  H     0.28374   0.85369   0.58336   0.00000  Uiso   1.00
H1172  H     0.24162   0.70556   0.75241   0.00000  Uiso   1.00
H1173  H     0.09282   0.70331   0.74362   0.00000  Uiso   1.00
H1174  H     0.09346   0.96222   0.74394   0.00000  Uiso   1.00
H1175  H     0.27430   0.88156   0.80512   0.00000  Uiso   1.00
H1176  H     0.05943   0.78592   0.69360   0.00000  Uiso   1.00
H1177  H     0.30559   0.78586   0.69371   0.00000  Uiso   1.00
H1178  H     0.26956   0.88608   0.91774   0.00000  Uiso   1.00
H1179  H     0.13466   0.82655   0.59257   0.00000  Uiso   1.00
H1180  H     0.20450   0.88297   0.87865   0.00000  Uiso   1.00
N1181  N     0.04931   0.83332   0.74998   0.00000  Uiso   1.00
N1182  N     0.28402   0.83335   0.74999   0.00000  Uiso   1.00
O1183  O     0.12708   0.89345   0.75000   0.00000  Uiso   1.00
O1184  O     0.20627   0.89346   0.75000   0.00000  Uiso   1.00
O1185  O     0.10775   0.83332   0.82549   0.00000  Uiso   1.00
O1186  O     0.18694   0.83333   0.82549   0.00000  Uiso   1.00
O1187  O     0.12706   0.77321   0.74999   0.00000  Uiso   1.00
O1188  O     0.20625   0.77322   0.74999   0.00000  Uiso   1.00
O1189  O     0.14640   0.83334   0.67451   0.00000  Uiso   1.00
O1190  O     0.22559   0.83335   0.67451   0.00000  Uiso   1.00
F1191  F     0.03030   0.88618   0.81280   0.00000  Uiso   1.00
F1192  F     0.31074   0.87381   0.98577   0.00000  Uiso   1.00
F1193  F     0.04516   0.80526   0.90740   0.00000  Uiso   1.00
O1194  O     0.09295   0.78370   0.55750   0.00000  Uiso   1.00
C1195  C     0.11468   0.74435   0.54911   0.00000  Uiso   1.00
H1196  H     0.15520   0.74673   0.53006   0.00000  Uiso   1.00
H1197  H     0.09792   0.72543   0.52433   0.00000  Uiso   1.00
C1198  C     0.10557   0.72299   0.60165   0.00000  Uiso   1.00
H1199  H     0.12272   0.74138   0.62643   0.00000  Uiso   1.00
H1200  H     0.06529   0.72104   0.62156   0.00000  Uiso   1.00
C1201  C     0.12707   0.67971   0.59535   0.00000  Uiso   1.00
H1202  H     0.11027   0.99397   0.57094   0.00000  Uiso   1.00
H1203  H     0.11921   0.99832   0.63412   0.00000  Uiso   1.00
H1204  H     0.16759   0.68100   0.57701   0.00000  Uiso   1.00
F1205  F     0.02509   0.78001   0.50650   0.00000  Uiso   1.00
O1206  O     0.25340   0.95930   0.75022   0.00000  Uiso   1.00
C1207  C     0.29414   0.96647   0.70542   0.00000  Uiso   1.00
H1208  H     0.32806   0.96412   0.71739   0.00000  Uiso   1.00
H1209  H     0.29478   0.99778   0.68848   0.00000  Uiso   1.00
C1210  C     0.29633   0.93375   0.66380   0.00000  Uiso   1.00
H1211  H     0.29742   0.90268   0.68041   0.00000  Uiso   1.00
H1212  H     0.26290   0.93580   0.65088   0.00000  Uiso   1.00
C1213  C     0.00858   0.93937   0.61681   0.00000  Uiso   1.00
H1214  H     0.00824   0.97010   0.59902   0.00000  Uiso   1.00
H1215  H     0.00901   0.91541   0.58729   0.00000  Uiso   1.00
H1216  H     0.04252   0.93635   0.62862   0.00000  Uiso   1.00
C1217  C     0.50055   0.91270   0.74906   0.00000  Uiso   1.00
C1218  C     0.48023   0.82768   0.98845   0.00000  Uiso   1.00
C1219  C     0.49007   0.84211   0.93656   0.00000  Uiso   1.00
C1220  C     0.51557   0.83666   0.51497   0.00000  Uiso   1.00
C1221  C     0.56199   0.85412   0.98765   0.00000  Uiso   1.00
C1222  C     0.56944   0.86956   0.93783   0.00000  Uiso   1.00
C1223  C     0.53255   0.86624   0.91443   0.00000  Uiso   1.00
C1224  C     0.50514   0.83160   0.56858   0.00000  Uiso   1.00
C1225  C     0.58880   0.84909   0.56460   0.00000  Uiso   1.00
C1226  C     0.45750   0.83192   0.90763   0.00000  Uiso   1.00
C1227  C     0.54505   0.97943   0.74654   0.00000  Uiso   1.00
C1228  C     0.47360   0.83439   0.85023   0.00000  Uiso   1.00
C1229  C     0.54311   0.68878   0.74905   0.00000  Uiso   1.00
C1230  C     0.50064   0.70956   0.74788   0.00000  Uiso   1.00
C1231  C     0.45919   0.68768   0.74508   0.00000  Uiso   1.00
C1232  C     0.45973   0.97851   0.74503   0.00000  Uiso   1.00
C1233  C     0.50198   0.95742   0.74692   0.00000  Uiso   1.00
C1234  C     0.63315   0.85996   0.78085   0.00000  Uiso   1.00
C1235  C     0.34932   0.85977   0.78118   0.00000  Uiso   1.00
C1236  C     0.36698   0.80701   0.71865   0.00000  Uiso   1.00
C1237  C     0.65063   0.80697   0.71873   0.00000  Uiso   1.00
C1238  C     0.50005   0.75406   0.74948   0.00000  Uiso   1.00
C1239  C     0.52627   0.83396   0.65004   0.00000  Uiso   1.00
C1240  C     0.59891   0.85868   0.51210   0.00000  Uiso   1.00
C1241  C     0.54117   0.83715   0.59338   0.00000  Uiso   1.00
C1242  C     0.41184   0.81350   0.93298   0.00000  Uiso   1.00
C1243  C     0.40145   0.80009   0.98387   0.00000  Uiso   1.00
C1244  C     0.43634   0.80392   0.51042   0.00000  Uiso   1.00
Cu1245 Cu    0.45311   0.83333   0.75000   0.00000  Uiso   1.00
Cu1246 Cu    0.54689   0.83334   0.75000   0.00000  Uiso   1.00
H1247  H     0.61707   0.85369   0.58336   0.00000  Uiso   1.00
H1248  H     0.57496   0.70556   0.75241   0.00000  Uiso   1.00
H1249  H     0.42615   0.70331   0.74362   0.00000  Uiso   1.00
H1250  H     0.42680   0.96222   0.74394   0.00000  Uiso   1.00
H1251  H     0.60764   0.88156   0.80512   0.00000  Uiso   1.00
H1252  H     0.39277   0.78592   0.69360   0.00000  Uiso   1.00
H1253  H     0.63892   0.78586   0.69371   0.00000  Uiso   1.00
H1254  H     0.60289   0.88608   0.91774   0.00000  Uiso   1.00
H1255  H     0.46800   0.82655   0.59257   0.00000  Uiso   1.00
H1256  H     0.53783   0.88297   0.87865   0.00000  Uiso   1.00
N1257  N     0.38265   0.83332   0.74998   0.00000  Uiso   1.00
N1258  N     0.61735   0.83335   0.74999   0.00000  Uiso   1.00
O1259  O     0.46042   0.89345   0.75000   0.00000  Uiso   1.00
O1260  O     0.53961   0.89346   0.75000   0.00000  Uiso   1.00
O1261  O     0.44108   0.83332   0.82549   0.00000  Uiso   1.00
O1262  O     0.52027   0.83333   0.82549   0.00000  Uiso   1.00
O1263  O     0.46039   0.77321   0.74999   0.00000  Uiso   1.00
O1264  O     0.53958   0.77322   0.74999   0.00000  Uiso   1.00
O1265  O     0.47973   0.83334   0.67451   0.00000  Uiso   1.00
O1266  O     0.55892   0.83335   0.67451   0.00000  Uiso   1.00
F1267  F     0.36363   0.88618   0.81280   0.00000  Uiso   1.00
F1268  F     0.64407   0.87381   0.98577   0.00000  Uiso   1.00
F1269  F     0.37850   0.80526   0.90740   0.00000  Uiso   1.00
O1270  O     0.42628   0.78370   0.55750   0.00000  Uiso   1.00
C1271  C     0.44802   0.74435   0.54911   0.00000  Uiso   1.00
H1272  H     0.48854   0.74673   0.53006   0.00000  Uiso   1.00
H1273  H     0.43125   0.72543   0.52433   0.00000  Uiso   1.00
C1274  C     0.43890   0.72299   0.60165   0.00000  Uiso   1.00
H1275  H     0.45605   0.74138   0.62643   0.00000  Uiso   1.00
H1276  H     0.39862   0.72104   0.62156   0.00000  Uiso   1.00
C1277  C     0.46040   0.67971   0.59535   0.00000  Uiso   1.00
H1278  H     0.44360   0.99397   0.57094   0.00000  Uiso   1.00
H1279  H     0.45254   0.99832   0.63412   0.00000  Uiso   1.00
H1280  H     0.50093   0.68100   0.57701   0.00000  Uiso   1.00
F1281  F     0.35842   0.78001   0.50650   0.00000  Uiso   1.00
O1282  O     0.58673   0.95930   0.75022   0.00000  Uiso   1.00
C1283  C     0.62747   0.96647   0.70542   0.00000  Uiso   1.00
H1284  H     0.66140   0.96412   0.71739   0.00000  Uiso   1.00
H1285  H     0.62811   0.99778   0.68848   0.00000  Uiso   1.00
C1286  C     0.62966   0.93375   0.66380   0.00000  Uiso   1.00
H1287  H     0.63075   0.90268   0.68041   0.00000  Uiso   1.00
H1288  H     0.59624   0.93580   0.65088   0.00000  Uiso   1.00
C1289  C     0.34191   0.93937   0.61681   0.00000  Uiso   1.00
H1290  H     0.34157   0.97010   0.59902   0.00000  Uiso   1.00
H1291  H     0.34235   0.91541   0.58729   0.00000  Uiso   1.00
H1292  H     0.37585   0.93635   0.62862   0.00000  Uiso   1.00
C1293  C     0.83388   0.91270   0.74906   0.00000  Uiso   1.00
C1294  C     0.81356   0.82768   0.98845   0.00000  Uiso   1.00
C1295  C     0.82340   0.84211   0.93656   0.00000  Uiso   1.00
C1296  C     0.84890   0.83666   0.51497   0.00000  Uiso   1.00
C1297  C     0.89532   0.85412   0.98765   0.00000  Uiso   1.00
C1298  C     0.90277   0.86956   0.93783   0.00000  Uiso   1.00
C1299  C     0.86589   0.86624   0.91443   0.00000  Uiso   1.00
C1300  C     0.83848   0.83160   0.56858   0.00000  Uiso   1.00
C1301  C     0.92213   0.84909   0.56460   0.00000  Uiso   1.00
C1302  C     0.79083   0.83192   0.90763   0.00000  Uiso   1.00
C1303  C     0.87838   0.97943   0.74654   0.00000  Uiso   1.00
C1304  C     0.80693   0.83439   0.85023   0.00000  Uiso   1.00
C1305  C     0.87645   0.68878   0.74905   0.00000  Uiso   1.00
C1306  C     0.83397   0.70956   0.74788   0.00000  Uiso   1.00
C1307  C     0.79253   0.68768   0.74508   0.00000  Uiso   1.00
C1308  C     0.79306   0.97851   0.74503   0.00000  Uiso   1.00
C1309  C     0.83531   0.95742   0.74692   0.00000  Uiso   1.00
C1310  C     0.96649   0.85996   0.78085   0.00000  Uiso   1.00
C1311  C     0.68266   0.85977   0.78118   0.00000  Uiso   1.00
C1312  C     0.70031   0.80701   0.71865   0.00000  Uiso   1.00
C1313  C     0.98397   0.80697   0.71873   0.00000  Uiso   1.00
C1314  C     0.83339   0.75406   0.74948   0.00000  Uiso   1.00
C1315  C     0.85960   0.83396   0.65004   0.00000  Uiso   1.00
C1316  C     0.93225   0.85868   0.51210   0.00000  Uiso   1.00
C1317  C     0.87451   0.83715   0.59338   0.00000  Uiso   1.00
C1318  C     0.74517   0.81350   0.93298   0.00000  Uiso   1.00
C1319  C     0.73478   0.80009   0.98387   0.00000  Uiso   1.00
C1320  C     0.76967   0.80392   0.51042   0.00000  Uiso   1.00
Cu1321 Cu    0.78645   0.83333   0.75000   0.00000  Uiso   1.00
Cu1322 Cu    0.88022   0.83334   0.75000   0.00000  Uiso   1.00
H1323  H     0.95040   0.85369   0.58336   0.00000  Uiso   1.00
H1324  H     0.90829   0.70556   0.75241   0.00000  Uiso   1.00
H1325  H     0.75949   0.70331   0.74362   0.00000  Uiso   1.00
H1326  H     0.76013   0.96222   0.74394   0.00000  Uiso   1.00
H1327  H     0.94097   0.88156   0.80512   0.00000  Uiso   1.00
H1328  H     0.72610   0.78592   0.69360   0.00000  Uiso   1.00
H1329  H     0.97226   0.78586   0.69371   0.00000  Uiso   1.00
H1330  H     0.93622   0.88608   0.91774   0.00000  Uiso   1.00
H1331  H     0.80133   0.82655   0.59257   0.00000  Uiso   1.00
H1332  H     0.87117   0.88297   0.87865   0.00000  Uiso   1.00
N1333  N     0.71598   0.83332   0.74998   0.00000  Uiso   1.00
N1334  N     0.95069   0.83335   0.74999   0.00000  Uiso   1.00
O1335  O     0.79375   0.89345   0.75000   0.00000  Uiso   1.00
O1336  O     0.87294   0.89346   0.75000   0.00000  Uiso   1.00
O1337  O     0.77441   0.83332   0.82549   0.00000  Uiso   1.00
O1338  O     0.85360   0.83333   0.82549   0.00000  Uiso   1.00
O1339  O     0.79373   0.77321   0.74999   0.00000  Uiso   1.00
O1340  O     0.87292   0.77322   0.74999   0.00000  Uiso   1.00
O1341  O     0.81306   0.83334   0.67451   0.00000  Uiso   1.00
O1342  O     0.89225   0.83335   0.67451   0.00000  Uiso   1.00
F1343  F     0.69697   0.88618   0.81280   0.00000  Uiso   1.00
F1344  F     0.97741   0.87381   0.98577   0.00000  Uiso   1.00
F1345  F     0.71183   0.80526   0.90740   0.00000  Uiso   1.00
O1346  O     0.75961   0.78370   0.55750   0.00000  Uiso   1.00
C1347  C     0.78135   0.74435   0.54911   0.00000  Uiso   1.00
H1348  H     0.82187   0.74673   0.53006   0.00000  Uiso   1.00
H1349  H     0.76459   0.72543   0.52433   0.00000  Uiso   1.00
C1350  C     0.77223   0.72299   0.60165   0.00000  Uiso   1.00
H1351  H     0.78938   0.74138   0.62643   0.00000  Uiso   1.00
H1352  H     0.73195   0.72104   0.62156   0.00000  Uiso   1.00
C1353  C     0.79374   0.67971   0.59535   0.00000  Uiso   1.00
H1354  H     0.77694   0.99397   0.57094   0.00000  Uiso   1.00
H1355  H     0.78587   0.99832   0.63412   0.00000  Uiso   1.00
H1356  H     0.83426   0.68100   0.57701   0.00000  Uiso   1.00
F1357  F     0.69175   0.78001   0.50650   0.00000  Uiso   1.00
O1358  O     0.92006   0.95930   0.75022   0.00000  Uiso   1.00
C1359  C     0.96081   0.96647   0.70542   0.00000  Uiso   1.00
H1360  H     0.99473   0.96412   0.71739   0.00000  Uiso   1.00
H1361  H     0.96145   0.99778   0.68848   0.00000  Uiso   1.00
C1362  C     0.96300   0.93375   0.66380   0.00000  Uiso   1.00
H1363  H     0.96409   0.90268   0.68041   0.00000  Uiso   1.00
H1364  H     0.92957   0.93580   0.65088   0.00000  Uiso   1.00
C1365  C     0.67524   0.93937   0.61681   0.00000  Uiso   1.00
H1366  H     0.67491   0.97010   0.59902   0.00000  Uiso   1.00
H1367  H     0.67568   0.91541   0.58729   0.00000  Uiso   1.00
H1368  H     0.70918   0.93635   0.62862   0.00000  Uiso   1.00
loop_
_geom_bond_atom_site_label_1
_geom_bond_atom_site_label_2
_geom_bond_distance
_geom_bond_site_symmetry_2
_ccdc_geom_bond_type
C1     O43     1.295   .     A
C1     O44     1.287   .     A
C1     C17     1.455   .     S
C2     C3      1.422   .     A
C2     C688    1.430   .     S
C2     C712    1.434   .     S
C3     C7      1.412   .     A
C3     C10     1.420   .     A
C4     C8      1.396   .     A
C4     C686    1.430   1_554 S
C4     C689    1.421   1_554 S
C5     C6      1.390   .     A
C5     C688    1.421   .     S
C5     C708    1.408   .     S
C6     H38     1.084   .     S
C6     C7      1.384   .     A
C7     H40     1.079   .     S
C8     H39     1.073   .     S
C8     C25     1.396   .     A
C9     C25     1.398   .     A
C9     C24     1.393   .     A
C9     H31     1.083   .     S
C10    C26     1.405   .     A
C10    C12     1.478   .     S
C11    O66     1.389   .     S
C11    C17     1.415   .     A
C11    C241    1.390   .     S
C12    O46     1.296   .     A
C12    O45     1.296   .     A
C13    H32     1.084   .     S
C13    C14     1.398   .     A
C13    C467    1.390   1_545 S
C14    C22     1.447   .     S
C14    C15     1.397   .     A
C15    H33     1.083   .     S
C15    C472    1.382   1_545 S
C16    H34     1.083   .     S
C16    C17     1.403   .     A
C16    C243    1.382   .     S
C18    N42     1.365   .     A
C18    H35     1.080   .     S
C18    C95     1.414   .     S
C19    F51     1.355   .     S
C19    N41     1.368   .     A
C19    C170    1.414   1_455 S
C20    N41     1.367   .     A
C20    H36     1.081   .     S
C20    C173    1.415   1_455 S
C21    N42     1.367   .     A
C21    H37     1.082   .     S
C21    C96     1.415   .     S
C22    O48     1.289   .     A
C22    O47     1.290   .     A
C23    O49     1.290   .     A
C23    O50     1.294   .     A
C23    C25     1.461   .     S
C24    C689    1.408   1_554 S
C24    F736    1.358   1_554 S
C26    C27     1.385   .     A
C26    F53     1.358   .     S
C27    C712    1.395   .     S
C27    F749    1.358   .     S
C28    O54     1.382   .     S
C28    C686    1.434   1_554 S
C28    C711    1.395   1_554 S
Cu29   O49     1.946   .     S
Cu29   O47     1.967   .     S
Cu29   O43     1.965   .     S
Cu29   O45     1.961   .     S
Cu29   Cu30    2.673   .     S
Cu29   N41     2.008   .     S
Cu30   O48     1.965   .     S
Cu30   O50     1.961   .     S
Cu30   O44     1.967   .     S
Cu30   O46     1.946   .     S
Cu30   N42     2.008   .     S
F52    C708    1.358   .     S
O54    C55     1.412   .     S
C55    H56     1.115   .     S
C55    H57     1.115   .     S
C55    C58     1.529   .     S
C58    H60     1.112   .     S
C58    C61     1.526   .     S
C58    H59     1.112   .     S
C61    H64     1.111   .     S
C61    H518    1.111   1_545 S
C61    H519    1.110   1_545 S
H62    C289    1.111   .     S
H63    C289    1.110   .     S
F65    C711    1.358   1_554 S
O66    C67     1.419   .     S
C67    H68     1.111   .     S
C67    H69     1.114   .     S
C67    C70     1.533   .     S
C70    H71     1.111   .     S
C70    H72     1.111   .     S
C70    C149    1.526   .     S
C73    H74     1.111   .     S
C73    H75     1.110   .     S
C73    H76     1.111   .     S
C73    C222    1.526   1_455 S
C77    O119    1.295   .     A
C77    O120    1.287   .     A
C77    C93     1.455   .     S
C78    C79     1.422   .     A
C78    C764    1.430   .     S
C78    C788    1.434   .     S
C79    C83     1.412   .     A
C79    C86     1.420   .     A
C80    C84     1.396   .     A
C80    C762    1.430   1_554 S
C80    C765    1.421   1_554 S
C81    C82     1.390   .     A
C81    C764    1.421   .     S
C81    C784    1.408   .     S
C82    H114    1.084   .     S
C82    C83     1.384   .     A
C83    H116    1.079   .     S
C84    H115    1.073   .     S
C84    C101    1.396   .     A
C85    C101    1.398   .     A
C85    C100    1.393   .     A
C85    H107    1.083   .     S
C86    C102    1.405   .     A
C86    C88     1.478   .     S
C87    O142    1.389   .     S
C87    C93     1.415   .     A
C87    C317    1.390   .     S
C88    O122    1.296   .     A
C88    O121    1.296   .     A
C89    H108    1.084   .     S
C89    C90     1.398   .     A
C89    C543    1.390   1_545 S
C90    C98     1.447   .     S
C90    C91     1.397   .     A
C91    H109    1.083   .     S
C91    C548    1.382   1_545 S
C92    H110    1.083   .     S
C92    C93     1.403   .     A
C92    C319    1.382   .     S
C94    N118    1.365   .     A
C94    H111    1.080   .     S
C94    C171    1.414   .     S
C95    F127    1.355   .     S
C95    N117    1.368   .     A
C96    N117    1.367   .     A
C96    H112    1.081   .     S
C97    N118    1.367   .     A
C97    H113    1.082   .     S
C97    C172    1.415   .     S
C98    O124    1.289   .     A
C98    O123    1.290   .     A
C99    O125    1.290   .     A
C99    O126    1.294   .     A
C99    C101    1.461   .     S
C100   C765    1.408   1_554 S
C100   F812    1.358   1_554 S
C102   C103    1.385   .     A
C102   F129    1.358   .     S
C103   C788    1.395   .     S
C103   F825    1.358   .     S
C104   O130    1.382   .     S
C104   C762    1.434   1_554 S
C104   C787    1.395   1_554 S
Cu105  O125    1.946   .     S
Cu105  O123    1.967   .     S
Cu105  O119    1.965   .     S
Cu105  O121    1.961   .     S
Cu105  Cu106   2.673   .     S
Cu105  N117    2.008   .     S
Cu106  O124    1.965   .     S
Cu106  O126    1.961   .     S
Cu106  O120    1.967   .     S
Cu106  O122    1.946   .     S
Cu106  N118    2.008   .     S
F128   C784    1.358   .     S
O130   C131    1.412   .     S
C131   H132    1.115   .     S
C131   H133    1.115   .     S
C131   C134    1.529   .     S
C134   H136    1.112   .     S
C134   C137    1.526   .     S
C134   H135    1.112   .     S
C137   H140    1.111   .     S
C137   H594    1.111   1_545 S
C137   H595    1.110   1_545 S
H138   C365    1.111   .     S
H139   C365    1.110   .     S
F141   C787    1.358   1_554 S
O142   C143    1.419   .     S
C143   H144    1.111   .     S
C143   H145    1.114   .     S
C143   C146    1.533   .     S
C146   H147    1.111   .     S
C146   H148    1.111   .     S
C146   C225    1.526   .     S
C149   H150    1.111   .     S
C149   H151    1.110   .     S
C149   H152    1.111   .     S
C153   O195    1.295   .     A
C153   O196    1.287   .     A
C153   C169    1.455   .     S
C154   C155    1.422   .     A
C154   C840    1.430   .     S
C154   C864    1.434   .     S
C155   C159    1.412   .     A
C155   C162    1.420   .     A
C156   C160    1.396   .     A
C156   C838    1.430   1_554 S
C156   C841    1.421   1_554 S
C157   C158    1.390   .     A
C157   C840    1.421   .     S
C157   C860    1.408   .     S
C158   H190    1.084   .     S
C158   C159    1.384   .     A
C159   H192    1.079   .     S
C160   H191    1.073   .     S
C160   C177    1.396   .     A
C161   C177    1.398   .     A
C161   C176    1.393   .     A
C161   H183    1.083   .     S
C162   C178    1.405   .     A
C162   C164    1.478   .     S
C163   O218    1.389   .     S
C163   C169    1.415   .     A
C163   C393    1.390   .     S
C164   O198    1.296   .     A
C164   O197    1.296   .     A
C165   H184    1.084   .     S
C165   C166    1.398   .     A
C165   C619    1.390   1_545 S
C166   C174    1.447   .     S
C166   C167    1.397   .     A
C167   H185    1.083   .     S
C167   C624    1.382   1_545 S
C168   H186    1.083   .     S
C168   C169    1.403   .     A
C168   C395    1.382   .     S
C170   N194    1.365   .     A
C170   H187    1.080   .     S
C170   C19     1.414   1_655 S
C171   F203    1.355   .     S
C171   N193    1.368   .     A
C172   N193    1.367   .     A
C172   H188    1.081   .     S
C173   N194    1.367   .     A
C173   H189    1.082   .     S
C173   C20     1.415   1_655 S
C174   O200    1.289   .     A
C174   O199    1.290   .     A
C175   O201    1.290   .     A
C175   O202    1.294   .     A
C175   C177    1.461   .     S
C176   C841    1.408   1_554 S
C176   F888    1.358   1_554 S
C178   C179    1.385   .     A
C178   F205    1.358   .     S
C179   C864    1.395   .     S
C179   F901    1.358   .     S
C180   O206    1.382   .     S
C180   C838    1.434   1_554 S
C180   C863    1.395   1_554 S
Cu181  O201    1.946   .     S
Cu181  O199    1.967   .     S
Cu181  O195    1.965   .     S
Cu181  O197    1.961   .     S
Cu181  Cu182   2.673   .     S
Cu181  N193    2.008   .     S
Cu182  O200    1.965   .     S
Cu182  O202    1.961   .     S
Cu182  O196    1.967   .     S
Cu182  O198    1.946   .     S
Cu182  N194    2.008   .     S
F204   C860    1.358   .     S
O206   C207    1.412   .     S
C207   H208    1.115   .     S
C207   H209    1.115   .     S
C207   C210    1.529   .     S
C210   H212    1.112   .     S
C210   C213    1.526   .     S
C210   H211    1.112   .     S
C213   H216    1.111   .     S
C213   H670    1.111   1_545 S
C213   H671    1.110   1_545 S
H214   C441    1.111   .     S
H215   C441    1.110   .     S
F217   C863    1.358   1_554 S
O218   C219    1.419   .     S
C219   H220    1.111   .     S
C219   H221    1.114   .     S
C219   C222    1.533   .     S
C222   H223    1.111   .     S
C222   H224    1.111   .     S
C222   C73     1.526   1_655 S
C225   H226    1.111   .     S
C225   H227    1.110   .     S
C225   H228    1.111   .     S
C229   O271    1.295   .     A
C229   O272    1.287   .     A
C229   C245    1.455   .     S
C230   C231    1.422   .     A
C230   C916    1.430   .     S
C230   C940    1.434   .     S
C231   C235    1.412   .     A
C231   C238    1.420   .     A
C232   C236    1.396   .     A
C232   C914    1.430   1_554 S
C232   C917    1.421   1_554 S
C233   C234    1.390   .     A
C233   C916    1.421   .     S
C233   C936    1.408   .     S
C234   H266    1.084   .     S
C234   C235    1.384   .     A
C235   H268    1.079   .     S
C236   H267    1.073   .     S
C236   C253    1.396   .     A
C237   C253    1.398   .     A
C237   C252    1.393   .     A
C237   H259    1.083   .     S
C238   C254    1.405   .     A
C238   C240    1.478   .     S
C239   O294    1.389   .     S
C239   C245    1.415   .     A
C239   C469    1.390   .     S
C240   O274    1.296   .     A
C240   O273    1.296   .     A
C241   H260    1.084   .     S
C241   C242    1.398   .     A
C242   C250    1.447   .     S
C242   C243    1.397   .     A
C243   H261    1.083   .     S
C244   H262    1.083   .     S
C244   C245    1.403   .     A
C244   C471    1.382   .     S
C246   N270    1.365   .     A
C246   H263    1.080   .     S
C246   C323    1.414   .     S
C247   F279    1.355   .     S
C247   N269    1.368   .     A
C247   C398    1.414   1_455 S
C248   N269    1.367   .     A
C248   H264    1.081   .     S
C248   C401    1.415   1_455 S
C249   N270    1.367   .     A
C249   H265    1.082   .     S
C249   C324    1.415   .     S
C250   O276    1.289   .     A
C250   O275    1.290   .     A
C251   O277    1.290   .     A
C251   O278    1.294   .     A
C251   C253    1.461   .     S
C252   C917    1.408   1_554 S
C252   F964    1.358   1_554 S
C254   C255    1.385   .     A
C254   F281    1.358   .     S
C255   C940    1.395   .     S
C255   F977    1.358   .     S
C256   O282    1.382   .     S
C256   C914    1.434   1_554 S
C256   C939    1.395   1_554 S
Cu257  O277    1.946   .     S
Cu257  O275    1.967   .     S
Cu257  O271    1.965   .     S
Cu257  O273    1.961   .     S
Cu257  Cu258   2.673   .     S
Cu257  N269    2.008   .     S
Cu258  O276    1.965   .     S
Cu258  O278    1.961   .     S
Cu258  O272    1.967   .     S
Cu258  O274    1.946   .     S
Cu258  N270    2.008   .     S
F280   C936    1.358   .     S
O282   C283    1.412   .     S
C283   H284    1.115   .     S
C283   H285    1.115   .     S
C283   C286    1.529   .     S
C286   H288    1.112   .     S
C286   C289    1.526   .     S
C286   H287    1.112   .     S
C289   H292    1.111   .     S
H290   C517    1.111   .     S
H291   C517    1.110   .     S
F293   C939    1.358   1_554 S
O294   C295    1.419   .     S
C295   H296    1.111   .     S
C295   H297    1.114   .     S
C295   C298    1.533   .     S
C298   H299    1.111   .     S
C298   H300    1.111   .     S
C298   C377    1.526   .     S
C301   H302    1.111   .     S
C301   H303    1.110   .     S
C301   H304    1.111   .     S
C301   C450    1.526   1_455 S
C305   O347    1.295   .     A
C305   O348    1.287   .     A
C305   C321    1.455   .     S
C306   C307    1.422   .     A
C306   C992    1.430   .     S
C306   C1016   1.434   .     S
C307   C311    1.412   .     A
C307   C314    1.420   .     A
C308   C312    1.396   .     A
C308   C990    1.430   1_554 S
C308   C993    1.421   1_554 S
C309   C310    1.390   .     A
C309   C992    1.421   .     S
C309   C1012   1.408   .     S
C310   H342    1.084   .     S
C310   C311    1.384   .     A
C311   H344    1.079   .     S
C312   H343    1.073   .     S
C312   C329    1.396   .     A
C313   C329    1.398   .     A
C313   C328    1.393   .     A
C313   H335    1.083   .     S
C314   C330    1.405   .     A
C314   C316    1.478   .     S
C315   O370    1.389   .     S
C315   C321    1.415   .     A
C315   C545    1.390   .     S
C316   O350    1.296   .     A
C316   O349    1.296   .     A
C317   H336    1.084   .     S
C317   C318    1.398   .     A
C318   C326    1.447   .     S
C318   C319    1.397   .     A
C319   H337    1.083   .     S
C320   H338    1.083   .     S
C320   C321    1.403   .     A
C320   C547    1.382   .     S
C322   N346    1.365   .     A
C322   H339    1.080   .     S
C322   C399    1.414   .     S
C323   F355    1.355   .     S
C323   N345    1.368   .     A
C324   N345    1.367   .     A
C324   H340    1.081   .     S
C325   N346    1.367   .     A
C325   H341    1.082   .     S
C325   C400    1.415   .     S
C326   O352    1.289   .     A
C326   O351    1.290   .     A
C327   O353    1.290   .     A
C327   O354    1.294   .     A
C327   C329    1.461   .     S
C328   C993    1.408   1_554 S
C328   F1040   1.358   1_554 S
C330   C331    1.385   .     A
C330   F357    1.358   .     S
C331   C1016   1.395   .     S
C331   F1053   1.358   .     S
C332   O358    1.382   .     S
C332   C990    1.434   1_554 S
C332   C1015   1.395   1_554 S
Cu333  O353    1.946   .     S
Cu333  O351    1.967   .     S
Cu333  O347    1.965   .     S
Cu333  O349    1.961   .     S
Cu333  Cu334   2.673   .     S
Cu333  N345    2.008   .     S
Cu334  O352    1.965   .     S
Cu334  O354    1.961   .     S
Cu334  O348    1.967   .     S
Cu334  O350    1.946   .     S
Cu334  N346    2.008   .     S
F356   C1012   1.358   .     S
O358   C359    1.412   .     S
C359   H360    1.115   .     S
C359   H361    1.115   .     S
C359   C362    1.529   .     S
C362   H364    1.112   .     S
C362   C365    1.526   .     S
C362   H363    1.112   .     S
C365   H368    1.111   .     S
H366   C593    1.111   .     S
H367   C593    1.110   .     S
F369   C1015   1.358   1_554 S
O370   C371    1.419   .     S
C371   H372    1.111   .     S
C371   H373    1.114   .     S
C371   C374    1.533   .     S
C374   H375    1.111   .     S
C374   H376    1.111   .     S
C374   C453    1.526   .     S
C377   H378    1.111   .     S
C377   H379    1.110   .     S
C377   H380    1.111   .     S
C381   O423    1.295   .     A
C381   O424    1.287   .     A
C381   C397    1.455   .     S
C382   C383    1.422   .     A
C382   C1068   1.430   .     S
C382   C1092   1.434   .     S
C383   C387    1.412   .     A
C383   C390    1.420   .     A
C384   C388    1.396   .     A
C384   C1066   1.430   1_554 S
C384   C1069   1.421   1_554 S
C385   C386    1.390   .     A
C385   C1068   1.421   .     S
C385   C1088   1.408   .     S
C386   H418    1.084   .     S
C386   C387    1.384   .     A
C387   H420    1.079   .     S
C388   H419    1.073   .     S
C388   C405    1.396   .     A
C389   C405    1.398   .     A
C389   C404    1.393   .     A
C389   H411    1.083   .     S
C390   C406    1.405   .     A
C390   C392    1.478   .     S
C391   O446    1.389   .     S
C391   C397    1.415   .     A
C391   C621    1.390   .     S
C392   O426    1.296   .     A
C392   O425    1.296   .     A
C393   H412    1.084   .     S
C393   C394    1.398   .     A
C394   C402    1.447   .     S
C394   C395    1.397   .     A
C395   H413    1.083   .     S
C396   H414    1.083   .     S
C396   C397    1.403   .     A
C396   C623    1.382   .     S
C398   N422    1.365   .     A
C398   H415    1.080   .     S
C398   C247    1.414   1_655 S
C399   F431    1.355   .     S
C399   N421    1.368   .     A
C400   N421    1.367   .     A
C400   H416    1.081   .     S
C401   N422    1.367   .     A
C401   H417    1.082   .     S
C401   C248    1.415   1_655 S
C402   O428    1.289   .     A
C402   O427    1.290   .     A
C403   O429    1.290   .     A
C403   O430    1.294   .     A
C403   C405    1.461   .     S
C404   C1069   1.408   1_554 S
C404   F1116   1.358   1_554 S
C406   C407    1.385   .     A
C406   F433    1.358   .     S
C407   C1092   1.395   .     S
C407   F1129   1.358   .     S
C408   O434    1.382   .     S
C408   C1066   1.434   1_554 S
C408   C1091   1.395   1_554 S
Cu409  O429    1.946   .     S
Cu409  O427    1.967   .     S
Cu409  O423    1.965   .     S
Cu409  O425    1.961   .     S
Cu409  Cu410   2.673   .     S
Cu409  N421    2.008   .     S
Cu410  O428    1.965   .     S
Cu410  O430    1.961   .     S
Cu410  O424    1.967   .     S
Cu410  O426    1.946   .     S
Cu410  N422    2.008   .     S
F432   C1088   1.358   .     S
O434   C435    1.412   .     S
C435   H436    1.115   .     S
C435   H437    1.115   .     S
C435   C438    1.529   .     S
C438   H440    1.112   .     S
C438   C441    1.526   .     S
C438   H439    1.112   .     S
C441   H444    1.111   .     S
H442   C669    1.111   .     S
H443   C669    1.110   .     S
F445   C1091   1.358   1_554 S
O446   C447    1.419   .     S
C447   H448    1.111   .     S
C447   H449    1.114   .     S
C447   C450    1.533   .     S
C450   H451    1.111   .     S
C450   H452    1.111   .     S
C450   C301    1.526   1_655 S
C453   H454    1.111   .     S
C453   H455    1.110   .     S
C453   H456    1.111   .     S
C457   O499    1.295   .     A
C457   O500    1.287   .     A
C457   C473    1.455   .     S
C458   C459    1.422   .     A
C458   C1144   1.430   .     S
C458   C1168   1.434   .     S
C459   C463    1.412   .     A
C459   C466    1.420   .     A
C460   C464    1.396   .     A
C460   C1142   1.430   1_554 S
C460   C1145   1.421   1_554 S
C461   C462    1.390   .     A
C461   C1144   1.421   .     S
C461   C1164   1.408   .     S
C462   H494    1.084   .     S
C462   C463    1.384   .     A
C463   H496    1.079   .     S
C464   H495    1.073   .     S
C464   C481    1.396   .     A
C465   C481    1.398   .     A
C465   C480    1.393   .     A
C465   H487    1.083   .     S
C466   C482    1.405   .     A
C466   C468    1.478   .     S
C467   O522    1.389   .     S
C467   C473    1.415   .     A
C467   C13     1.390   1_565 S
C468   O502    1.296   .     A
C468   O501    1.296   .     A
C469   H488    1.084   .     S
C469   C470    1.398   .     A
C470   C478    1.447   .     S
C470   C471    1.397   .     A
C471   H489    1.083   .     S
C472   H490    1.083   .     S
C472   C473    1.403   .     A
C472   C15     1.382   1_565 S
C474   N498    1.365   .     A
C474   H491    1.080   .     S
C474   C551    1.414   .     S
C475   F507    1.355   .     S
C475   N497    1.368   .     A
C475   C626    1.414   1_455 S
C476   N497    1.367   .     A
C476   H492    1.081   .     S
C476   C629    1.415   1_455 S
C477   N498    1.367   .     A
C477   H493    1.082   .     S
C477   C552    1.415   .     S
C478   O504    1.289   .     A
C478   O503    1.290   .     A
C479   O505    1.290   .     A
C479   O506    1.294   .     A
C479   C481    1.461   .     S
C480   C1145   1.408   1_554 S
C480   F1192   1.358   1_554 S
C482   C483    1.385   .     A
C482   F509    1.358   .     S
C483   C1168   1.395   .     S
C483   F1205   1.358   .     S
C484   O510    1.382   .     S
C484   C1142   1.434   1_554 S
C484   C1167   1.395   1_554 S
Cu485  O505    1.946   .     S
Cu485  O503    1.967   .     S
Cu485  O499    1.965   .     S
Cu485  O501    1.961   .     S
Cu485  Cu486   2.673   .     S
Cu485  N497    2.008   .     S
Cu486  O504    1.965   .     S
Cu486  O506    1.961   .     S
Cu486  O500    1.967   .     S
Cu486  O502    1.946   .     S
Cu486  N498    2.008   .     S
F508   C1164   1.358   .     S
O510   C511    1.412   .     S
C511   H512    1.115   .     S
C511   H513    1.115   .     S
C511   C514    1.529   .     S
C514   H516    1.112   .     S
C514   C517    1.526   .     S
C514   H515    1.112   .     S
C517   H520    1.111   .     S
H518   C61     1.111   1_565 S
H519   C61     1.110   1_565 S
F521   C1167   1.358   1_554 S
O522   C523    1.419   .     S
C523   H524    1.111   .     S
C523   H525    1.114   .     S
C523   C526    1.533   .     S
C526   H527    1.111   .     S
C526   H528    1.111   .     S
C526   C605    1.526   .     S
C529   H530    1.111   .     S
C529   H531    1.110   .     S
C529   H532    1.111   .     S
C529   C678    1.526   1_455 S
C533   O575    1.295   .     A
C533   O576    1.287   .     A
C533   C549    1.455   .     S
C534   C535    1.422   .     A
C534   C1220   1.430   .     S
C534   C1244   1.434   .     S
C535   C539    1.412   .     A
C535   C542    1.420   .     A
C536   C540    1.396   .     A
C536   C1218   1.430   1_554 S
C536   C1221   1.421   1_554 S
C537   C538    1.390   .     A
C537   C1220   1.421   .     S
C537   C1240   1.408   .     S
C538   H570    1.084   .     S
C538   C539    1.384   .     A
C539   H572    1.079   .     S
C540   H571    1.073   .     S
C540   C557    1.396   .     A
C541   C557    1.398   .     A
C541   C556    1.393   .     A
C541   H563    1.083   .     S
C542   C558    1.405   .     A
C542   C544    1.478   .     S
C543   O598    1.389   .     S
C543   C549    1.415   .     A
C543   C89     1.390   1_565 S
C544   O578    1.296   .     A
C544   O577    1.296   .     A
C545   H564    1.084   .     S
C545   C546    1.398   .     A
C546   C554    1.447   .     S
C546   C547    1.397   .     A
C547   H565    1.083   .     S
C548   H566    1.083   .     S
C548   C549    1.403   .     A
C548   C91     1.382   1_565 S
C550   N574    1.365   .     A
C550   H567    1.080   .     S
C550   C627    1.414   .     S
C551   F583    1.355   .     S
C551   N573    1.368   .     A
C552   N573    1.367   .     A
C552   H568    1.081   .     S
C553   N574    1.367   .     A
C553   H569    1.082   .     S
C553   C628    1.415   .     S
C554   O580    1.289   .     A
C554   O579    1.290   .     A
C555   O581    1.290   .     A
C555   O582    1.294   .     A
C555   C557    1.461   .     S
C556   C1221   1.408   1_554 S
C556   F1268   1.358   1_554 S
C558   C559    1.385   .     A
C558   F585    1.358   .     S
C559   C1244   1.395   .     S
C559   F1281   1.358   .     S
C560   O586    1.382   .     S
C560   C1218   1.434   1_554 S
C560   C1243   1.395   1_554 S
Cu561  O581    1.946   .     S
Cu561  O579    1.967   .     S
Cu561  O575    1.965   .     S
Cu561  O577    1.961   .     S
Cu561  Cu562   2.673   .     S
Cu561  N573    2.008   .     S
Cu562  O580    1.965   .     S
Cu562  O582    1.961   .     S
Cu562  O576    1.967   .     S
Cu562  O578    1.946   .     S
Cu562  N574    2.008   .     S
F584   C1240   1.358   .     S
O586   C587    1.412   .     S
C587   H588    1.115   .     S
C587   H589    1.115   .     S
C587   C590    1.529   .     S
C590   H592    1.112   .     S
C590   C593    1.526   .     S
C590   H591    1.112   .     S
C593   H596    1.111   .     S
H594   C137    1.111   1_565 S
H595   C137    1.110   1_565 S
F597   C1243   1.358   1_554 S
O598   C599    1.419   .     S
C599   H600    1.111   .     S
C599   H601    1.114   .     S
C599   C602    1.533   .     S
C602   H603    1.111   .     S
C602   H604    1.111   .     S
C602   C681    1.526   .     S
C605   H606    1.111   .     S
C605   H607    1.110   .     S
C605   H608    1.111   .     S
C609   O651    1.295   .     A
C609   O652    1.287   .     A
C609   C625    1.455   .     S
C610   C611    1.422   .     A
C610   C1296   1.430   .     S
C610   C1320   1.434   .     S
C611   C615    1.412   .     A
C611   C618    1.420   .     A
C612   C616    1.396   .     A
C612   C1294   1.430   1_554 S
C612   C1297   1.421   1_554 S
C613   C614    1.390   .     A
C613   C1296   1.421   .     S
C613   C1316   1.408   .     S
C614   H646    1.084   .     S
C614   C615    1.384   .     A
C615   H648    1.079   .     S
C616   H647    1.073   .     S
C616   C633    1.396   .     A
C617   C633    1.398   .     A
C617   C632    1.393   .     A
C617   H639    1.083   .     S
C618   C634    1.405   .     A
C618   C620    1.478   .     S
C619   O674    1.389   .     S
C619   C625    1.415   .     A
C619   C165    1.390   1_565 S
C620   O654    1.296   .     A
C620   O653    1.296   .     A
C621   H640    1.084   .     S
C621   C622    1.398   .     A
C622   C630    1.447   .     S
C622   C623    1.397   .     A
C623   H641    1.083   .     S
C624   H642    1.083   .     S
C624   C625    1.403   .     A
C624   C167    1.382   1_565 S
C626   N650    1.365   .     A
C626   H643    1.080   .     S
C626   C475    1.414   1_655 S
C627   F659    1.355   .     S
C627   N649    1.368   .     A
C628   N649    1.367   .     A
C628   H644    1.081   .     S
C629   N650    1.367   .     A
C629   H645    1.082   .     S
C629   C476    1.415   1_655 S
C630   O656    1.289   .     A
C630   O655    1.290   .     A
C631   O657    1.290   .     A
C631   O658    1.294   .     A
C631   C633    1.461   .     S
C632   C1297   1.408   1_554 S
C632   F1344   1.358   1_554 S
C634   C635    1.385   .     A
C634   F661    1.358   .     S
C635   C1320   1.395   .     S
C635   F1357   1.358   .     S
C636   O662    1.382   .     S
C636   C1294   1.434   1_554 S
C636   C1319   1.395   1_554 S
Cu637  O657    1.946   .     S
Cu637  O655    1.967   .     S
Cu637  O651    1.965   .     S
Cu637  O653    1.961   .     S
Cu637  Cu638   2.673   .     S
Cu637  N649    2.008   .     S
Cu638  O656    1.965   .     S
Cu638  O658    1.961   .     S
Cu638  O652    1.967   .     S
Cu638  O654    1.946   .     S
Cu638  N650    2.008   .     S
F660   C1316   1.358   .     S
O662   C663    1.412   .     S
C663   H664    1.115   .     S
C663   H665    1.115   .     S
C663   C666    1.529   .     S
C666   H668    1.112   .     S
C666   C669    1.526   .     S
C666   H667    1.112   .     S
C669   H672    1.111   .     S
H670   C213    1.111   1_565 S
H671   C213    1.110   1_565 S
F673   C1319   1.358   1_554 S
O674   C675    1.419   .     S
C675   H676    1.111   .     S
C675   H677    1.114   .     S
C675   C678    1.533   .     S
C678   H679    1.111   .     S
C678   H680    1.111   .     S
C678   C529    1.526   1_655 S
C681   H682    1.111   .     S
C681   H683    1.110   .     S
C681   H684    1.111   .     S
C685   O727    1.295   .     A
C685   O728    1.287   .     A
C685   C701    1.455   .     S
C686   C687    1.422   .     A
C686   C4      1.430   1_556 S
C686   C28     1.434   1_556 S
C687   C691    1.412   .     A
C687   C694    1.420   .     A
C688   C692    1.396   .     A
C689   C690    1.390   .     A
C689   C4      1.421   1_556 S
C689   C24     1.408   1_556 S
C690   H722    1.084   .     S
C690   C691    1.384   .     A
C691   H724    1.079   .     S
C692   H723    1.073   .     S
C692   C709    1.396   .     A
C693   C709    1.398   .     A
C693   C708    1.393   .     A
C693   H715    1.083   .     S
C694   C710    1.405   .     A
C694   C696    1.478   .     S
C695   O750    1.389   .     S
C695   C701    1.415   .     A
C695   C925    1.390   .     S
C696   O730    1.296   .     A
C696   O729    1.296   .     A
C697   H716    1.084   .     S
C697   C698    1.398   .     A
C697   C1151   1.390   1_545 S
C698   C706    1.447   .     S
C698   C699    1.397   .     A
C699   H717    1.083   .     S
C699   C1156   1.382   1_545 S
C700   H718    1.083   .     S
C700   C701    1.403   .     A
C700   C927    1.382   .     S
C702   N726    1.365   .     A
C702   H719    1.080   .     S
C702   C779    1.414   .     S
C703   F735    1.355   .     S
C703   N725    1.368   .     A
C703   C854    1.414   1_455 S
C704   N725    1.367   .     A
C704   H720    1.081   .     S
C704   C857    1.415   1_455 S
C705   N726    1.367   .     A
C705   H721    1.082   .     S
C705   C780    1.415   .     S
C706   O732    1.289   .     A
C706   O731    1.290   .     A
C707   O733    1.290   .     A
C707   O734    1.294   .     A
C707   C709    1.461   .     S
C710   C711    1.385   .     A
C710   F737    1.358   .     S
C711   C28     1.395   1_556 S
C711   F65     1.358   1_556 S
C712   O738    1.382   .     S
Cu713  O733    1.946   .     S
Cu713  O731    1.967   .     S
Cu713  O727    1.965   .     S
Cu713  O729    1.961   .     S
Cu713  Cu714   2.673   .     S
Cu713  N725    2.008   .     S
Cu714  O732    1.965   .     S
Cu714  O734    1.961   .     S
Cu714  O728    1.967   .     S
Cu714  O730    1.946   .     S
Cu714  N726    2.008   .     S
F736   C24     1.358   1_556 S
O738   C739    1.412   .     S
C739   H740    1.115   .     S
C739   H741    1.115   .     S
C739   C742    1.529   .     S
C742   H744    1.112   .     S
C742   C745    1.526   .     S
C742   H743    1.112   .     S
C745   H748    1.111   .     S
C745   H1202   1.111   1_545 S
C745   H1203   1.110   1_545 S
H746   C973    1.111   .     S
H747   C973    1.110   .     S
O750   C751    1.419   .     S
C751   H752    1.111   .     S
C751   H753    1.114   .     S
C751   C754    1.533   .     S
C754   H755    1.111   .     S
C754   H756    1.111   .     S
C754   C833    1.526   .     S
C757   H758    1.111   .     S
C757   H759    1.110   .     S
C757   H760    1.111   .     S
C757   C906    1.526   1_455 S
C761   O803    1.295   .     A
C761   O804    1.287   .     A
C761   C777    1.455   .     S
C762   C763    1.422   .     A
C762   C80     1.430   1_556 S
C762   C104    1.434   1_556 S
C763   C767    1.412   .     A
C763   C770    1.420   .     A
C764   C768    1.396   .     A
C765   C766    1.390   .     A
C765   C80     1.421   1_556 S
C765   C100    1.408   1_556 S
C766   H798    1.084   .     S
C766   C767    1.384   .     A
C767   H800    1.079   .     S
C768   H799    1.073   .     S
C768   C785    1.396   .     A
C769   C785    1.398   .     A
C769   C784    1.393   .     A
C769   H791    1.083   .     S
C770   C786    1.405   .     A
C770   C772    1.478   .     S
C771   O826    1.389   .     S
C771   C777    1.415   .     A
C771   C1001   1.390   .     S
C772   O806    1.296   .     A
C772   O805    1.296   .     A
C773   H792    1.084   .     S
C773   C774    1.398   .     A
C773   C1227   1.390   1_545 S
C774   C782    1.447   .     S
C774   C775    1.397   .     A
C775   H793    1.083   .     S
C775   C1232   1.382   1_545 S
C776   H794    1.083   .     S
C776   C777    1.403   .     A
C776   C1003   1.382   .     S
C778   N802    1.365   .     A
C778   H795    1.080   .     S
C778   C855    1.414   .     S
C779   F811    1.355   .     S
C779   N801    1.368   .     A
C780   N801    1.367   .     A
C780   H796    1.081   .     S
C781   N802    1.367   .     A
C781   H797    1.082   .     S
C781   C856    1.415   .     S
C782   O808    1.289   .     A
C782   O807    1.290   .     A
C783   O809    1.290   .     A
C783   O810    1.294   .     A
C783   C785    1.461   .     S
C786   C787    1.385   .     A
C786   F813    1.358   .     S
C787   C104    1.395   1_556 S
C787   F141    1.358   1_556 S
C788   O814    1.382   .     S
Cu789  O809    1.946   .     S
Cu789  O807    1.967   .     S
Cu789  O803    1.965   .     S
Cu789  O805    1.961   .     S
Cu789  Cu790   2.673   .     S
Cu789  N801    2.008   .     S
Cu790  O808    1.965   .     S
Cu790  O810    1.961   .     S
Cu790  O804    1.967   .     S
Cu790  O806    1.946   .     S
Cu790  N802    2.008   .     S
F812   C100    1.358   1_556 S
O814   C815    1.412   .     S
C815   H816    1.115   .     S
C815   H817    1.115   .     S
C815   C818    1.529   .     S
C818   H820    1.112   .     S
C818   C821    1.526   .     S
C818   H819    1.112   .     S
C821   H824    1.111   .     S
C821   H1278   1.111   1_545 S
C821   H1279   1.110   1_545 S
H822   C1049   1.111   .     S
H823   C1049   1.110   .     S
O826   C827    1.419   .     S
C827   H828    1.111   .     S
C827   H829    1.114   .     S
C827   C830    1.533   .     S
C830   H831    1.111   .     S
C830   H832    1.111   .     S
C830   C909    1.526   .     S
C833   H834    1.111   .     S
C833   H835    1.110   .     S
C833   H836    1.111   .     S
C837   O879    1.295   .     A
C837   O880    1.287   .     A
C837   C853    1.455   .     S
C838   C839    1.422   .     A
C838   C156    1.430   1_556 S
C838   C180    1.434   1_556 S
C839   C843    1.412   .     A
C839   C846    1.420   .     A
C840   C844    1.396   .     A
C841   C842    1.390   .     A
C841   C156    1.421   1_556 S
C841   C176    1.408   1_556 S
C842   H874    1.084   .     S
C842   C843    1.384   .     A
C843   H876    1.079   .     S
C844   H875    1.073   .     S
C844   C861    1.396   .     A
C845   C861    1.398   .     A
C845   C860    1.393   .     A
C845   H867    1.083   .     S
C846   C862    1.405   .     A
C846   C848    1.478   .     S
C847   O902    1.389   .     S
C847   C853    1.415   .     A
C847   C1077   1.390   .     S
C848   O882    1.296   .     A
C848   O881    1.296   .     A
C849   H868    1.084   .     S
C849   C850    1.398   .     A
C849   C1303   1.390   1_545 S
C850   C858    1.447   .     S
C850   C851    1.397   .     A
C851   H869    1.083   .     S
C851   C1308   1.382   1_545 S
C852   H870    1.083   .     S
C852   C853    1.403   .     A
C852   C1079   1.382   .     S
C854   N878    1.365   .     A
C854   H871    1.080   .     S
C854   C703    1.414   1_655 S
C855   F887    1.355   .     S
C855   N877    1.368   .     A
C856   N877    1.367   .     A
C856   H872    1.081   .     S
C857   N878    1.367   .     A
C857   H873    1.082   .     S
C857   C704    1.415   1_655 S
C858   O884    1.289   .     A
C858   O883    1.290   .     A
C859   O885    1.290   .     A
C859   O886    1.294   .     A
C859   C861    1.461   .     S
C862   C863    1.385   .     A
C862   F889    1.358   .     S
C863   C180    1.395   1_556 S
C863   F217    1.358   1_556 S
C864   O890    1.382   .     S
Cu865  O885    1.946   .     S
Cu865  O883    1.967   .     S
Cu865  O879    1.965   .     S
Cu865  O881    1.961   .     S
Cu865  Cu866   2.673   .     S
Cu865  N877    2.008   .     S
Cu866  O884    1.965   .     S
Cu866  O886    1.961   .     S
Cu866  O880    1.967   .     S
Cu866  O882    1.946   .     S
Cu866  N878    2.008   .     S
F888   C176    1.358   1_556 S
O890   C891    1.412   .     S
C891   H892    1.115   .     S
C891   H893    1.115   .     S
C891   C894    1.529   .     S
C894   H896    1.112   .     S
C894   C897    1.526   .     S
C894   H895    1.112   .     S
C897   H900    1.111   .     S
C897   H1354   1.111   1_545 S
C897   H1355   1.110   1_545 S
H898   C1125   1.111   .     S
H899   C1125   1.110   .     S
O902   C903    1.419   .     S
C903   H904    1.111   .     S
C903   H905    1.114   .     S
C903   C906    1.533   .     S
C906   H907    1.111   .     S
C906   H908    1.111   .     S
C906   C757    1.526   1_655 S
C909   H910    1.111   .     S
C909   H911    1.110   .     S
C909   H912    1.111   .     S
C913   O955    1.295   .     A
C913   O956    1.287   .     A
C913   C929    1.455   .     S
C914   C915    1.422   .     A
C914   C232    1.430   1_556 S
C914   C256    1.434   1_556 S
C915   C919    1.412   .     A
C915   C922    1.420   .     A
C916   C920    1.396   .     A
C917   C918    1.390   .     A
C917   C232    1.421   1_556 S
C917   C252    1.408   1_556 S
C918   H950    1.084   .     S
C918   C919    1.384   .     A
C919   H952    1.079   .     S
C920   H951    1.073   .     S
C920   C937    1.396   .     A
C921   C937    1.398   .     A
C921   C936    1.393   .     A
C921   H943    1.083   .     S
C922   C938    1.405   .     A
C922   C924    1.478   .     S
C923   O978    1.389   .     S
C923   C929    1.415   .     A
C923   C1153   1.390   .     S
C924   O958    1.296   .     A
C924   O957    1.296   .     A
C925   H944    1.084   .     S
C925   C926    1.398   .     A
C926   C934    1.447   .     S
C926   C927    1.397   .     A
C927   H945    1.083   .     S
C928   H946    1.083   .     S
C928   C929    1.403   .     A
C928   C1155   1.382   .     S
C930   N954    1.365   .     A
C930   H947    1.080   .     S
C930   C1007   1.414   .     S
C931   F963    1.355   .     S
C931   N953    1.368   .     A
C931   C1082   1.414   1_455 S
C932   N953    1.367   .     A
C932   H948    1.081   .     S
C932   C1085   1.415   1_455 S
C933   N954    1.367   .     A
C933   H949    1.082   .     S
C933   C1008   1.415   .     S
C934   O960    1.289   .     A
C934   O959    1.290   .     A
C935   O961    1.290   .     A
C935   O962    1.294   .     A
C935   C937    1.461   .     S
C938   C939    1.385   .     A
C938   F965    1.358   .     S
C939   C256    1.395   1_556 S
C939   F293    1.358   1_556 S
C940   O966    1.382   .     S
Cu941  O961    1.946   .     S
Cu941  O959    1.967   .     S
Cu941  O955    1.965   .     S
Cu941  O957    1.961   .     S
Cu941  Cu942   2.673   .     S
Cu941  N953    2.008   .     S
Cu942  O960    1.965   .     S
Cu942  O962    1.961   .     S
Cu942  O956    1.967   .     S
Cu942  O958    1.946   .     S
Cu942  N954    2.008   .     S
F964   C252    1.358   1_556 S
O966   C967    1.412   .     S
C967   H968    1.115   .     S
C967   H969    1.115   .     S
C967   C970    1.529   .     S
C970   H972    1.112   .     S
C970   C973    1.526   .     S
C970   H971    1.112   .     S
C973   H976    1.111   .     S
H974   C1201   1.111   .     S
H975   C1201   1.110   .     S
O978   C979    1.419   .     S
C979   H980    1.111   .     S
C979   H981    1.114   .     S
C979   C982    1.533   .     S
C982   H983    1.111   .     S
C982   H984    1.111   .     S
C982   C1061   1.526   .     S
C985   H986    1.111   .     S
C985   H987    1.110   .     S
C985   H988    1.111   .     S
C985   C1134   1.526   1_455 S
C989   O1031   1.295   .     A
C989   O1032   1.287   .     A
C989   C1005   1.455   .     S
C990   C991    1.422   .     A
C990   C308    1.430   1_556 S
C990   C332    1.434   1_556 S
C991   C995    1.412   .     A
C991   C998    1.420   .     A
C992   C996    1.396   .     A
C993   C994    1.390   .     A
C993   C308    1.421   1_556 S
C993   C328    1.408   1_556 S
C994   H1026   1.084   .     S
C994   C995    1.384   .     A
C995   H1028   1.079   .     S
C996   H1027   1.073   .     S
C996   C1013   1.396   .     A
C997   C1013   1.398   .     A
C997   C1012   1.393   .     A
C997   H1019   1.083   .     S
C998   C1014   1.405   .     A
C998   C1000   1.478   .     S
C999   O1054   1.389   .     S
C999   C1005   1.415   .     A
C999   C1229   1.390   .     S
C1000  O1034   1.296   .     A
C1000  O1033   1.296   .     A
C1001  H1020   1.084   .     S
C1001  C1002   1.398   .     A
C1002  C1010   1.447   .     S
C1002  C1003   1.397   .     A
C1003  H1021   1.083   .     S
C1004  H1022   1.083   .     S
C1004  C1005   1.403   .     A
C1004  C1231   1.382   .     S
C1006  N1030   1.365   .     A
C1006  H1023   1.080   .     S
C1006  C1083   1.414   .     S
C1007  F1039   1.355   .     S
C1007  N1029   1.368   .     A
C1008  N1029   1.367   .     A
C1008  H1024   1.081   .     S
C1009  N1030   1.367   .     A
C1009  H1025   1.082   .     S
C1009  C1084   1.415   .     S
C1010  O1036   1.289   .     A
C1010  O1035   1.290   .     A
C1011  O1037   1.290   .     A
C1011  O1038   1.294   .     A
C1011  C1013   1.461   .     S
C1014  C1015   1.385   .     A
C1014  F1041   1.358   .     S
C1015  C332    1.395   1_556 S
C1015  F369    1.358   1_556 S
C1016  O1042   1.382   .     S
Cu1017 O1037   1.946   .     S
Cu1017 O1035   1.967   .     S
Cu1017 O1031   1.965   .     S
Cu1017 O1033   1.961   .     S
Cu1017 Cu1018  2.673   .     S
Cu1017 N1029   2.008   .     S
Cu1018 O1036   1.965   .     S
Cu1018 O1038   1.961   .     S
Cu1018 O1032   1.967   .     S
Cu1018 O1034   1.946   .     S
Cu1018 N1030   2.008   .     S
F1040  C328    1.358   1_556 S
O1042  C1043   1.412   .     S
C1043  H1044   1.115   .     S
C1043  H1045   1.115   .     S
C1043  C1046   1.529   .     S
C1046  H1048   1.112   .     S
C1046  C1049   1.526   .     S
C1046  H1047   1.112   .     S
C1049  H1052   1.111   .     S
H1050  C1277   1.111   .     S
H1051  C1277   1.110   .     S
O1054  C1055   1.419   .     S
C1055  H1056   1.111   .     S
C1055  H1057   1.114   .     S
C1055  C1058   1.533   .     S
C1058  H1059   1.111   .     S
C1058  H1060   1.111   .     S
C1058  C1137   1.526   .     S
C1061  H1062   1.111   .     S
C1061  H1063   1.110   .     S
C1061  H1064   1.111   .     S
C1065  O1107   1.295   .     A
C1065  O1108   1.287   .     A
C1065  C1081   1.455   .     S
C1066  C1067   1.422   .     A
C1066  C384    1.430   1_556 S
C1066  C408    1.434   1_556 S
C1067  C1071   1.412   .     A
C1067  C1074   1.420   .     A
C1068  C1072   1.396   .     A
C1069  C1070   1.390   .     A
C1069  C384    1.421   1_556 S
C1069  C404    1.408   1_556 S
C1070  H1102   1.084   .     S
C1070  C1071   1.384   .     A
C1071  H1104   1.079   .     S
C1072  H1103   1.073   .     S
C1072  C1089   1.396   .     A
C1073  C1089   1.398   .     A
C1073  C1088   1.393   .     A
C1073  H1095   1.083   .     S
C1074  C1090   1.405   .     A
C1074  C1076   1.478   .     S
C1075  O1130   1.389   .     S
C1075  C1081   1.415   .     A
C1075  C1305   1.390   .     S
C1076  O1110   1.296   .     A
C1076  O1109   1.296   .     A
C1077  H1096   1.084   .     S
C1077  C1078   1.398   .     A
C1078  C1086   1.447   .     S
C1078  C1079   1.397   .     A
C1079  H1097   1.083   .     S
C1080  H1098   1.083   .     S
C1080  C1081   1.403   .     A
C1080  C1307   1.382   .     S
C1082  N1106   1.365   .     A
C1082  H1099   1.080   .     S
C1082  C931    1.414   1_655 S
C1083  F1115   1.355   .     S
C1083  N1105   1.368   .     A
C1084  N1105   1.367   .     A
C1084  H1100   1.081   .     S
C1085  N1106   1.367   .     A
C1085  H1101   1.082   .     S
C1085  C932    1.415   1_655 S
C1086  O1112   1.289   .     A
C1086  O1111   1.290   .     A
C1087  O1113   1.290   .     A
C1087  O1114   1.294   .     A
C1087  C1089   1.461   .     S
C1090  C1091   1.385   .     A
C1090  F1117   1.358   .     S
C1091  C408    1.395   1_556 S
C1091  F445    1.358   1_556 S
C1092  O1118   1.382   .     S
Cu1093 O1113   1.946   .     S
Cu1093 O1111   1.967   .     S
Cu1093 O1107   1.965   .     S
Cu1093 O1109   1.961   .     S
Cu1093 Cu1094  2.673   .     S
Cu1093 N1105   2.008   .     S
Cu1094 O1112   1.965   .     S
Cu1094 O1114   1.961   .     S
Cu1094 O1108   1.967   .     S
Cu1094 O1110   1.946   .     S
Cu1094 N1106   2.008   .     S
F1116  C404    1.358   1_556 S
O1118  C1119   1.412   .     S
C1119  H1120   1.115   .     S
C1119  H1121   1.115   .     S
C1119  C1122   1.529   .     S
C1122  H1124   1.112   .     S
C1122  C1125   1.526   .     S
C1122  H1123   1.112   .     S
C1125  H1128   1.111   .     S
H1126  C1353   1.111   .     S
H1127  C1353   1.110   .     S
O1130  C1131   1.419   .     S
C1131  H1132   1.111   .     S
C1131  H1133   1.114   .     S
C1131  C1134   1.533   .     S
C1134  H1135   1.111   .     S
C1134  H1136   1.111   .     S
C1134  C985    1.526   1_655 S
C1137  H1138   1.111   .     S
C1137  H1139   1.110   .     S
C1137  H1140   1.111   .     S
C1141  O1183   1.295   .     A
C1141  O1184   1.287   .     A
C1141  C1157   1.455   .     S
C1142  C1143   1.422   .     A
C1142  C460    1.430   1_556 S
C1142  C484    1.434   1_556 S
C1143  C1147   1.412   .     A
C1143  C1150   1.420   .     A
C1144  C1148   1.396   .     A
C1145  C1146   1.390   .     A
C1145  C460    1.421   1_556 S
C1145  C480    1.408   1_556 S
C1146  H1178   1.084   .     S
C1146  C1147   1.384   .     A
C1147  H1180   1.079   .     S
C1148  H1179   1.073   .     S
C1148  C1165   1.396   .     A
C1149  C1165   1.398   .     A
C1149  C1164   1.393   .     A
C1149  H1171   1.083   .     S
C1150  C1166   1.405   .     A
C1150  C1152   1.478   .     S
C1151  O1206   1.389   .     S
C1151  C1157   1.415   .     A
C1151  C697    1.390   1_565 S
C1152  O1186   1.296   .     A
C1152  O1185   1.296   .     A
C1153  H1172   1.084   .     S
C1153  C1154   1.398   .     A
C1154  C1162   1.447   .     S
C1154  C1155   1.397   .     A
C1155  H1173   1.083   .     S
C1156  H1174   1.083   .     S
C1156  C1157   1.403   .     A
C1156  C699    1.382   1_565 S
C1158  N1182   1.365   .     A
C1158  H1175   1.080   .     S
C1158  C1235   1.414   .     S
C1159  F1191   1.355   .     S
C1159  N1181   1.368   .     A
C1159  C1310   1.414   1_455 S
C1160  N1181   1.367   .     A
C1160  H1176   1.081   .     S
C1160  C1313   1.415   1_455 S
C1161  N1182   1.367   .     A
C1161  H1177   1.082   .     S
C1161  C1236   1.415   .     S
C1162  O1188   1.289   .     A
C1162  O1187   1.290   .     A
C1163  O1189   1.290   .     A
C1163  O1190   1.294   .     A
C1163  C1165   1.461   .     S
C1166  C1167   1.385   .     A
C1166  F1193   1.358   .     S
C1167  C484    1.395   1_556 S
C1167  F521    1.358   1_556 S
C1168  O1194   1.382   .     S
Cu1169 O1189   1.946   .     S
Cu1169 O1187   1.967   .     S
Cu1169 O1183   1.965   .     S
Cu1169 O1185   1.961   .     S
Cu1169 Cu1170  2.673   .     S
Cu1169 N1181   2.008   .     S
Cu1170 O1188   1.965   .     S
Cu1170 O1190   1.961   .     S
Cu1170 O1184   1.967   .     S
Cu1170 O1186   1.946   .     S
Cu1170 N1182   2.008   .     S
F1192  C480    1.358   1_556 S
O1194  C1195   1.412   .     S
C1195  H1196   1.115   .     S
C1195  H1197   1.115   .     S
C1195  C1198   1.529   .     S
C1198  H1200   1.112   .     S
C1198  C1201   1.526   .     S
C1198  H1199   1.112   .     S
C1201  H1204   1.111   .     S
H1202  C745    1.111   1_565 S
H1203  C745    1.110   1_565 S
O1206  C1207   1.419   .     S
C1207  H1208   1.111   .     S
C1207  H1209   1.114   .     S
C1207  C1210   1.533   .     S
C1210  H1211   1.111   .     S
C1210  H1212   1.111   .     S
C1210  C1289   1.526   .     S
C1213  H1214   1.111   .     S
C1213  H1215   1.110   .     S
C1213  H1216   1.111   .     S
C1213  C1362   1.526   1_455 S
C1217  O1259   1.295   .     A
C1217  O1260   1.287   .     A
C1217  C1233   1.455   .     S
C1218  C1219   1.422   .     A
C1218  C536    1.430   1_556 S
C1218  C560    1.434   1_556 S
C1219  C1223   1.412   .     A
C1219  C1226   1.420   .     A
C1220  C1224   1.396   .     A
C1221  C1222   1.390   .     A
C1221  C536    1.421   1_556 S
C1221  C556    1.408   1_556 S
C1222  H1254   1.084   .     S
C1222  C1223   1.384   .     A
C1223  H1256   1.079   .     S
C1224  H1255   1.073   .     S
C1224  C1241   1.396   .     A
C1225  C1241   1.398   .     A
C1225  C1240   1.393   .     A
C1225  H1247   1.083   .     S
C1226  C1242   1.405   .     A
C1226  C1228   1.478   .     S
C1227  O1282   1.389   .     S
C1227  C1233   1.415   .     A
C1227  C773    1.390   1_565 S
C1228  O1262   1.296   .     A
C1228  O1261   1.296   .     A
C1229  H1248   1.084   .     S
C1229  C1230   1.398   .     A
C1230  C1238   1.447   .     S
C1230  C1231   1.397   .     A
C1231  H1249   1.083   .     S
C1232  H1250   1.083   .     S
C1232  C1233   1.403   .     A
C1232  C775    1.382   1_565 S
C1234  N1258   1.365   .     A
C1234  H1251   1.080   .     S
C1234  C1311   1.414   .     S
C1235  F1267   1.355   .     S
C1235  N1257   1.368   .     A
C1236  N1257   1.367   .     A
C1236  H1252   1.081   .     S
C1237  N1258   1.367   .     A
C1237  H1253   1.082   .     S
C1237  C1312   1.415   .     S
C1238  O1264   1.289   .     A
C1238  O1263   1.290   .     A
C1239  O1265   1.290   .     A
C1239  O1266   1.294   .     A
C1239  C1241   1.461   .     S
C1242  C1243   1.385   .     A
C1242  F1269   1.358   .     S
C1243  C560    1.395   1_556 S
C1243  F597    1.358   1_556 S
C1244  O1270   1.382   .     S
Cu1245 O1265   1.946   .     S
Cu1245 O1263   1.967   .     S
Cu1245 O1259   1.965   .     S
Cu1245 O1261   1.961   .     S
Cu1245 Cu1246  2.673   .     S
Cu1245 N1257   2.008   .     S
Cu1246 O1264   1.965   .     S
Cu1246 O1266   1.961   .     S
Cu1246 O1260   1.967   .     S
Cu1246 O1262   1.946   .     S
Cu1246 N1258   2.008   .     S
F1268  C556    1.358   1_556 S
O1270  C1271   1.412   .     S
C1271  H1272   1.115   .     S
C1271  H1273   1.115   .     S
C1271  C1274   1.529   .     S
C1274  H1276   1.112   .     S
C1274  C1277   1.526   .     S
C1274  H1275   1.112   .     S
C1277  H1280   1.111   .     S
H1278  C821    1.111   1_565 S
H1279  C821    1.110   1_565 S
O1282  C1283   1.419   .     S
C1283  H1284   1.111   .     S
C1283  H1285   1.114   .     S
C1283  C1286   1.533   .     S
C1286  H1287   1.111   .     S
C1286  H1288   1.111   .     S
C1286  C1365   1.526   .     S
C1289  H1290   1.111   .     S
C1289  H1291   1.110   .     S
C1289  H1292   1.111   .     S
C1293  O1335   1.295   .     A
C1293  O1336   1.287   .     A
C1293  C1309   1.455   .     S
C1294  C1295   1.422   .     A
C1294  C612    1.430   1_556 S
C1294  C636    1.434   1_556 S
C1295  C1299   1.412   .     A
C1295  C1302   1.420   .     A
C1296  C1300   1.396   .     A
C1297  C1298   1.390   .     A
C1297  C612    1.421   1_556 S
C1297  C632    1.408   1_556 S
C1298  H1330   1.084   .     S
C1298  C1299   1.384   .     A
C1299  H1332   1.079   .     S
C1300  H1331   1.073   .     S
C1300  C1317   1.396   .     A
C1301  C1317   1.398   .     A
C1301  C1316   1.393   .     A
C1301  H1323   1.083   .     S
C1302  C1318   1.405   .     A
C1302  C1304   1.478   .     S
C1303  O1358   1.389   .     S
C1303  C1309   1.415   .     A
C1303  C849    1.390   1_565 S
C1304  O1338   1.296   .     A
C1304  O1337   1.296   .     A
C1305  H1324   1.084   .     S
C1305  C1306   1.398   .     A
C1306  C1314   1.447   .     S
C1306  C1307   1.397   .     A
C1307  H1325   1.083   .     S
C1308  H1326   1.083   .     S
C1308  C1309   1.403   .     A
C1308  C851    1.382   1_565 S
C1310  N1334   1.365   .     A
C1310  H1327   1.080   .     S
C1310  C1159   1.414   1_655 S
C1311  F1343   1.355   .     S
C1311  N1333   1.368   .     A
C1312  N1333   1.367   .     A
C1312  H1328   1.081   .     S
C1313  N1334   1.367   .     A
C1313  H1329   1.082   .     S
C1313  C1160   1.415   1_655 S
C1314  O1340   1.289   .     A
C1314  O1339   1.290   .     A
C1315  O1341   1.290   .     A
C1315  O1342   1.294   .     A
C1315  C1317   1.461   .     S
C1318  C1319   1.385   .     A
C1318  F1345   1.358   .     S
C1319  C636    1.395   1_556 S
C1319  F673    1.358   1_556 S
C1320  O1346   1.382   .     S
Cu1321 O1341   1.946   .     S
Cu1321 O1339   1.967   .     S
Cu1321 O1335   1.965   .     S
Cu1321 O1337   1.961   .     S
Cu1321 Cu1322  2.673   .     S
Cu1321 N1333   2.008   .     S
Cu1322 O1340   1.965   .     S
Cu1322 O1342   1.961   .     S
Cu1322 O1336   1.967   .     S
Cu1322 O1338   1.946   .     S
Cu1322 N1334   2.008   .     S
F1344  C632    1.358   1_556 S
O1346  C1347   1.412   .     S
C1347  H1348   1.115   .     S
C1347  H1349   1.115   .     S
C1347  C1350   1.529   .     S
C1350  H1352   1.112   .     S
C1350  C1353   1.526   .     S
C1350  H1351   1.112   .     S
C1353  H1356   1.111   .     S
H1354  C897    1.111   1_565 S
H1355  C897    1.110   1_565 S
O1358  C1359   1.419   .     S
C1359  H1360   1.111   .     S
C1359  H1361   1.114   .     S
C1359  C1362   1.533   .     S
C1362  H1363   1.111   .     S
C1362  H1364   1.111   .     S
C1362  C1213   1.526   1_655 S
C1365  H1366   1.111   .     S
C1365  H1367   1.110   .     S
C1365  H1368   1.111   .     S
