data_str_m2_o1_o16_pcu_sym.100
_audit_creation_date              2020-01-03
_audit_creation_method            'Materials Studio'
_symmetry_space_group_name_H-M    'P1'
_symmetry_Int_Tables_number       1
_symmetry_cell_setting            triclinic
loop_
_symmetry_equiv_pos_as_xyz
  x,y,z
_cell_length_a                    28.5770
_cell_length_b                    32.6055
_cell_length_c                    26.8856
_cell_angle_alpha                 90.2279
_cell_angle_beta                  71.8246
_cell_angle_gamma                 88.8889
loop_
_atom_site_label
_atom_site_type_symbol
_atom_site_fract_x
_atom_site_fract_y
_atom_site_fract_z
_atom_site_U_iso_or_equiv
_atom_site_adp_type
_atom_site_occupancy
Br1    Br    0.02213   0.18810   0.41137   0.00000  Uiso   1.00
C2     C     0.16628   0.24585   0.24994   0.00000  Uiso   1.00
C3     C     0.12346   0.16244   0.40887   0.00000  Uiso   1.00
C4     C     0.21108   0.30993   0.23468   0.00000  Uiso   1.00
C5     C     0.14004   0.16480   0.35054   0.00000  Uiso   1.00
C6     C     0.21292   0.01903   0.23548   0.00000  Uiso   1.00
C7     C     0.16834   0.04242   0.25032   0.00000  Uiso   1.00
C8     C     0.12324   0.02215   0.26531   0.00000  Uiso   1.00
C9     C     0.12200   0.31301   0.26439   0.00000  Uiso   1.00
C10    C     0.16610   0.29022   0.24921   0.00000  Uiso   1.00
C11    C     0.29760   0.18972   0.28560   0.00000  Uiso   1.00
C12    C     0.01398   0.19018   0.28498   0.00000  Uiso   1.00
C13    C     0.14532   0.15956   0.49046   0.00000  Uiso   1.00
C14    C     0.03614   0.14530   0.21277   0.00000  Uiso   1.00
C15    C     0.31987   0.14528   0.21279   0.00000  Uiso   1.00
C16    C     0.16723   0.08727   0.25003   0.00000  Uiso   1.00
C17    C     0.19323   0.16577   0.14984   0.00000  Uiso   1.00
C18    C     0.26414   0.12999   0.01322   0.00000  Uiso   1.00
C19    C     0.20883   0.15992   0.09291   0.00000  Uiso   1.00
C20    C     0.07472   0.17469   0.43891   0.00000  Uiso   1.00
C21    C     0.06178   0.17787   0.49301   0.00000  Uiso   1.00
C22    C     0.09641   0.17145   0.01844   0.00000  Uiso   1.00
C23    C     0.26256   0.03597   0.22345   0.00000  Uiso   1.00
C24    C     0.15738   0.15083   0.43606   0.00000  Uiso   1.00
C25    C     0.29527   0.03295   0.17224   0.00000  Uiso   1.00
C26    C     0.01215   0.03942   0.16272   0.00000  Uiso   1.00
C27    C     0.02989   0.04862   0.20427   0.00000  Uiso   1.00
C28    C     0.33054   0.05288   0.25513   0.00000  Uiso   1.00
C29    C     0.28040   0.04635   0.26479   0.00000  Uiso   1.00
C30    C     0.18211   0.15472   0.01547   0.00000  Uiso   1.00
C31    C     0.22819   0.13605   0.48812   0.00000  Uiso   1.00
C32    C     0.23726   0.12272   0.43659   0.00000  Uiso   1.00
C33    C     0.20236   0.12963   0.41109   0.00000  Uiso   1.00
C34    C     0.17438   0.16819   0.06705   0.00000  Uiso   1.00
C35    C     0.25431   0.14148   0.06562   0.00000  Uiso   1.00
Cu36   Cu    0.11978   0.16666   0.25000   0.00000  Uiso   1.00
Cu37   Cu    0.21355   0.16667   0.25000   0.00000  Uiso   1.00
H38    H     0.28142   0.13469   0.08517   0.00000  Uiso   1.00
H39    H     0.14147   0.18515   0.08842   0.00000  Uiso   1.00
H40    H     0.08306   0.17442   0.06049   0.00000  Uiso   1.00
H41    H     0.02442   0.18651   0.01584   0.00000  Uiso   1.00
H42    H     0.21058   0.11644   0.37234   0.00000  Uiso   1.00
H43    H     0.24535   0.29215   0.22330   0.00000  Uiso   1.00
H44    H     0.28218   0.02388   0.14019   0.00000  Uiso   1.00
H45    H     0.03742   0.03653   0.12334   0.00000  Uiso   1.00
H46    H     0.06886   0.05322   0.19677   0.00000  Uiso   1.00
H47    H     0.01048   0.06107   0.28726   0.00000  Uiso   1.00
H48    H     0.25578   0.04784   0.30465   0.00000  Uiso   1.00
H49    H     0.08883   0.03919   0.27878   0.00000  Uiso   1.00
H50    H     0.08674   0.29808   0.27653   0.00000  Uiso   1.00
H51    H     0.27026   0.20833   0.31407   0.00000  Uiso   1.00
H52    H     0.02432   0.21013   0.31166   0.00000  Uiso   1.00
H53    H     0.06393   0.12829   0.18281   0.00000  Uiso   1.00
H54    H     0.31023   0.12797   0.18314   0.00000  Uiso   1.00
H55    H     0.27152   0.10686   0.41582   0.00000  Uiso   1.00
H56    H     0.29931   0.11538   0.49273   0.00000  Uiso   1.00
N57    N     0.04931   0.16666   0.24998   0.00000  Uiso   1.00
N58    N     0.28402   0.16669   0.25000   0.00000  Uiso   1.00
O59    O     0.12708   0.22678   0.25001   0.00000  Uiso   1.00
O60    O     0.20627   0.22679   0.25001   0.00000  Uiso   1.00
O61    O     0.10775   0.16665   0.32549   0.00000  Uiso   1.00
O62    O     0.18694   0.16666   0.32549   0.00000  Uiso   1.00
O63    O     0.12706   0.10654   0.25000   0.00000  Uiso   1.00
O64    O     0.20625   0.10655   0.25000   0.00000  Uiso   1.00
O65    O     0.14640   0.16667   0.17451   0.00000  Uiso   1.00
O66    O     0.22559   0.16668   0.17451   0.00000  Uiso   1.00
Br67   Br    0.35547   0.18810   0.41137   0.00000  Uiso   1.00
C68    C     0.49961   0.24585   0.24994   0.00000  Uiso   1.00
C69    C     0.45679   0.16244   0.40887   0.00000  Uiso   1.00
C70    C     0.54441   0.30993   0.23468   0.00000  Uiso   1.00
C71    C     0.47337   0.16480   0.35054   0.00000  Uiso   1.00
C72    C     0.54625   0.01903   0.23548   0.00000  Uiso   1.00
C73    C     0.50167   0.04242   0.25032   0.00000  Uiso   1.00
C74    C     0.45658   0.02215   0.26531   0.00000  Uiso   1.00
C75    C     0.45533   0.31301   0.26439   0.00000  Uiso   1.00
C76    C     0.49944   0.29022   0.24921   0.00000  Uiso   1.00
C77    C     0.63094   0.18972   0.28560   0.00000  Uiso   1.00
C78    C     0.34732   0.19018   0.28498   0.00000  Uiso   1.00
C79    C     0.47865   0.15956   0.49046   0.00000  Uiso   1.00
C80    C     0.36947   0.14530   0.21277   0.00000  Uiso   1.00
C81    C     0.65320   0.14528   0.21279   0.00000  Uiso   1.00
C82    C     0.50056   0.08727   0.25003   0.00000  Uiso   1.00
C83    C     0.52656   0.16577   0.14984   0.00000  Uiso   1.00
C84    C     0.59748   0.12999   0.01322   0.00000  Uiso   1.00
C85    C     0.54216   0.15992   0.09291   0.00000  Uiso   1.00
C86    C     0.40806   0.17469   0.43891   0.00000  Uiso   1.00
C87    C     0.39511   0.17787   0.49301   0.00000  Uiso   1.00
C88    C     0.42975   0.17145   0.01844   0.00000  Uiso   1.00
C89    C     0.59589   0.03597   0.22345   0.00000  Uiso   1.00
C90    C     0.49071   0.15083   0.43606   0.00000  Uiso   1.00
C91    C     0.62861   0.03295   0.17224   0.00000  Uiso   1.00
C92    C     0.34548   0.03942   0.16272   0.00000  Uiso   1.00
C93    C     0.36323   0.04862   0.20427   0.00000  Uiso   1.00
C94    C     0.66387   0.05288   0.25513   0.00000  Uiso   1.00
C95    C     0.61374   0.04635   0.26479   0.00000  Uiso   1.00
C96    C     0.51545   0.15472   0.01547   0.00000  Uiso   1.00
C97    C     0.56152   0.13605   0.48812   0.00000  Uiso   1.00
C98    C     0.57059   0.12272   0.43659   0.00000  Uiso   1.00
C99    C     0.53569   0.12963   0.41109   0.00000  Uiso   1.00
C100   C     0.50772   0.16819   0.06705   0.00000  Uiso   1.00
C101   C     0.58764   0.14148   0.06562   0.00000  Uiso   1.00
Cu102  Cu    0.45311   0.16666   0.25000   0.00000  Uiso   1.00
Cu103  Cu    0.54689   0.16667   0.25000   0.00000  Uiso   1.00
H104   H     0.61475   0.13469   0.08517   0.00000  Uiso   1.00
H105   H     0.47480   0.18515   0.08842   0.00000  Uiso   1.00
H106   H     0.41639   0.17442   0.06049   0.00000  Uiso   1.00
H107   H     0.35775   0.18651   0.01584   0.00000  Uiso   1.00
H108   H     0.54391   0.11644   0.37234   0.00000  Uiso   1.00
H109   H     0.57868   0.29215   0.22330   0.00000  Uiso   1.00
H110   H     0.61551   0.02388   0.14019   0.00000  Uiso   1.00
H111   H     0.37076   0.03653   0.12334   0.00000  Uiso   1.00
H112   H     0.40219   0.05322   0.19677   0.00000  Uiso   1.00
H113   H     0.34382   0.06107   0.28726   0.00000  Uiso   1.00
H114   H     0.58911   0.04784   0.30465   0.00000  Uiso   1.00
H115   H     0.42216   0.03919   0.27878   0.00000  Uiso   1.00
H116   H     0.42007   0.29808   0.27653   0.00000  Uiso   1.00
H117   H     0.60359   0.20833   0.31407   0.00000  Uiso   1.00
H118   H     0.35766   0.21013   0.31166   0.00000  Uiso   1.00
H119   H     0.39727   0.12829   0.18281   0.00000  Uiso   1.00
H120   H     0.64356   0.12797   0.18314   0.00000  Uiso   1.00
H121   H     0.60486   0.10686   0.41582   0.00000  Uiso   1.00
H122   H     0.63265   0.11538   0.49273   0.00000  Uiso   1.00
N123   N     0.38265   0.16666   0.24998   0.00000  Uiso   1.00
N124   N     0.61735   0.16669   0.25000   0.00000  Uiso   1.00
O125   O     0.46042   0.22678   0.25001   0.00000  Uiso   1.00
O126   O     0.53961   0.22679   0.25001   0.00000  Uiso   1.00
O127   O     0.44108   0.16665   0.32549   0.00000  Uiso   1.00
O128   O     0.52027   0.16666   0.32549   0.00000  Uiso   1.00
O129   O     0.46039   0.10654   0.25000   0.00000  Uiso   1.00
O130   O     0.53958   0.10655   0.25000   0.00000  Uiso   1.00
O131   O     0.47973   0.16667   0.17451   0.00000  Uiso   1.00
O132   O     0.55892   0.16668   0.17451   0.00000  Uiso   1.00
Br133  Br    0.68880   0.18810   0.41137   0.00000  Uiso   1.00
C134   C     0.83294   0.24585   0.24994   0.00000  Uiso   1.00
C135   C     0.79012   0.16244   0.40887   0.00000  Uiso   1.00
C136   C     0.87774   0.30993   0.23468   0.00000  Uiso   1.00
C137   C     0.80670   0.16480   0.35054   0.00000  Uiso   1.00
C138   C     0.87959   0.01903   0.23548   0.00000  Uiso   1.00
C139   C     0.83500   0.04242   0.25032   0.00000  Uiso   1.00
C140   C     0.78991   0.02215   0.26531   0.00000  Uiso   1.00
C141   C     0.78866   0.31301   0.26439   0.00000  Uiso   1.00
C142   C     0.83277   0.29022   0.24921   0.00000  Uiso   1.00
C143   C     0.96427   0.18972   0.28560   0.00000  Uiso   1.00
C144   C     0.68065   0.19018   0.28498   0.00000  Uiso   1.00
C145   C     0.81198   0.15956   0.49046   0.00000  Uiso   1.00
C146   C     0.70281   0.14530   0.21277   0.00000  Uiso   1.00
C147   C     0.98653   0.14528   0.21279   0.00000  Uiso   1.00
C148   C     0.83390   0.08727   0.25003   0.00000  Uiso   1.00
C149   C     0.85989   0.16577   0.14984   0.00000  Uiso   1.00
C150   C     0.93081   0.12999   0.01322   0.00000  Uiso   1.00
C151   C     0.87550   0.15992   0.09291   0.00000  Uiso   1.00
C152   C     0.74139   0.17469   0.43891   0.00000  Uiso   1.00
C153   C     0.72844   0.17787   0.49301   0.00000  Uiso   1.00
C154   C     0.76308   0.17145   0.01844   0.00000  Uiso   1.00
C155   C     0.92922   0.03597   0.22345   0.00000  Uiso   1.00
C156   C     0.82404   0.15083   0.43606   0.00000  Uiso   1.00
C157   C     0.96194   0.03295   0.17224   0.00000  Uiso   1.00
C158   C     0.67882   0.03942   0.16272   0.00000  Uiso   1.00
C159   C     0.69656   0.04862   0.20427   0.00000  Uiso   1.00
C160   C     0.99720   0.05288   0.25513   0.00000  Uiso   1.00
C161   C     0.94707   0.04635   0.26479   0.00000  Uiso   1.00
C162   C     0.84878   0.15472   0.01547   0.00000  Uiso   1.00
C163   C     0.89486   0.13605   0.48812   0.00000  Uiso   1.00
C164   C     0.90392   0.12272   0.43659   0.00000  Uiso   1.00
C165   C     0.86903   0.12963   0.41109   0.00000  Uiso   1.00
C166   C     0.84105   0.16819   0.06705   0.00000  Uiso   1.00
C167   C     0.92098   0.14148   0.06562   0.00000  Uiso   1.00
Cu168  Cu    0.78645   0.16666   0.25000   0.00000  Uiso   1.00
Cu169  Cu    0.88022   0.16667   0.25000   0.00000  Uiso   1.00
H170   H     0.94809   0.13469   0.08517   0.00000  Uiso   1.00
H171   H     0.80813   0.18515   0.08842   0.00000  Uiso   1.00
H172   H     0.74972   0.17442   0.06049   0.00000  Uiso   1.00
H173   H     0.69109   0.18651   0.01584   0.00000  Uiso   1.00
H174   H     0.87725   0.11644   0.37234   0.00000  Uiso   1.00
H175   H     0.91202   0.29215   0.22330   0.00000  Uiso   1.00
H176   H     0.94884   0.02388   0.14019   0.00000  Uiso   1.00
H177   H     0.70409   0.03653   0.12334   0.00000  Uiso   1.00
H178   H     0.73553   0.05322   0.19677   0.00000  Uiso   1.00
H179   H     0.67715   0.06107   0.28726   0.00000  Uiso   1.00
H180   H     0.92244   0.04784   0.30465   0.00000  Uiso   1.00
H181   H     0.75549   0.03919   0.27878   0.00000  Uiso   1.00
H182   H     0.75340   0.29808   0.27653   0.00000  Uiso   1.00
H183   H     0.93692   0.20833   0.31407   0.00000  Uiso   1.00
H184   H     0.69099   0.21013   0.31166   0.00000  Uiso   1.00
H185   H     0.73060   0.12829   0.18281   0.00000  Uiso   1.00
H186   H     0.97689   0.12797   0.18314   0.00000  Uiso   1.00
H187   H     0.93819   0.10686   0.41582   0.00000  Uiso   1.00
H188   H     0.96598   0.11538   0.49273   0.00000  Uiso   1.00
N189   N     0.71598   0.16666   0.24998   0.00000  Uiso   1.00
N190   N     0.95069   0.16669   0.25000   0.00000  Uiso   1.00
O191   O     0.79375   0.22678   0.25001   0.00000  Uiso   1.00
O192   O     0.87294   0.22679   0.25001   0.00000  Uiso   1.00
O193   O     0.77441   0.16665   0.32549   0.00000  Uiso   1.00
O194   O     0.85360   0.16666   0.32549   0.00000  Uiso   1.00
O195   O     0.79373   0.10654   0.25000   0.00000  Uiso   1.00
O196   O     0.87292   0.10655   0.25000   0.00000  Uiso   1.00
O197   O     0.81306   0.16667   0.17451   0.00000  Uiso   1.00
O198   O     0.89225   0.16668   0.17451   0.00000  Uiso   1.00
Br199  Br    0.02213   0.52144   0.41137   0.00000  Uiso   1.00
C200   C     0.16628   0.57919   0.24994   0.00000  Uiso   1.00
C201   C     0.12346   0.49577   0.40887   0.00000  Uiso   1.00
C202   C     0.21108   0.64326   0.23468   0.00000  Uiso   1.00
C203   C     0.14004   0.49814   0.35054   0.00000  Uiso   1.00
C204   C     0.21292   0.35236   0.23548   0.00000  Uiso   1.00
C205   C     0.16834   0.37575   0.25032   0.00000  Uiso   1.00
C206   C     0.12324   0.35548   0.26531   0.00000  Uiso   1.00
C207   C     0.12200   0.64634   0.26439   0.00000  Uiso   1.00
C208   C     0.16610   0.62356   0.24921   0.00000  Uiso   1.00
C209   C     0.29760   0.52305   0.28560   0.00000  Uiso   1.00
C210   C     0.01398   0.52351   0.28498   0.00000  Uiso   1.00
C211   C     0.14532   0.49289   0.49046   0.00000  Uiso   1.00
C212   C     0.03614   0.47864   0.21277   0.00000  Uiso   1.00
C213   C     0.31987   0.47861   0.21279   0.00000  Uiso   1.00
C214   C     0.16723   0.42060   0.25003   0.00000  Uiso   1.00
C215   C     0.19323   0.49910   0.14984   0.00000  Uiso   1.00
C216   C     0.26414   0.46333   0.01322   0.00000  Uiso   1.00
C217   C     0.20883   0.49326   0.09291   0.00000  Uiso   1.00
C218   C     0.07472   0.50802   0.43891   0.00000  Uiso   1.00
C219   C     0.06178   0.51120   0.49301   0.00000  Uiso   1.00
C220   C     0.09641   0.50478   0.01844   0.00000  Uiso   1.00
C221   C     0.26256   0.36931   0.22345   0.00000  Uiso   1.00
C222   C     0.15738   0.48416   0.43606   0.00000  Uiso   1.00
C223   C     0.29527   0.36628   0.17224   0.00000  Uiso   1.00
C224   C     0.01215   0.37276   0.16272   0.00000  Uiso   1.00
C225   C     0.02989   0.38195   0.20427   0.00000  Uiso   1.00
C226   C     0.33054   0.38622   0.25513   0.00000  Uiso   1.00
C227   C     0.28040   0.37968   0.26479   0.00000  Uiso   1.00
C228   C     0.18211   0.48805   0.01547   0.00000  Uiso   1.00
C229   C     0.22819   0.46938   0.48812   0.00000  Uiso   1.00
C230   C     0.23726   0.45606   0.43659   0.00000  Uiso   1.00
C231   C     0.20236   0.46296   0.41109   0.00000  Uiso   1.00
C232   C     0.17438   0.50152   0.06705   0.00000  Uiso   1.00
C233   C     0.25431   0.47482   0.06562   0.00000  Uiso   1.00
Cu234  Cu    0.11978   0.49999   0.25000   0.00000  Uiso   1.00
Cu235  Cu    0.21355   0.50001   0.25000   0.00000  Uiso   1.00
H236   H     0.28142   0.46802   0.08517   0.00000  Uiso   1.00
H237   H     0.14147   0.51848   0.08842   0.00000  Uiso   1.00
H238   H     0.08306   0.50775   0.06049   0.00000  Uiso   1.00
H239   H     0.02442   0.51984   0.01584   0.00000  Uiso   1.00
H240   H     0.21058   0.44978   0.37234   0.00000  Uiso   1.00
H241   H     0.24535   0.62549   0.22330   0.00000  Uiso   1.00
H242   H     0.28218   0.35722   0.14019   0.00000  Uiso   1.00
H243   H     0.03742   0.36986   0.12334   0.00000  Uiso   1.00
H244   H     0.06886   0.38656   0.19677   0.00000  Uiso   1.00
H245   H     0.01048   0.39440   0.28726   0.00000  Uiso   1.00
H246   H     0.25578   0.38117   0.30465   0.00000  Uiso   1.00
H247   H     0.08883   0.37253   0.27878   0.00000  Uiso   1.00
H248   H     0.08674   0.63141   0.27653   0.00000  Uiso   1.00
H249   H     0.27026   0.54166   0.31407   0.00000  Uiso   1.00
H250   H     0.02432   0.54347   0.31166   0.00000  Uiso   1.00
H251   H     0.06393   0.46162   0.18281   0.00000  Uiso   1.00
H252   H     0.31023   0.46130   0.18314   0.00000  Uiso   1.00
H253   H     0.27152   0.44019   0.41582   0.00000  Uiso   1.00
H254   H     0.29931   0.44871   0.49273   0.00000  Uiso   1.00
N255   N     0.04931   0.49999   0.24998   0.00000  Uiso   1.00
N256   N     0.28402   0.50002   0.25000   0.00000  Uiso   1.00
O257   O     0.12708   0.56011   0.25001   0.00000  Uiso   1.00
O258   O     0.20627   0.56012   0.25001   0.00000  Uiso   1.00
O259   O     0.10775   0.49998   0.32549   0.00000  Uiso   1.00
O260   O     0.18694   0.49999   0.32549   0.00000  Uiso   1.00
O261   O     0.12706   0.43988   0.25000   0.00000  Uiso   1.00
O262   O     0.20625   0.43989   0.25000   0.00000  Uiso   1.00
O263   O     0.14640   0.50001   0.17451   0.00000  Uiso   1.00
O264   O     0.22559   0.50002   0.17451   0.00000  Uiso   1.00
Br265  Br    0.35547   0.52144   0.41137   0.00000  Uiso   1.00
C266   C     0.49961   0.57919   0.24994   0.00000  Uiso   1.00
C267   C     0.45679   0.49577   0.40887   0.00000  Uiso   1.00
C268   C     0.54441   0.64326   0.23468   0.00000  Uiso   1.00
C269   C     0.47337   0.49814   0.35054   0.00000  Uiso   1.00
C270   C     0.54625   0.35236   0.23548   0.00000  Uiso   1.00
C271   C     0.50167   0.37575   0.25032   0.00000  Uiso   1.00
C272   C     0.45658   0.35548   0.26531   0.00000  Uiso   1.00
C273   C     0.45533   0.64634   0.26439   0.00000  Uiso   1.00
C274   C     0.49944   0.62356   0.24921   0.00000  Uiso   1.00
C275   C     0.63094   0.52305   0.28560   0.00000  Uiso   1.00
C276   C     0.34732   0.52351   0.28498   0.00000  Uiso   1.00
C277   C     0.47865   0.49289   0.49046   0.00000  Uiso   1.00
C278   C     0.36947   0.47864   0.21277   0.00000  Uiso   1.00
C279   C     0.65320   0.47861   0.21279   0.00000  Uiso   1.00
C280   C     0.50056   0.42060   0.25003   0.00000  Uiso   1.00
C281   C     0.52656   0.49910   0.14984   0.00000  Uiso   1.00
C282   C     0.59748   0.46333   0.01322   0.00000  Uiso   1.00
C283   C     0.54216   0.49326   0.09291   0.00000  Uiso   1.00
C284   C     0.40806   0.50802   0.43891   0.00000  Uiso   1.00
C285   C     0.39511   0.51120   0.49301   0.00000  Uiso   1.00
C286   C     0.42975   0.50478   0.01844   0.00000  Uiso   1.00
C287   C     0.59589   0.36931   0.22345   0.00000  Uiso   1.00
C288   C     0.49071   0.48416   0.43606   0.00000  Uiso   1.00
C289   C     0.62861   0.36628   0.17224   0.00000  Uiso   1.00
C290   C     0.34548   0.37276   0.16272   0.00000  Uiso   1.00
C291   C     0.36323   0.38195   0.20427   0.00000  Uiso   1.00
C292   C     0.66387   0.38622   0.25513   0.00000  Uiso   1.00
C293   C     0.61374   0.37968   0.26479   0.00000  Uiso   1.00
C294   C     0.51545   0.48805   0.01547   0.00000  Uiso   1.00
C295   C     0.56152   0.46938   0.48812   0.00000  Uiso   1.00
C296   C     0.57059   0.45606   0.43659   0.00000  Uiso   1.00
C297   C     0.53569   0.46296   0.41109   0.00000  Uiso   1.00
C298   C     0.50772   0.50152   0.06705   0.00000  Uiso   1.00
C299   C     0.58764   0.47482   0.06562   0.00000  Uiso   1.00
Cu300  Cu    0.45311   0.49999   0.25000   0.00000  Uiso   1.00
Cu301  Cu    0.54689   0.50001   0.25000   0.00000  Uiso   1.00
H302   H     0.61475   0.46802   0.08517   0.00000  Uiso   1.00
H303   H     0.47480   0.51848   0.08842   0.00000  Uiso   1.00
H304   H     0.41639   0.50775   0.06049   0.00000  Uiso   1.00
H305   H     0.35775   0.51984   0.01584   0.00000  Uiso   1.00
H306   H     0.54391   0.44978   0.37234   0.00000  Uiso   1.00
H307   H     0.57868   0.62549   0.22330   0.00000  Uiso   1.00
H308   H     0.61551   0.35722   0.14019   0.00000  Uiso   1.00
H309   H     0.37076   0.36986   0.12334   0.00000  Uiso   1.00
H310   H     0.40219   0.38656   0.19677   0.00000  Uiso   1.00
H311   H     0.34382   0.39440   0.28726   0.00000  Uiso   1.00
H312   H     0.58911   0.38117   0.30465   0.00000  Uiso   1.00
H313   H     0.42216   0.37253   0.27878   0.00000  Uiso   1.00
H314   H     0.42007   0.63141   0.27653   0.00000  Uiso   1.00
H315   H     0.60359   0.54166   0.31407   0.00000  Uiso   1.00
H316   H     0.35766   0.54347   0.31166   0.00000  Uiso   1.00
H317   H     0.39727   0.46162   0.18281   0.00000  Uiso   1.00
H318   H     0.64356   0.46130   0.18314   0.00000  Uiso   1.00
H319   H     0.60486   0.44019   0.41582   0.00000  Uiso   1.00
H320   H     0.63265   0.44871   0.49273   0.00000  Uiso   1.00
N321   N     0.38265   0.49999   0.24998   0.00000  Uiso   1.00
N322   N     0.61735   0.50002   0.25000   0.00000  Uiso   1.00
O323   O     0.46042   0.56011   0.25001   0.00000  Uiso   1.00
O324   O     0.53961   0.56012   0.25001   0.00000  Uiso   1.00
O325   O     0.44108   0.49998   0.32549   0.00000  Uiso   1.00
O326   O     0.52027   0.49999   0.32549   0.00000  Uiso   1.00
O327   O     0.46039   0.43988   0.25000   0.00000  Uiso   1.00
O328   O     0.53958   0.43989   0.25000   0.00000  Uiso   1.00
O329   O     0.47973   0.50001   0.17451   0.00000  Uiso   1.00
O330   O     0.55892   0.50002   0.17451   0.00000  Uiso   1.00
Br331  Br    0.68880   0.52144   0.41137   0.00000  Uiso   1.00
C332   C     0.83294   0.57919   0.24994   0.00000  Uiso   1.00
C333   C     0.79012   0.49577   0.40887   0.00000  Uiso   1.00
C334   C     0.87774   0.64326   0.23468   0.00000  Uiso   1.00
C335   C     0.80670   0.49814   0.35054   0.00000  Uiso   1.00
C336   C     0.87959   0.35236   0.23548   0.00000  Uiso   1.00
C337   C     0.83500   0.37575   0.25032   0.00000  Uiso   1.00
C338   C     0.78991   0.35548   0.26531   0.00000  Uiso   1.00
C339   C     0.78866   0.64634   0.26439   0.00000  Uiso   1.00
C340   C     0.83277   0.62356   0.24921   0.00000  Uiso   1.00
C341   C     0.96427   0.52305   0.28560   0.00000  Uiso   1.00
C342   C     0.68065   0.52351   0.28498   0.00000  Uiso   1.00
C343   C     0.81198   0.49289   0.49046   0.00000  Uiso   1.00
C344   C     0.70281   0.47864   0.21277   0.00000  Uiso   1.00
C345   C     0.98653   0.47861   0.21279   0.00000  Uiso   1.00
C346   C     0.83390   0.42060   0.25003   0.00000  Uiso   1.00
C347   C     0.85989   0.49910   0.14984   0.00000  Uiso   1.00
C348   C     0.93081   0.46333   0.01322   0.00000  Uiso   1.00
C349   C     0.87550   0.49326   0.09291   0.00000  Uiso   1.00
C350   C     0.74139   0.50802   0.43891   0.00000  Uiso   1.00
C351   C     0.72844   0.51120   0.49301   0.00000  Uiso   1.00
C352   C     0.76308   0.50478   0.01844   0.00000  Uiso   1.00
C353   C     0.92922   0.36931   0.22345   0.00000  Uiso   1.00
C354   C     0.82404   0.48416   0.43606   0.00000  Uiso   1.00
C355   C     0.96194   0.36628   0.17224   0.00000  Uiso   1.00
C356   C     0.67882   0.37276   0.16272   0.00000  Uiso   1.00
C357   C     0.69656   0.38195   0.20427   0.00000  Uiso   1.00
C358   C     0.99720   0.38622   0.25513   0.00000  Uiso   1.00
C359   C     0.94707   0.37968   0.26479   0.00000  Uiso   1.00
C360   C     0.84878   0.48805   0.01547   0.00000  Uiso   1.00
C361   C     0.89486   0.46938   0.48812   0.00000  Uiso   1.00
C362   C     0.90392   0.45606   0.43659   0.00000  Uiso   1.00
C363   C     0.86903   0.46296   0.41109   0.00000  Uiso   1.00
C364   C     0.84105   0.50152   0.06705   0.00000  Uiso   1.00
C365   C     0.92098   0.47482   0.06562   0.00000  Uiso   1.00
Cu366  Cu    0.78645   0.49999   0.25000   0.00000  Uiso   1.00
Cu367  Cu    0.88022   0.50001   0.25000   0.00000  Uiso   1.00
H368   H     0.94809   0.46802   0.08517   0.00000  Uiso   1.00
H369   H     0.80813   0.51848   0.08842   0.00000  Uiso   1.00
H370   H     0.74972   0.50775   0.06049   0.00000  Uiso   1.00
H371   H     0.69109   0.51984   0.01584   0.00000  Uiso   1.00
H372   H     0.87725   0.44978   0.37234   0.00000  Uiso   1.00
H373   H     0.91202   0.62549   0.22330   0.00000  Uiso   1.00
H374   H     0.94884   0.35722   0.14019   0.00000  Uiso   1.00
H375   H     0.70409   0.36986   0.12334   0.00000  Uiso   1.00
H376   H     0.73553   0.38656   0.19677   0.00000  Uiso   1.00
H377   H     0.67715   0.39440   0.28726   0.00000  Uiso   1.00
H378   H     0.92244   0.38117   0.30465   0.00000  Uiso   1.00
H379   H     0.75549   0.37253   0.27878   0.00000  Uiso   1.00
H380   H     0.75340   0.63141   0.27653   0.00000  Uiso   1.00
H381   H     0.93692   0.54166   0.31407   0.00000  Uiso   1.00
H382   H     0.69099   0.54347   0.31166   0.00000  Uiso   1.00
H383   H     0.73060   0.46162   0.18281   0.00000  Uiso   1.00
H384   H     0.97689   0.46130   0.18314   0.00000  Uiso   1.00
H385   H     0.93819   0.44019   0.41582   0.00000  Uiso   1.00
H386   H     0.96598   0.44871   0.49273   0.00000  Uiso   1.00
N387   N     0.71598   0.49999   0.24998   0.00000  Uiso   1.00
N388   N     0.95069   0.50002   0.25000   0.00000  Uiso   1.00
O389   O     0.79375   0.56011   0.25001   0.00000  Uiso   1.00
O390   O     0.87294   0.56012   0.25001   0.00000  Uiso   1.00
O391   O     0.77441   0.49998   0.32549   0.00000  Uiso   1.00
O392   O     0.85360   0.49999   0.32549   0.00000  Uiso   1.00
O393   O     0.79373   0.43988   0.25000   0.00000  Uiso   1.00
O394   O     0.87292   0.43989   0.25000   0.00000  Uiso   1.00
O395   O     0.81306   0.50001   0.17451   0.00000  Uiso   1.00
O396   O     0.89225   0.50002   0.17451   0.00000  Uiso   1.00
Br397  Br    0.02213   0.85477   0.41137   0.00000  Uiso   1.00
C398   C     0.16628   0.91252   0.24994   0.00000  Uiso   1.00
C399   C     0.12346   0.82911   0.40887   0.00000  Uiso   1.00
C400   C     0.21108   0.97659   0.23468   0.00000  Uiso   1.00
C401   C     0.14004   0.83147   0.35054   0.00000  Uiso   1.00
C402   C     0.21292   0.68569   0.23548   0.00000  Uiso   1.00
C403   C     0.16834   0.70909   0.25032   0.00000  Uiso   1.00
C404   C     0.12324   0.68881   0.26531   0.00000  Uiso   1.00
C405   C     0.12200   0.97967   0.26439   0.00000  Uiso   1.00
C406   C     0.16610   0.95689   0.24921   0.00000  Uiso   1.00
C407   C     0.29760   0.85638   0.28560   0.00000  Uiso   1.00
C408   C     0.01398   0.85684   0.28498   0.00000  Uiso   1.00
C409   C     0.14532   0.82623   0.49046   0.00000  Uiso   1.00
C410   C     0.03614   0.81197   0.21277   0.00000  Uiso   1.00
C411   C     0.31987   0.81194   0.21279   0.00000  Uiso   1.00
C412   C     0.16723   0.75393   0.25003   0.00000  Uiso   1.00
C413   C     0.19323   0.83244   0.14984   0.00000  Uiso   1.00
C414   C     0.26414   0.79666   0.01322   0.00000  Uiso   1.00
C415   C     0.20883   0.82659   0.09291   0.00000  Uiso   1.00
C416   C     0.07472   0.84135   0.43891   0.00000  Uiso   1.00
C417   C     0.06178   0.84453   0.49301   0.00000  Uiso   1.00
C418   C     0.09641   0.83811   0.01844   0.00000  Uiso   1.00
C419   C     0.26256   0.70264   0.22345   0.00000  Uiso   1.00
C420   C     0.15738   0.81749   0.43606   0.00000  Uiso   1.00
C421   C     0.29527   0.69962   0.17224   0.00000  Uiso   1.00
C422   C     0.01215   0.70609   0.16272   0.00000  Uiso   1.00
C423   C     0.02989   0.71529   0.20427   0.00000  Uiso   1.00
C424   C     0.33054   0.71955   0.25513   0.00000  Uiso   1.00
C425   C     0.28040   0.71301   0.26479   0.00000  Uiso   1.00
C426   C     0.18211   0.82138   0.01547   0.00000  Uiso   1.00
C427   C     0.22819   0.80272   0.48812   0.00000  Uiso   1.00
C428   C     0.23726   0.78939   0.43659   0.00000  Uiso   1.00
C429   C     0.20236   0.79630   0.41109   0.00000  Uiso   1.00
C430   C     0.17438   0.83485   0.06705   0.00000  Uiso   1.00
C431   C     0.25431   0.80815   0.06562   0.00000  Uiso   1.00
Cu432  Cu    0.11978   0.83333   0.25000   0.00000  Uiso   1.00
Cu433  Cu    0.21355   0.83334   0.25000   0.00000  Uiso   1.00
H434   H     0.28142   0.80135   0.08517   0.00000  Uiso   1.00
H435   H     0.14147   0.85182   0.08842   0.00000  Uiso   1.00
H436   H     0.08306   0.84108   0.06049   0.00000  Uiso   1.00
H437   H     0.02442   0.85318   0.01584   0.00000  Uiso   1.00
H438   H     0.21058   0.78311   0.37234   0.00000  Uiso   1.00
H439   H     0.24535   0.95882   0.22330   0.00000  Uiso   1.00
H440   H     0.28218   0.69055   0.14019   0.00000  Uiso   1.00
H441   H     0.03742   0.70320   0.12334   0.00000  Uiso   1.00
H442   H     0.06886   0.71989   0.19677   0.00000  Uiso   1.00
H443   H     0.01048   0.72773   0.28726   0.00000  Uiso   1.00
H444   H     0.25578   0.71451   0.30465   0.00000  Uiso   1.00
H445   H     0.08883   0.70586   0.27878   0.00000  Uiso   1.00
H446   H     0.08674   0.96475   0.27653   0.00000  Uiso   1.00
H447   H     0.27026   0.87500   0.31407   0.00000  Uiso   1.00
H448   H     0.02432   0.87680   0.31166   0.00000  Uiso   1.00
H449   H     0.06393   0.79496   0.18281   0.00000  Uiso   1.00
H450   H     0.31023   0.79464   0.18314   0.00000  Uiso   1.00
H451   H     0.27152   0.77353   0.41582   0.00000  Uiso   1.00
H452   H     0.29931   0.78205   0.49273   0.00000  Uiso   1.00
N453   N     0.04931   0.83332   0.24998   0.00000  Uiso   1.00
N454   N     0.28402   0.83335   0.25000   0.00000  Uiso   1.00
O455   O     0.12708   0.89345   0.25001   0.00000  Uiso   1.00
O456   O     0.20627   0.89346   0.25001   0.00000  Uiso   1.00
O457   O     0.10775   0.83332   0.32549   0.00000  Uiso   1.00
O458   O     0.18694   0.83333   0.32549   0.00000  Uiso   1.00
O459   O     0.12706   0.77321   0.25000   0.00000  Uiso   1.00
O460   O     0.20625   0.77322   0.25000   0.00000  Uiso   1.00
O461   O     0.14640   0.83334   0.17451   0.00000  Uiso   1.00
O462   O     0.22559   0.83335   0.17451   0.00000  Uiso   1.00
Br463  Br    0.35547   0.85477   0.41137   0.00000  Uiso   1.00
C464   C     0.49961   0.91252   0.24994   0.00000  Uiso   1.00
C465   C     0.45679   0.82911   0.40887   0.00000  Uiso   1.00
C466   C     0.54441   0.97659   0.23468   0.00000  Uiso   1.00
C467   C     0.47337   0.83147   0.35054   0.00000  Uiso   1.00
C468   C     0.54625   0.68569   0.23548   0.00000  Uiso   1.00
C469   C     0.50167   0.70909   0.25032   0.00000  Uiso   1.00
C470   C     0.45658   0.68881   0.26531   0.00000  Uiso   1.00
C471   C     0.45533   0.97967   0.26439   0.00000  Uiso   1.00
C472   C     0.49944   0.95689   0.24921   0.00000  Uiso   1.00
C473   C     0.63094   0.85638   0.28560   0.00000  Uiso   1.00
C474   C     0.34732   0.85684   0.28498   0.00000  Uiso   1.00
C475   C     0.47865   0.82623   0.49046   0.00000  Uiso   1.00
C476   C     0.36947   0.81197   0.21277   0.00000  Uiso   1.00
C477   C     0.65320   0.81194   0.21279   0.00000  Uiso   1.00
C478   C     0.50056   0.75393   0.25003   0.00000  Uiso   1.00
C479   C     0.52656   0.83244   0.14984   0.00000  Uiso   1.00
C480   C     0.59748   0.79666   0.01322   0.00000  Uiso   1.00
C481   C     0.54216   0.82659   0.09291   0.00000  Uiso   1.00
C482   C     0.40806   0.84135   0.43891   0.00000  Uiso   1.00
C483   C     0.39511   0.84453   0.49301   0.00000  Uiso   1.00
C484   C     0.42975   0.83811   0.01844   0.00000  Uiso   1.00
C485   C     0.59589   0.70264   0.22345   0.00000  Uiso   1.00
C486   C     0.49071   0.81749   0.43606   0.00000  Uiso   1.00
C487   C     0.62861   0.69962   0.17224   0.00000  Uiso   1.00
C488   C     0.34548   0.70609   0.16272   0.00000  Uiso   1.00
C489   C     0.36323   0.71529   0.20427   0.00000  Uiso   1.00
C490   C     0.66387   0.71955   0.25513   0.00000  Uiso   1.00
C491   C     0.61374   0.71301   0.26479   0.00000  Uiso   1.00
C492   C     0.51545   0.82138   0.01547   0.00000  Uiso   1.00
C493   C     0.56152   0.80272   0.48812   0.00000  Uiso   1.00
C494   C     0.57059   0.78939   0.43659   0.00000  Uiso   1.00
C495   C     0.53569   0.79630   0.41109   0.00000  Uiso   1.00
C496   C     0.50772   0.83485   0.06705   0.00000  Uiso   1.00
C497   C     0.58764   0.80815   0.06562   0.00000  Uiso   1.00
Cu498  Cu    0.45311   0.83333   0.25000   0.00000  Uiso   1.00
Cu499  Cu    0.54689   0.83334   0.25000   0.00000  Uiso   1.00
H500   H     0.61475   0.80135   0.08517   0.00000  Uiso   1.00
H501   H     0.47480   0.85182   0.08842   0.00000  Uiso   1.00
H502   H     0.41639   0.84108   0.06049   0.00000  Uiso   1.00
H503   H     0.35775   0.85318   0.01584   0.00000  Uiso   1.00
H504   H     0.54391   0.78311   0.37234   0.00000  Uiso   1.00
H505   H     0.57868   0.95882   0.22330   0.00000  Uiso   1.00
H506   H     0.61551   0.69055   0.14019   0.00000  Uiso   1.00
H507   H     0.37076   0.70320   0.12334   0.00000  Uiso   1.00
H508   H     0.40219   0.71989   0.19677   0.00000  Uiso   1.00
H509   H     0.34382   0.72773   0.28726   0.00000  Uiso   1.00
H510   H     0.58911   0.71451   0.30465   0.00000  Uiso   1.00
H511   H     0.42216   0.70586   0.27878   0.00000  Uiso   1.00
H512   H     0.42007   0.96475   0.27653   0.00000  Uiso   1.00
H513   H     0.60359   0.87500   0.31407   0.00000  Uiso   1.00
H514   H     0.35766   0.87680   0.31166   0.00000  Uiso   1.00
H515   H     0.39727   0.79496   0.18281   0.00000  Uiso   1.00
H516   H     0.64356   0.79464   0.18314   0.00000  Uiso   1.00
H517   H     0.60486   0.77353   0.41582   0.00000  Uiso   1.00
H518   H     0.63265   0.78205   0.49273   0.00000  Uiso   1.00
N519   N     0.38265   0.83332   0.24998   0.00000  Uiso   1.00
N520   N     0.61735   0.83335   0.25000   0.00000  Uiso   1.00
O521   O     0.46042   0.89345   0.25001   0.00000  Uiso   1.00
O522   O     0.53961   0.89346   0.25001   0.00000  Uiso   1.00
O523   O     0.44108   0.83332   0.32549   0.00000  Uiso   1.00
O524   O     0.52027   0.83333   0.32549   0.00000  Uiso   1.00
O525   O     0.46039   0.77321   0.25000   0.00000  Uiso   1.00
O526   O     0.53958   0.77322   0.25000   0.00000  Uiso   1.00
O527   O     0.47973   0.83334   0.17451   0.00000  Uiso   1.00
O528   O     0.55892   0.83335   0.17451   0.00000  Uiso   1.00
Br529  Br    0.68880   0.85477   0.41137   0.00000  Uiso   1.00
C530   C     0.83294   0.91252   0.24994   0.00000  Uiso   1.00
C531   C     0.79012   0.82911   0.40887   0.00000  Uiso   1.00
C532   C     0.87774   0.97659   0.23468   0.00000  Uiso   1.00
C533   C     0.80670   0.83147   0.35054   0.00000  Uiso   1.00
C534   C     0.87959   0.68569   0.23548   0.00000  Uiso   1.00
C535   C     0.83500   0.70909   0.25032   0.00000  Uiso   1.00
C536   C     0.78991   0.68881   0.26531   0.00000  Uiso   1.00
C537   C     0.78866   0.97967   0.26439   0.00000  Uiso   1.00
C538   C     0.83277   0.95689   0.24921   0.00000  Uiso   1.00
C539   C     0.96427   0.85638   0.28560   0.00000  Uiso   1.00
C540   C     0.68065   0.85684   0.28498   0.00000  Uiso   1.00
C541   C     0.81198   0.82623   0.49046   0.00000  Uiso   1.00
C542   C     0.70281   0.81197   0.21277   0.00000  Uiso   1.00
C543   C     0.98653   0.81194   0.21279   0.00000  Uiso   1.00
C544   C     0.83390   0.75393   0.25003   0.00000  Uiso   1.00
C545   C     0.85989   0.83244   0.14984   0.00000  Uiso   1.00
C546   C     0.93081   0.79666   0.01322   0.00000  Uiso   1.00
C547   C     0.87550   0.82659   0.09291   0.00000  Uiso   1.00
C548   C     0.74139   0.84135   0.43891   0.00000  Uiso   1.00
C549   C     0.72844   0.84453   0.49301   0.00000  Uiso   1.00
C550   C     0.76308   0.83811   0.01844   0.00000  Uiso   1.00
C551   C     0.92922   0.70264   0.22345   0.00000  Uiso   1.00
C552   C     0.82404   0.81749   0.43606   0.00000  Uiso   1.00
C553   C     0.96194   0.69962   0.17224   0.00000  Uiso   1.00
C554   C     0.67882   0.70609   0.16272   0.00000  Uiso   1.00
C555   C     0.69656   0.71529   0.20427   0.00000  Uiso   1.00
C556   C     0.99720   0.71955   0.25513   0.00000  Uiso   1.00
C557   C     0.94707   0.71301   0.26479   0.00000  Uiso   1.00
C558   C     0.84878   0.82138   0.01547   0.00000  Uiso   1.00
C559   C     0.89486   0.80272   0.48812   0.00000  Uiso   1.00
C560   C     0.90392   0.78939   0.43659   0.00000  Uiso   1.00
C561   C     0.86903   0.79630   0.41109   0.00000  Uiso   1.00
C562   C     0.84105   0.83485   0.06705   0.00000  Uiso   1.00
C563   C     0.92098   0.80815   0.06562   0.00000  Uiso   1.00
Cu564  Cu    0.78645   0.83333   0.25000   0.00000  Uiso   1.00
Cu565  Cu    0.88022   0.83334   0.25000   0.00000  Uiso   1.00
H566   H     0.94809   0.80135   0.08517   0.00000  Uiso   1.00
H567   H     0.80813   0.85182   0.08842   0.00000  Uiso   1.00
H568   H     0.74972   0.84108   0.06049   0.00000  Uiso   1.00
H569   H     0.69109   0.85318   0.01584   0.00000  Uiso   1.00
H570   H     0.87725   0.78311   0.37234   0.00000  Uiso   1.00
H571   H     0.91202   0.95882   0.22330   0.00000  Uiso   1.00
H572   H     0.94884   0.69055   0.14019   0.00000  Uiso   1.00
H573   H     0.70409   0.70320   0.12334   0.00000  Uiso   1.00
H574   H     0.73553   0.71989   0.19677   0.00000  Uiso   1.00
H575   H     0.67715   0.72773   0.28726   0.00000  Uiso   1.00
H576   H     0.92244   0.71451   0.30465   0.00000  Uiso   1.00
H577   H     0.75549   0.70586   0.27878   0.00000  Uiso   1.00
H578   H     0.75340   0.96475   0.27653   0.00000  Uiso   1.00
H579   H     0.93692   0.87500   0.31407   0.00000  Uiso   1.00
H580   H     0.69099   0.87680   0.31166   0.00000  Uiso   1.00
H581   H     0.73060   0.79496   0.18281   0.00000  Uiso   1.00
H582   H     0.97689   0.79464   0.18314   0.00000  Uiso   1.00
H583   H     0.93819   0.77353   0.41582   0.00000  Uiso   1.00
H584   H     0.96598   0.78205   0.49273   0.00000  Uiso   1.00
N585   N     0.71598   0.83332   0.24998   0.00000  Uiso   1.00
N586   N     0.95069   0.83335   0.25000   0.00000  Uiso   1.00
O587   O     0.79375   0.89345   0.25001   0.00000  Uiso   1.00
O588   O     0.87294   0.89346   0.25001   0.00000  Uiso   1.00
O589   O     0.77441   0.83332   0.32549   0.00000  Uiso   1.00
O590   O     0.85360   0.83333   0.32549   0.00000  Uiso   1.00
O591   O     0.79373   0.77321   0.25000   0.00000  Uiso   1.00
O592   O     0.87292   0.77322   0.25000   0.00000  Uiso   1.00
O593   O     0.81306   0.83334   0.17451   0.00000  Uiso   1.00
O594   O     0.89225   0.83335   0.17451   0.00000  Uiso   1.00
Br595  Br    0.02213   0.18810   0.91137   0.00000  Uiso   1.00
C596   C     0.16628   0.24585   0.74994   0.00000  Uiso   1.00
C597   C     0.12346   0.16244   0.90887   0.00000  Uiso   1.00
C598   C     0.21108   0.30993   0.73468   0.00000  Uiso   1.00
C599   C     0.14004   0.16480   0.85054   0.00000  Uiso   1.00
C600   C     0.21292   0.01903   0.73548   0.00000  Uiso   1.00
C601   C     0.16834   0.04242   0.75032   0.00000  Uiso   1.00
C602   C     0.12324   0.02215   0.76531   0.00000  Uiso   1.00
C603   C     0.12200   0.31301   0.76439   0.00000  Uiso   1.00
C604   C     0.16610   0.29022   0.74921   0.00000  Uiso   1.00
C605   C     0.29760   0.18972   0.78560   0.00000  Uiso   1.00
C606   C     0.01398   0.19018   0.78498   0.00000  Uiso   1.00
C607   C     0.14532   0.15956   0.99046   0.00000  Uiso   1.00
C608   C     0.03614   0.14530   0.71277   0.00000  Uiso   1.00
C609   C     0.31987   0.14528   0.71279   0.00000  Uiso   1.00
C610   C     0.16723   0.08727   0.75003   0.00000  Uiso   1.00
C611   C     0.19323   0.16577   0.64984   0.00000  Uiso   1.00
C612   C     0.26414   0.12999   0.51322   0.00000  Uiso   1.00
C613   C     0.20883   0.15992   0.59291   0.00000  Uiso   1.00
C614   C     0.07472   0.17469   0.93891   0.00000  Uiso   1.00
C615   C     0.06178   0.17787   0.99301   0.00000  Uiso   1.00
C616   C     0.09641   0.17145   0.51844   0.00000  Uiso   1.00
C617   C     0.26256   0.03597   0.72345   0.00000  Uiso   1.00
C618   C     0.15738   0.15083   0.93606   0.00000  Uiso   1.00
C619   C     0.29527   0.03295   0.67224   0.00000  Uiso   1.00
C620   C     0.01215   0.03942   0.66272   0.00000  Uiso   1.00
C621   C     0.02989   0.04862   0.70427   0.00000  Uiso   1.00
C622   C     0.33054   0.05288   0.75513   0.00000  Uiso   1.00
C623   C     0.28040   0.04635   0.76479   0.00000  Uiso   1.00
C624   C     0.18211   0.15472   0.51547   0.00000  Uiso   1.00
C625   C     0.22819   0.13605   0.98812   0.00000  Uiso   1.00
C626   C     0.23726   0.12272   0.93659   0.00000  Uiso   1.00
C627   C     0.20236   0.12963   0.91109   0.00000  Uiso   1.00
C628   C     0.17438   0.16819   0.56705   0.00000  Uiso   1.00
C629   C     0.25431   0.14148   0.56562   0.00000  Uiso   1.00
Cu630  Cu    0.11978   0.16666   0.75000   0.00000  Uiso   1.00
Cu631  Cu    0.21355   0.16667   0.75000   0.00000  Uiso   1.00
H632   H     0.28142   0.13469   0.58517   0.00000  Uiso   1.00
H633   H     0.14147   0.18515   0.58842   0.00000  Uiso   1.00
H634   H     0.08306   0.17442   0.56049   0.00000  Uiso   1.00
H635   H     0.02442   0.18651   0.51584   0.00000  Uiso   1.00
H636   H     0.21058   0.11644   0.87234   0.00000  Uiso   1.00
H637   H     0.24535   0.29215   0.72330   0.00000  Uiso   1.00
H638   H     0.28218   0.02388   0.64019   0.00000  Uiso   1.00
H639   H     0.03742   0.03653   0.62334   0.00000  Uiso   1.00
H640   H     0.06886   0.05322   0.69677   0.00000  Uiso   1.00
H641   H     0.01048   0.06107   0.78726   0.00000  Uiso   1.00
H642   H     0.25578   0.04784   0.80465   0.00000  Uiso   1.00
H643   H     0.08883   0.03919   0.77878   0.00000  Uiso   1.00
H644   H     0.08674   0.29808   0.77653   0.00000  Uiso   1.00
H645   H     0.27026   0.20833   0.81407   0.00000  Uiso   1.00
H646   H     0.02432   0.21013   0.81166   0.00000  Uiso   1.00
H647   H     0.06393   0.12829   0.68281   0.00000  Uiso   1.00
H648   H     0.31023   0.12797   0.68314   0.00000  Uiso   1.00
H649   H     0.27152   0.10686   0.91582   0.00000  Uiso   1.00
H650   H     0.29931   0.11538   0.99273   0.00000  Uiso   1.00
N651   N     0.04931   0.16666   0.74998   0.00000  Uiso   1.00
N652   N     0.28402   0.16669   0.75000   0.00000  Uiso   1.00
O653   O     0.12708   0.22678   0.75001   0.00000  Uiso   1.00
O654   O     0.20627   0.22679   0.75001   0.00000  Uiso   1.00
O655   O     0.10775   0.16665   0.82549   0.00000  Uiso   1.00
O656   O     0.18694   0.16666   0.82549   0.00000  Uiso   1.00
O657   O     0.12706   0.10654   0.75000   0.00000  Uiso   1.00
O658   O     0.20625   0.10655   0.75000   0.00000  Uiso   1.00
O659   O     0.14640   0.16667   0.67451   0.00000  Uiso   1.00
O660   O     0.22559   0.16668   0.67451   0.00000  Uiso   1.00
Br661  Br    0.35547   0.18810   0.91137   0.00000  Uiso   1.00
C662   C     0.49961   0.24585   0.74994   0.00000  Uiso   1.00
C663   C     0.45679   0.16244   0.90887   0.00000  Uiso   1.00
C664   C     0.54441   0.30993   0.73468   0.00000  Uiso   1.00
C665   C     0.47337   0.16480   0.85054   0.00000  Uiso   1.00
C666   C     0.54625   0.01903   0.73548   0.00000  Uiso   1.00
C667   C     0.50167   0.04242   0.75032   0.00000  Uiso   1.00
C668   C     0.45658   0.02215   0.76531   0.00000  Uiso   1.00
C669   C     0.45533   0.31301   0.76439   0.00000  Uiso   1.00
C670   C     0.49944   0.29022   0.74921   0.00000  Uiso   1.00
C671   C     0.63094   0.18972   0.78560   0.00000  Uiso   1.00
C672   C     0.34732   0.19018   0.78498   0.00000  Uiso   1.00
C673   C     0.47865   0.15956   0.99046   0.00000  Uiso   1.00
C674   C     0.36947   0.14530   0.71277   0.00000  Uiso   1.00
C675   C     0.65320   0.14528   0.71279   0.00000  Uiso   1.00
C676   C     0.50056   0.08727   0.75003   0.00000  Uiso   1.00
C677   C     0.52656   0.16577   0.64984   0.00000  Uiso   1.00
C678   C     0.59748   0.12999   0.51322   0.00000  Uiso   1.00
C679   C     0.54216   0.15992   0.59291   0.00000  Uiso   1.00
C680   C     0.40806   0.17469   0.93891   0.00000  Uiso   1.00
C681   C     0.39511   0.17787   0.99301   0.00000  Uiso   1.00
C682   C     0.42975   0.17145   0.51844   0.00000  Uiso   1.00
C683   C     0.59589   0.03597   0.72345   0.00000  Uiso   1.00
C684   C     0.49071   0.15083   0.93606   0.00000  Uiso   1.00
C685   C     0.62861   0.03295   0.67224   0.00000  Uiso   1.00
C686   C     0.34548   0.03942   0.66272   0.00000  Uiso   1.00
C687   C     0.36323   0.04862   0.70427   0.00000  Uiso   1.00
C688   C     0.66387   0.05288   0.75513   0.00000  Uiso   1.00
C689   C     0.61374   0.04635   0.76479   0.00000  Uiso   1.00
C690   C     0.51545   0.15472   0.51547   0.00000  Uiso   1.00
C691   C     0.56152   0.13605   0.98812   0.00000  Uiso   1.00
C692   C     0.57059   0.12272   0.93659   0.00000  Uiso   1.00
C693   C     0.53569   0.12963   0.91109   0.00000  Uiso   1.00
C694   C     0.50772   0.16819   0.56705   0.00000  Uiso   1.00
C695   C     0.58764   0.14148   0.56562   0.00000  Uiso   1.00
Cu696  Cu    0.45311   0.16666   0.75000   0.00000  Uiso   1.00
Cu697  Cu    0.54689   0.16667   0.75000   0.00000  Uiso   1.00
H698   H     0.61475   0.13469   0.58517   0.00000  Uiso   1.00
H699   H     0.47480   0.18515   0.58842   0.00000  Uiso   1.00
H700   H     0.41639   0.17442   0.56049   0.00000  Uiso   1.00
H701   H     0.35775   0.18651   0.51584   0.00000  Uiso   1.00
H702   H     0.54391   0.11644   0.87234   0.00000  Uiso   1.00
H703   H     0.57868   0.29215   0.72330   0.00000  Uiso   1.00
H704   H     0.61551   0.02388   0.64019   0.00000  Uiso   1.00
H705   H     0.37076   0.03653   0.62334   0.00000  Uiso   1.00
H706   H     0.40219   0.05322   0.69677   0.00000  Uiso   1.00
H707   H     0.34382   0.06107   0.78726   0.00000  Uiso   1.00
H708   H     0.58911   0.04784   0.80465   0.00000  Uiso   1.00
H709   H     0.42216   0.03919   0.77878   0.00000  Uiso   1.00
H710   H     0.42007   0.29808   0.77653   0.00000  Uiso   1.00
H711   H     0.60359   0.20833   0.81407   0.00000  Uiso   1.00
H712   H     0.35766   0.21013   0.81166   0.00000  Uiso   1.00
H713   H     0.39727   0.12829   0.68281   0.00000  Uiso   1.00
H714   H     0.64356   0.12797   0.68314   0.00000  Uiso   1.00
H715   H     0.60486   0.10686   0.91582   0.00000  Uiso   1.00
H716   H     0.63265   0.11538   0.99273   0.00000  Uiso   1.00
N717   N     0.38265   0.16666   0.74998   0.00000  Uiso   1.00
N718   N     0.61735   0.16669   0.75000   0.00000  Uiso   1.00
O719   O     0.46042   0.22678   0.75001   0.00000  Uiso   1.00
O720   O     0.53961   0.22679   0.75001   0.00000  Uiso   1.00
O721   O     0.44108   0.16665   0.82549   0.00000  Uiso   1.00
O722   O     0.52027   0.16666   0.82549   0.00000  Uiso   1.00
O723   O     0.46039   0.10654   0.75000   0.00000  Uiso   1.00
O724   O     0.53958   0.10655   0.75000   0.00000  Uiso   1.00
O725   O     0.47973   0.16667   0.67451   0.00000  Uiso   1.00
O726   O     0.55892   0.16668   0.67451   0.00000  Uiso   1.00
Br727  Br    0.68880   0.18810   0.91137   0.00000  Uiso   1.00
C728   C     0.83294   0.24585   0.74994   0.00000  Uiso   1.00
C729   C     0.79012   0.16244   0.90887   0.00000  Uiso   1.00
C730   C     0.87774   0.30993   0.73468   0.00000  Uiso   1.00
C731   C     0.80670   0.16480   0.85054   0.00000  Uiso   1.00
C732   C     0.87959   0.01903   0.73548   0.00000  Uiso   1.00
C733   C     0.83500   0.04242   0.75032   0.00000  Uiso   1.00
C734   C     0.78991   0.02215   0.76531   0.00000  Uiso   1.00
C735   C     0.78866   0.31301   0.76439   0.00000  Uiso   1.00
C736   C     0.83277   0.29022   0.74921   0.00000  Uiso   1.00
C737   C     0.96427   0.18972   0.78560   0.00000  Uiso   1.00
C738   C     0.68065   0.19018   0.78498   0.00000  Uiso   1.00
C739   C     0.81198   0.15956   0.99046   0.00000  Uiso   1.00
C740   C     0.70281   0.14530   0.71277   0.00000  Uiso   1.00
C741   C     0.98653   0.14528   0.71279   0.00000  Uiso   1.00
C742   C     0.83390   0.08727   0.75003   0.00000  Uiso   1.00
C743   C     0.85989   0.16577   0.64984   0.00000  Uiso   1.00
C744   C     0.93081   0.12999   0.51322   0.00000  Uiso   1.00
C745   C     0.87550   0.15992   0.59291   0.00000  Uiso   1.00
C746   C     0.74139   0.17469   0.93891   0.00000  Uiso   1.00
C747   C     0.72844   0.17787   0.99301   0.00000  Uiso   1.00
C748   C     0.76308   0.17145   0.51844   0.00000  Uiso   1.00
C749   C     0.92922   0.03597   0.72345   0.00000  Uiso   1.00
C750   C     0.82404   0.15083   0.93606   0.00000  Uiso   1.00
C751   C     0.96194   0.03295   0.67224   0.00000  Uiso   1.00
C752   C     0.67882   0.03942   0.66272   0.00000  Uiso   1.00
C753   C     0.69656   0.04862   0.70427   0.00000  Uiso   1.00
C754   C     0.99720   0.05288   0.75513   0.00000  Uiso   1.00
C755   C     0.94707   0.04635   0.76479   0.00000  Uiso   1.00
C756   C     0.84878   0.15472   0.51547   0.00000  Uiso   1.00
C757   C     0.89486   0.13605   0.98812   0.00000  Uiso   1.00
C758   C     0.90392   0.12272   0.93659   0.00000  Uiso   1.00
C759   C     0.86903   0.12963   0.91109   0.00000  Uiso   1.00
C760   C     0.84105   0.16819   0.56705   0.00000  Uiso   1.00
C761   C     0.92098   0.14148   0.56562   0.00000  Uiso   1.00
Cu762  Cu    0.78645   0.16666   0.75000   0.00000  Uiso   1.00
Cu763  Cu    0.88022   0.16667   0.75000   0.00000  Uiso   1.00
H764   H     0.94809   0.13469   0.58517   0.00000  Uiso   1.00
H765   H     0.80813   0.18515   0.58842   0.00000  Uiso   1.00
H766   H     0.74972   0.17442   0.56049   0.00000  Uiso   1.00
H767   H     0.69109   0.18651   0.51584   0.00000  Uiso   1.00
H768   H     0.87725   0.11644   0.87234   0.00000  Uiso   1.00
H769   H     0.91202   0.29215   0.72330   0.00000  Uiso   1.00
H770   H     0.94884   0.02388   0.64019   0.00000  Uiso   1.00
H771   H     0.70409   0.03653   0.62334   0.00000  Uiso   1.00
H772   H     0.73553   0.05322   0.69677   0.00000  Uiso   1.00
H773   H     0.67715   0.06107   0.78726   0.00000  Uiso   1.00
H774   H     0.92244   0.04784   0.80465   0.00000  Uiso   1.00
H775   H     0.75549   0.03919   0.77878   0.00000  Uiso   1.00
H776   H     0.75340   0.29808   0.77653   0.00000  Uiso   1.00
H777   H     0.93692   0.20833   0.81407   0.00000  Uiso   1.00
H778   H     0.69099   0.21013   0.81166   0.00000  Uiso   1.00
H779   H     0.73060   0.12829   0.68281   0.00000  Uiso   1.00
H780   H     0.97689   0.12797   0.68314   0.00000  Uiso   1.00
H781   H     0.93819   0.10686   0.91582   0.00000  Uiso   1.00
H782   H     0.96598   0.11538   0.99273   0.00000  Uiso   1.00
N783   N     0.71598   0.16666   0.74998   0.00000  Uiso   1.00
N784   N     0.95069   0.16669   0.75000   0.00000  Uiso   1.00
O785   O     0.79375   0.22678   0.75001   0.00000  Uiso   1.00
O786   O     0.87294   0.22679   0.75001   0.00000  Uiso   1.00
O787   O     0.77441   0.16665   0.82549   0.00000  Uiso   1.00
O788   O     0.85360   0.16666   0.82549   0.00000  Uiso   1.00
O789   O     0.79373   0.10654   0.75000   0.00000  Uiso   1.00
O790   O     0.87292   0.10655   0.75000   0.00000  Uiso   1.00
O791   O     0.81306   0.16667   0.67451   0.00000  Uiso   1.00
O792   O     0.89225   0.16668   0.67451   0.00000  Uiso   1.00
Br793  Br    0.02213   0.52144   0.91137   0.00000  Uiso   1.00
C794   C     0.16628   0.57919   0.74994   0.00000  Uiso   1.00
C795   C     0.12346   0.49577   0.90887   0.00000  Uiso   1.00
C796   C     0.21108   0.64326   0.73468   0.00000  Uiso   1.00
C797   C     0.14004   0.49814   0.85054   0.00000  Uiso   1.00
C798   C     0.21292   0.35236   0.73548   0.00000  Uiso   1.00
C799   C     0.16834   0.37575   0.75032   0.00000  Uiso   1.00
C800   C     0.12324   0.35548   0.76531   0.00000  Uiso   1.00
C801   C     0.12200   0.64634   0.76439   0.00000  Uiso   1.00
C802   C     0.16610   0.62356   0.74921   0.00000  Uiso   1.00
C803   C     0.29760   0.52305   0.78560   0.00000  Uiso   1.00
C804   C     0.01398   0.52351   0.78498   0.00000  Uiso   1.00
C805   C     0.14532   0.49289   0.99046   0.00000  Uiso   1.00
C806   C     0.03614   0.47864   0.71277   0.00000  Uiso   1.00
C807   C     0.31987   0.47861   0.71279   0.00000  Uiso   1.00
C808   C     0.16723   0.42060   0.75003   0.00000  Uiso   1.00
C809   C     0.19323   0.49910   0.64984   0.00000  Uiso   1.00
C810   C     0.26414   0.46333   0.51322   0.00000  Uiso   1.00
C811   C     0.20883   0.49326   0.59291   0.00000  Uiso   1.00
C812   C     0.07472   0.50802   0.93891   0.00000  Uiso   1.00
C813   C     0.06178   0.51120   0.99301   0.00000  Uiso   1.00
C814   C     0.09641   0.50478   0.51844   0.00000  Uiso   1.00
C815   C     0.26256   0.36931   0.72345   0.00000  Uiso   1.00
C816   C     0.15738   0.48416   0.93606   0.00000  Uiso   1.00
C817   C     0.29527   0.36628   0.67224   0.00000  Uiso   1.00
C818   C     0.01215   0.37276   0.66272   0.00000  Uiso   1.00
C819   C     0.02989   0.38195   0.70427   0.00000  Uiso   1.00
C820   C     0.33054   0.38622   0.75513   0.00000  Uiso   1.00
C821   C     0.28040   0.37968   0.76479   0.00000  Uiso   1.00
C822   C     0.18211   0.48805   0.51547   0.00000  Uiso   1.00
C823   C     0.22819   0.46938   0.98812   0.00000  Uiso   1.00
C824   C     0.23726   0.45606   0.93659   0.00000  Uiso   1.00
C825   C     0.20236   0.46296   0.91109   0.00000  Uiso   1.00
C826   C     0.17438   0.50152   0.56705   0.00000  Uiso   1.00
C827   C     0.25431   0.47482   0.56562   0.00000  Uiso   1.00
Cu828  Cu    0.11978   0.49999   0.75000   0.00000  Uiso   1.00
Cu829  Cu    0.21355   0.50001   0.75000   0.00000  Uiso   1.00
H830   H     0.28142   0.46802   0.58517   0.00000  Uiso   1.00
H831   H     0.14147   0.51848   0.58842   0.00000  Uiso   1.00
H832   H     0.08306   0.50775   0.56049   0.00000  Uiso   1.00
H833   H     0.02442   0.51984   0.51584   0.00000  Uiso   1.00
H834   H     0.21058   0.44978   0.87234   0.00000  Uiso   1.00
H835   H     0.24535   0.62549   0.72330   0.00000  Uiso   1.00
H836   H     0.28218   0.35722   0.64019   0.00000  Uiso   1.00
H837   H     0.03742   0.36986   0.62334   0.00000  Uiso   1.00
H838   H     0.06886   0.38656   0.69677   0.00000  Uiso   1.00
H839   H     0.01048   0.39440   0.78726   0.00000  Uiso   1.00
H840   H     0.25578   0.38117   0.80465   0.00000  Uiso   1.00
H841   H     0.08883   0.37253   0.77878   0.00000  Uiso   1.00
H842   H     0.08674   0.63141   0.77653   0.00000  Uiso   1.00
H843   H     0.27026   0.54166   0.81407   0.00000  Uiso   1.00
H844   H     0.02432   0.54347   0.81166   0.00000  Uiso   1.00
H845   H     0.06393   0.46162   0.68281   0.00000  Uiso   1.00
H846   H     0.31023   0.46130   0.68314   0.00000  Uiso   1.00
H847   H     0.27152   0.44019   0.91582   0.00000  Uiso   1.00
H848   H     0.29931   0.44871   0.99273   0.00000  Uiso   1.00
N849   N     0.04931   0.49999   0.74998   0.00000  Uiso   1.00
N850   N     0.28402   0.50002   0.75000   0.00000  Uiso   1.00
O851   O     0.12708   0.56011   0.75001   0.00000  Uiso   1.00
O852   O     0.20627   0.56012   0.75001   0.00000  Uiso   1.00
O853   O     0.10775   0.49998   0.82549   0.00000  Uiso   1.00
O854   O     0.18694   0.49999   0.82549   0.00000  Uiso   1.00
O855   O     0.12706   0.43988   0.75000   0.00000  Uiso   1.00
O856   O     0.20625   0.43989   0.75000   0.00000  Uiso   1.00
O857   O     0.14640   0.50001   0.67451   0.00000  Uiso   1.00
O858   O     0.22559   0.50002   0.67451   0.00000  Uiso   1.00
Br859  Br    0.35547   0.52144   0.91137   0.00000  Uiso   1.00
C860   C     0.49961   0.57919   0.74994   0.00000  Uiso   1.00
C861   C     0.45679   0.49577   0.90887   0.00000  Uiso   1.00
C862   C     0.54441   0.64326   0.73468   0.00000  Uiso   1.00
C863   C     0.47337   0.49814   0.85054   0.00000  Uiso   1.00
C864   C     0.54625   0.35236   0.73548   0.00000  Uiso   1.00
C865   C     0.50167   0.37575   0.75032   0.00000  Uiso   1.00
C866   C     0.45658   0.35548   0.76531   0.00000  Uiso   1.00
C867   C     0.45533   0.64634   0.76439   0.00000  Uiso   1.00
C868   C     0.49944   0.62356   0.74921   0.00000  Uiso   1.00
C869   C     0.63094   0.52305   0.78560   0.00000  Uiso   1.00
C870   C     0.34732   0.52351   0.78498   0.00000  Uiso   1.00
C871   C     0.47865   0.49289   0.99046   0.00000  Uiso   1.00
C872   C     0.36947   0.47864   0.71277   0.00000  Uiso   1.00
C873   C     0.65320   0.47861   0.71279   0.00000  Uiso   1.00
C874   C     0.50056   0.42060   0.75003   0.00000  Uiso   1.00
C875   C     0.52656   0.49910   0.64984   0.00000  Uiso   1.00
C876   C     0.59748   0.46333   0.51322   0.00000  Uiso   1.00
C877   C     0.54216   0.49326   0.59291   0.00000  Uiso   1.00
C878   C     0.40806   0.50802   0.93891   0.00000  Uiso   1.00
C879   C     0.39511   0.51120   0.99301   0.00000  Uiso   1.00
C880   C     0.42975   0.50478   0.51844   0.00000  Uiso   1.00
C881   C     0.59589   0.36931   0.72345   0.00000  Uiso   1.00
C882   C     0.49071   0.48416   0.93606   0.00000  Uiso   1.00
C883   C     0.62861   0.36628   0.67224   0.00000  Uiso   1.00
C884   C     0.34548   0.37276   0.66272   0.00000  Uiso   1.00
C885   C     0.36323   0.38195   0.70427   0.00000  Uiso   1.00
C886   C     0.66387   0.38622   0.75513   0.00000  Uiso   1.00
C887   C     0.61374   0.37968   0.76479   0.00000  Uiso   1.00
C888   C     0.51545   0.48805   0.51547   0.00000  Uiso   1.00
C889   C     0.56152   0.46938   0.98812   0.00000  Uiso   1.00
C890   C     0.57059   0.45606   0.93659   0.00000  Uiso   1.00
C891   C     0.53569   0.46296   0.91109   0.00000  Uiso   1.00
C892   C     0.50772   0.50152   0.56705   0.00000  Uiso   1.00
C893   C     0.58764   0.47482   0.56562   0.00000  Uiso   1.00
Cu894  Cu    0.45311   0.49999   0.75000   0.00000  Uiso   1.00
Cu895  Cu    0.54689   0.50001   0.75000   0.00000  Uiso   1.00
H896   H     0.61475   0.46802   0.58517   0.00000  Uiso   1.00
H897   H     0.47480   0.51848   0.58842   0.00000  Uiso   1.00
H898   H     0.41639   0.50775   0.56049   0.00000  Uiso   1.00
H899   H     0.35775   0.51984   0.51584   0.00000  Uiso   1.00
H900   H     0.54391   0.44978   0.87234   0.00000  Uiso   1.00
H901   H     0.57868   0.62549   0.72330   0.00000  Uiso   1.00
H902   H     0.61551   0.35722   0.64019   0.00000  Uiso   1.00
H903   H     0.37076   0.36986   0.62334   0.00000  Uiso   1.00
H904   H     0.40219   0.38656   0.69677   0.00000  Uiso   1.00
H905   H     0.34382   0.39440   0.78726   0.00000  Uiso   1.00
H906   H     0.58911   0.38117   0.80465   0.00000  Uiso   1.00
H907   H     0.42216   0.37253   0.77878   0.00000  Uiso   1.00
H908   H     0.42007   0.63141   0.77653   0.00000  Uiso   1.00
H909   H     0.60359   0.54166   0.81407   0.00000  Uiso   1.00
H910   H     0.35766   0.54347   0.81166   0.00000  Uiso   1.00
H911   H     0.39727   0.46162   0.68281   0.00000  Uiso   1.00
H912   H     0.64356   0.46130   0.68314   0.00000  Uiso   1.00
H913   H     0.60486   0.44019   0.91582   0.00000  Uiso   1.00
H914   H     0.63265   0.44871   0.99273   0.00000  Uiso   1.00
N915   N     0.38265   0.49999   0.74998   0.00000  Uiso   1.00
N916   N     0.61735   0.50002   0.75000   0.00000  Uiso   1.00
O917   O     0.46042   0.56011   0.75001   0.00000  Uiso   1.00
O918   O     0.53961   0.56012   0.75001   0.00000  Uiso   1.00
O919   O     0.44108   0.49998   0.82549   0.00000  Uiso   1.00
O920   O     0.52027   0.49999   0.82549   0.00000  Uiso   1.00
O921   O     0.46039   0.43988   0.75000   0.00000  Uiso   1.00
O922   O     0.53958   0.43989   0.75000   0.00000  Uiso   1.00
O923   O     0.47973   0.50001   0.67451   0.00000  Uiso   1.00
O924   O     0.55892   0.50002   0.67451   0.00000  Uiso   1.00
Br925  Br    0.68880   0.52144   0.91137   0.00000  Uiso   1.00
C926   C     0.83294   0.57919   0.74994   0.00000  Uiso   1.00
C927   C     0.79012   0.49577   0.90887   0.00000  Uiso   1.00
C928   C     0.87774   0.64326   0.73468   0.00000  Uiso   1.00
C929   C     0.80670   0.49814   0.85054   0.00000  Uiso   1.00
C930   C     0.87959   0.35236   0.73548   0.00000  Uiso   1.00
C931   C     0.83500   0.37575   0.75032   0.00000  Uiso   1.00
C932   C     0.78991   0.35548   0.76531   0.00000  Uiso   1.00
C933   C     0.78866   0.64634   0.76439   0.00000  Uiso   1.00
C934   C     0.83277   0.62356   0.74921   0.00000  Uiso   1.00
C935   C     0.96427   0.52305   0.78560   0.00000  Uiso   1.00
C936   C     0.68065   0.52351   0.78498   0.00000  Uiso   1.00
C937   C     0.81198   0.49289   0.99046   0.00000  Uiso   1.00
C938   C     0.70281   0.47864   0.71277   0.00000  Uiso   1.00
C939   C     0.98653   0.47861   0.71279   0.00000  Uiso   1.00
C940   C     0.83390   0.42060   0.75003   0.00000  Uiso   1.00
C941   C     0.85989   0.49910   0.64984   0.00000  Uiso   1.00
C942   C     0.93081   0.46333   0.51322   0.00000  Uiso   1.00
C943   C     0.87550   0.49326   0.59291   0.00000  Uiso   1.00
C944   C     0.74139   0.50802   0.93891   0.00000  Uiso   1.00
C945   C     0.72844   0.51120   0.99301   0.00000  Uiso   1.00
C946   C     0.76308   0.50478   0.51844   0.00000  Uiso   1.00
C947   C     0.92922   0.36931   0.72345   0.00000  Uiso   1.00
C948   C     0.82404   0.48416   0.93606   0.00000  Uiso   1.00
C949   C     0.96194   0.36628   0.67224   0.00000  Uiso   1.00
C950   C     0.67882   0.37276   0.66272   0.00000  Uiso   1.00
C951   C     0.69656   0.38195   0.70427   0.00000  Uiso   1.00
C952   C     0.99720   0.38622   0.75513   0.00000  Uiso   1.00
C953   C     0.94707   0.37968   0.76479   0.00000  Uiso   1.00
C954   C     0.84878   0.48805   0.51547   0.00000  Uiso   1.00
C955   C     0.89486   0.46938   0.98812   0.00000  Uiso   1.00
C956   C     0.90392   0.45606   0.93659   0.00000  Uiso   1.00
C957   C     0.86903   0.46296   0.91109   0.00000  Uiso   1.00
C958   C     0.84105   0.50152   0.56705   0.00000  Uiso   1.00
C959   C     0.92098   0.47482   0.56562   0.00000  Uiso   1.00
Cu960  Cu    0.78645   0.49999   0.75000   0.00000  Uiso   1.00
Cu961  Cu    0.88022   0.50001   0.75000   0.00000  Uiso   1.00
H962   H     0.94809   0.46802   0.58517   0.00000  Uiso   1.00
H963   H     0.80813   0.51848   0.58842   0.00000  Uiso   1.00
H964   H     0.74972   0.50775   0.56049   0.00000  Uiso   1.00
H965   H     0.69109   0.51984   0.51584   0.00000  Uiso   1.00
H966   H     0.87725   0.44978   0.87234   0.00000  Uiso   1.00
H967   H     0.91202   0.62549   0.72330   0.00000  Uiso   1.00
H968   H     0.94884   0.35722   0.64019   0.00000  Uiso   1.00
H969   H     0.70409   0.36986   0.62334   0.00000  Uiso   1.00
H970   H     0.73553   0.38656   0.69677   0.00000  Uiso   1.00
H971   H     0.67715   0.39440   0.78726   0.00000  Uiso   1.00
H972   H     0.92244   0.38117   0.80465   0.00000  Uiso   1.00
H973   H     0.75549   0.37253   0.77878   0.00000  Uiso   1.00
H974   H     0.75340   0.63141   0.77653   0.00000  Uiso   1.00
H975   H     0.93692   0.54166   0.81407   0.00000  Uiso   1.00
H976   H     0.69099   0.54347   0.81166   0.00000  Uiso   1.00
H977   H     0.73060   0.46162   0.68281   0.00000  Uiso   1.00
H978   H     0.97689   0.46130   0.68314   0.00000  Uiso   1.00
H979   H     0.93819   0.44019   0.91582   0.00000  Uiso   1.00
H980   H     0.96598   0.44871   0.99273   0.00000  Uiso   1.00
N981   N     0.71598   0.49999   0.74998   0.00000  Uiso   1.00
N982   N     0.95069   0.50002   0.75000   0.00000  Uiso   1.00
O983   O     0.79375   0.56011   0.75001   0.00000  Uiso   1.00
O984   O     0.87294   0.56012   0.75001   0.00000  Uiso   1.00
O985   O     0.77441   0.49998   0.82549   0.00000  Uiso   1.00
O986   O     0.85360   0.49999   0.82549   0.00000  Uiso   1.00
O987   O     0.79373   0.43988   0.75000   0.00000  Uiso   1.00
O988   O     0.87292   0.43989   0.75000   0.00000  Uiso   1.00
O989   O     0.81306   0.50001   0.67451   0.00000  Uiso   1.00
O990   O     0.89225   0.50002   0.67451   0.00000  Uiso   1.00
Br991  Br    0.02213   0.85477   0.91137   0.00000  Uiso   1.00
C992   C     0.16628   0.91252   0.74994   0.00000  Uiso   1.00
C993   C     0.12346   0.82911   0.90887   0.00000  Uiso   1.00
C994   C     0.21108   0.97659   0.73468   0.00000  Uiso   1.00
C995   C     0.14004   0.83147   0.85054   0.00000  Uiso   1.00
C996   C     0.21292   0.68569   0.73548   0.00000  Uiso   1.00
C997   C     0.16834   0.70909   0.75032   0.00000  Uiso   1.00
C998   C     0.12324   0.68881   0.76531   0.00000  Uiso   1.00
C999   C     0.12200   0.97967   0.76439   0.00000  Uiso   1.00
C1000  C     0.16610   0.95689   0.74921   0.00000  Uiso   1.00
C1001  C     0.29760   0.85638   0.78560   0.00000  Uiso   1.00
C1002  C     0.01398   0.85684   0.78498   0.00000  Uiso   1.00
C1003  C     0.14532   0.82623   0.99046   0.00000  Uiso   1.00
C1004  C     0.03614   0.81197   0.71277   0.00000  Uiso   1.00
C1005  C     0.31987   0.81194   0.71279   0.00000  Uiso   1.00
C1006  C     0.16723   0.75393   0.75003   0.00000  Uiso   1.00
C1007  C     0.19323   0.83244   0.64984   0.00000  Uiso   1.00
C1008  C     0.26414   0.79666   0.51322   0.00000  Uiso   1.00
C1009  C     0.20883   0.82659   0.59291   0.00000  Uiso   1.00
C1010  C     0.07472   0.84135   0.93891   0.00000  Uiso   1.00
C1011  C     0.06178   0.84453   0.99301   0.00000  Uiso   1.00
C1012  C     0.09641   0.83811   0.51844   0.00000  Uiso   1.00
C1013  C     0.26256   0.70264   0.72345   0.00000  Uiso   1.00
C1014  C     0.15738   0.81749   0.93606   0.00000  Uiso   1.00
C1015  C     0.29527   0.69962   0.67224   0.00000  Uiso   1.00
C1016  C     0.01215   0.70609   0.66272   0.00000  Uiso   1.00
C1017  C     0.02989   0.71529   0.70427   0.00000  Uiso   1.00
C1018  C     0.33054   0.71955   0.75513   0.00000  Uiso   1.00
C1019  C     0.28040   0.71301   0.76479   0.00000  Uiso   1.00
C1020  C     0.18211   0.82138   0.51547   0.00000  Uiso   1.00
C1021  C     0.22819   0.80272   0.98812   0.00000  Uiso   1.00
C1022  C     0.23726   0.78939   0.93659   0.00000  Uiso   1.00
C1023  C     0.20236   0.79630   0.91109   0.00000  Uiso   1.00
C1024  C     0.17438   0.83485   0.56705   0.00000  Uiso   1.00
C1025  C     0.25431   0.80815   0.56562   0.00000  Uiso   1.00
Cu1026 Cu    0.11978   0.83333   0.75000   0.00000  Uiso   1.00
Cu1027 Cu    0.21355   0.83334   0.75000   0.00000  Uiso   1.00
H1028  H     0.28142   0.80135   0.58517   0.00000  Uiso   1.00
H1029  H     0.14147   0.85182   0.58842   0.00000  Uiso   1.00
H1030  H     0.08306   0.84108   0.56049   0.00000  Uiso   1.00
H1031  H     0.02442   0.85318   0.51584   0.00000  Uiso   1.00
H1032  H     0.21058   0.78311   0.87234   0.00000  Uiso   1.00
H1033  H     0.24535   0.95882   0.72330   0.00000  Uiso   1.00
H1034  H     0.28218   0.69055   0.64019   0.00000  Uiso   1.00
H1035  H     0.03742   0.70320   0.62334   0.00000  Uiso   1.00
H1036  H     0.06886   0.71989   0.69677   0.00000  Uiso   1.00
H1037  H     0.01048   0.72773   0.78726   0.00000  Uiso   1.00
H1038  H     0.25578   0.71451   0.80465   0.00000  Uiso   1.00
H1039  H     0.08883   0.70586   0.77878   0.00000  Uiso   1.00
H1040  H     0.08674   0.96475   0.77653   0.00000  Uiso   1.00
H1041  H     0.27026   0.87500   0.81407   0.00000  Uiso   1.00
H1042  H     0.02432   0.87680   0.81166   0.00000  Uiso   1.00
H1043  H     0.06393   0.79496   0.68281   0.00000  Uiso   1.00
H1044  H     0.31023   0.79464   0.68314   0.00000  Uiso   1.00
H1045  H     0.27152   0.77353   0.91582   0.00000  Uiso   1.00
H1046  H     0.29931   0.78205   0.99273   0.00000  Uiso   1.00
N1047  N     0.04931   0.83332   0.74998   0.00000  Uiso   1.00
N1048  N     0.28402   0.83335   0.75000   0.00000  Uiso   1.00
O1049  O     0.12708   0.89345   0.75001   0.00000  Uiso   1.00
O1050  O     0.20627   0.89346   0.75001   0.00000  Uiso   1.00
O1051  O     0.10775   0.83332   0.82549   0.00000  Uiso   1.00
O1052  O     0.18694   0.83333   0.82549   0.00000  Uiso   1.00
O1053  O     0.12706   0.77321   0.75000   0.00000  Uiso   1.00
O1054  O     0.20625   0.77322   0.75000   0.00000  Uiso   1.00
O1055  O     0.14640   0.83334   0.67451   0.00000  Uiso   1.00
O1056  O     0.22559   0.83335   0.67451   0.00000  Uiso   1.00
Br1057 Br    0.35547   0.85477   0.91137   0.00000  Uiso   1.00
C1058  C     0.49961   0.91252   0.74994   0.00000  Uiso   1.00
C1059  C     0.45679   0.82911   0.90887   0.00000  Uiso   1.00
C1060  C     0.54441   0.97659   0.73468   0.00000  Uiso   1.00
C1061  C     0.47337   0.83147   0.85054   0.00000  Uiso   1.00
C1062  C     0.54625   0.68569   0.73548   0.00000  Uiso   1.00
C1063  C     0.50167   0.70909   0.75032   0.00000  Uiso   1.00
C1064  C     0.45658   0.68881   0.76531   0.00000  Uiso   1.00
C1065  C     0.45533   0.97967   0.76439   0.00000  Uiso   1.00
C1066  C     0.49944   0.95689   0.74921   0.00000  Uiso   1.00
C1067  C     0.63094   0.85638   0.78560   0.00000  Uiso   1.00
C1068  C     0.34732   0.85684   0.78498   0.00000  Uiso   1.00
C1069  C     0.47865   0.82623   0.99046   0.00000  Uiso   1.00
C1070  C     0.36947   0.81197   0.71277   0.00000  Uiso   1.00
C1071  C     0.65320   0.81194   0.71279   0.00000  Uiso   1.00
C1072  C     0.50056   0.75393   0.75003   0.00000  Uiso   1.00
C1073  C     0.52656   0.83244   0.64984   0.00000  Uiso   1.00
C1074  C     0.59748   0.79666   0.51322   0.00000  Uiso   1.00
C1075  C     0.54216   0.82659   0.59291   0.00000  Uiso   1.00
C1076  C     0.40806   0.84135   0.93891   0.00000  Uiso   1.00
C1077  C     0.39511   0.84453   0.99301   0.00000  Uiso   1.00
C1078  C     0.42975   0.83811   0.51844   0.00000  Uiso   1.00
C1079  C     0.59589   0.70264   0.72345   0.00000  Uiso   1.00
C1080  C     0.49071   0.81749   0.93606   0.00000  Uiso   1.00
C1081  C     0.62861   0.69962   0.67224   0.00000  Uiso   1.00
C1082  C     0.34548   0.70609   0.66272   0.00000  Uiso   1.00
C1083  C     0.36323   0.71529   0.70427   0.00000  Uiso   1.00
C1084  C     0.66387   0.71955   0.75513   0.00000  Uiso   1.00
C1085  C     0.61374   0.71301   0.76479   0.00000  Uiso   1.00
C1086  C     0.51545   0.82138   0.51547   0.00000  Uiso   1.00
C1087  C     0.56152   0.80272   0.98812   0.00000  Uiso   1.00
C1088  C     0.57059   0.78939   0.93659   0.00000  Uiso   1.00
C1089  C     0.53569   0.79630   0.91109   0.00000  Uiso   1.00
C1090  C     0.50772   0.83485   0.56705   0.00000  Uiso   1.00
C1091  C     0.58764   0.80815   0.56562   0.00000  Uiso   1.00
Cu1092 Cu    0.45311   0.83333   0.75000   0.00000  Uiso   1.00
Cu1093 Cu    0.54689   0.83334   0.75000   0.00000  Uiso   1.00
H1094  H     0.61475   0.80135   0.58517   0.00000  Uiso   1.00
H1095  H     0.47480   0.85182   0.58842   0.00000  Uiso   1.00
H1096  H     0.41639   0.84108   0.56049   0.00000  Uiso   1.00
H1097  H     0.35775   0.85318   0.51584   0.00000  Uiso   1.00
H1098  H     0.54391   0.78311   0.87234   0.00000  Uiso   1.00
H1099  H     0.57868   0.95882   0.72330   0.00000  Uiso   1.00
H1100  H     0.61551   0.69055   0.64019   0.00000  Uiso   1.00
H1101  H     0.37076   0.70320   0.62334   0.00000  Uiso   1.00
H1102  H     0.40219   0.71989   0.69677   0.00000  Uiso   1.00
H1103  H     0.34382   0.72773   0.78726   0.00000  Uiso   1.00
H1104  H     0.58911   0.71451   0.80465   0.00000  Uiso   1.00
H1105  H     0.42216   0.70586   0.77878   0.00000  Uiso   1.00
H1106  H     0.42007   0.96475   0.77653   0.00000  Uiso   1.00
H1107  H     0.60359   0.87500   0.81407   0.00000  Uiso   1.00
H1108  H     0.35766   0.87680   0.81166   0.00000  Uiso   1.00
H1109  H     0.39727   0.79496   0.68281   0.00000  Uiso   1.00
H1110  H     0.64356   0.79464   0.68314   0.00000  Uiso   1.00
H1111  H     0.60486   0.77353   0.91582   0.00000  Uiso   1.00
H1112  H     0.63265   0.78205   0.99273   0.00000  Uiso   1.00
N1113  N     0.38265   0.83332   0.74998   0.00000  Uiso   1.00
N1114  N     0.61735   0.83335   0.75000   0.00000  Uiso   1.00
O1115  O     0.46042   0.89345   0.75001   0.00000  Uiso   1.00
O1116  O     0.53961   0.89346   0.75001   0.00000  Uiso   1.00
O1117  O     0.44108   0.83332   0.82549   0.00000  Uiso   1.00
O1118  O     0.52027   0.83333   0.82549   0.00000  Uiso   1.00
O1119  O     0.46039   0.77321   0.75000   0.00000  Uiso   1.00
O1120  O     0.53958   0.77322   0.75000   0.00000  Uiso   1.00
O1121  O     0.47973   0.83334   0.67451   0.00000  Uiso   1.00
O1122  O     0.55892   0.83335   0.67451   0.00000  Uiso   1.00
Br1123 Br    0.68880   0.85477   0.91137   0.00000  Uiso   1.00
C1124  C     0.83294   0.91252   0.74994   0.00000  Uiso   1.00
C1125  C     0.79012   0.82911   0.90887   0.00000  Uiso   1.00
C1126  C     0.87774   0.97659   0.73468   0.00000  Uiso   1.00
C1127  C     0.80670   0.83147   0.85054   0.00000  Uiso   1.00
C1128  C     0.87959   0.68569   0.73548   0.00000  Uiso   1.00
C1129  C     0.83500   0.70909   0.75032   0.00000  Uiso   1.00
C1130  C     0.78991   0.68881   0.76531   0.00000  Uiso   1.00
C1131  C     0.78866   0.97967   0.76439   0.00000  Uiso   1.00
C1132  C     0.83277   0.95689   0.74921   0.00000  Uiso   1.00
C1133  C     0.96427   0.85638   0.78560   0.00000  Uiso   1.00
C1134  C     0.68065   0.85684   0.78498   0.00000  Uiso   1.00
C1135  C     0.81198   0.82623   0.99046   0.00000  Uiso   1.00
C1136  C     0.70281   0.81197   0.71277   0.00000  Uiso   1.00
C1137  C     0.98653   0.81194   0.71279   0.00000  Uiso   1.00
C1138  C     0.83390   0.75393   0.75003   0.00000  Uiso   1.00
C1139  C     0.85989   0.83244   0.64984   0.00000  Uiso   1.00
C1140  C     0.93081   0.79666   0.51322   0.00000  Uiso   1.00
C1141  C     0.87550   0.82659   0.59291   0.00000  Uiso   1.00
C1142  C     0.74139   0.84135   0.93891   0.00000  Uiso   1.00
C1143  C     0.72844   0.84453   0.99301   0.00000  Uiso   1.00
C1144  C     0.76308   0.83811   0.51844   0.00000  Uiso   1.00
C1145  C     0.92922   0.70264   0.72345   0.00000  Uiso   1.00
C1146  C     0.82404   0.81749   0.93606   0.00000  Uiso   1.00
C1147  C     0.96194   0.69962   0.67224   0.00000  Uiso   1.00
C1148  C     0.67882   0.70609   0.66272   0.00000  Uiso   1.00
C1149  C     0.69656   0.71529   0.70427   0.00000  Uiso   1.00
C1150  C     0.99720   0.71955   0.75513   0.00000  Uiso   1.00
C1151  C     0.94707   0.71301   0.76479   0.00000  Uiso   1.00
C1152  C     0.84878   0.82138   0.51547   0.00000  Uiso   1.00
C1153  C     0.89486   0.80272   0.98812   0.00000  Uiso   1.00
C1154  C     0.90392   0.78939   0.93659   0.00000  Uiso   1.00
C1155  C     0.86903   0.79630   0.91109   0.00000  Uiso   1.00
C1156  C     0.84105   0.83485   0.56705   0.00000  Uiso   1.00
C1157  C     0.92098   0.80815   0.56562   0.00000  Uiso   1.00
Cu1158 Cu    0.78645   0.83333   0.75000   0.00000  Uiso   1.00
Cu1159 Cu    0.88022   0.83334   0.75000   0.00000  Uiso   1.00
H1160  H     0.94809   0.80135   0.58517   0.00000  Uiso   1.00
H1161  H     0.80813   0.85182   0.58842   0.00000  Uiso   1.00
H1162  H     0.74972   0.84108   0.56049   0.00000  Uiso   1.00
H1163  H     0.69109   0.85318   0.51584   0.00000  Uiso   1.00
H1164  H     0.87725   0.78311   0.87234   0.00000  Uiso   1.00
H1165  H     0.91202   0.95882   0.72330   0.00000  Uiso   1.00
H1166  H     0.94884   0.69055   0.64019   0.00000  Uiso   1.00
H1167  H     0.70409   0.70320   0.62334   0.00000  Uiso   1.00
H1168  H     0.73553   0.71989   0.69677   0.00000  Uiso   1.00
H1169  H     0.67715   0.72773   0.78726   0.00000  Uiso   1.00
H1170  H     0.92244   0.71451   0.80465   0.00000  Uiso   1.00
H1171  H     0.75549   0.70586   0.77878   0.00000  Uiso   1.00
H1172  H     0.75340   0.96475   0.77653   0.00000  Uiso   1.00
H1173  H     0.93692   0.87500   0.81407   0.00000  Uiso   1.00
H1174  H     0.69099   0.87680   0.81166   0.00000  Uiso   1.00
H1175  H     0.73060   0.79496   0.68281   0.00000  Uiso   1.00
H1176  H     0.97689   0.79464   0.68314   0.00000  Uiso   1.00
H1177  H     0.93819   0.77353   0.91582   0.00000  Uiso   1.00
H1178  H     0.96598   0.78205   0.99273   0.00000  Uiso   1.00
N1179  N     0.71598   0.83332   0.74998   0.00000  Uiso   1.00
N1180  N     0.95069   0.83335   0.75000   0.00000  Uiso   1.00
O1181  O     0.79375   0.89345   0.75001   0.00000  Uiso   1.00
O1182  O     0.87294   0.89346   0.75001   0.00000  Uiso   1.00
O1183  O     0.77441   0.83332   0.82549   0.00000  Uiso   1.00
O1184  O     0.85360   0.83333   0.82549   0.00000  Uiso   1.00
O1185  O     0.79373   0.77321   0.75000   0.00000  Uiso   1.00
O1186  O     0.87292   0.77322   0.75000   0.00000  Uiso   1.00
O1187  O     0.81306   0.83334   0.67451   0.00000  Uiso   1.00
O1188  O     0.89225   0.83335   0.67451   0.00000  Uiso   1.00
loop_
_geom_bond_atom_site_label_1
_geom_bond_atom_site_label_2
_geom_bond_distance
_geom_bond_site_symmetry_2
_ccdc_geom_bond_type
Br1    C20     1.916   .     S
C2     O60     1.291   .     A
C2     O59     1.291   .     A
C2     C10     1.447   .     S
C3     C20     1.423   .     A
C3     C24     1.431   .     A
C3     C5      1.493   .     S
C4     H43     1.086   .     S
C4     C10     1.392   .     A
C4     C204    1.386   .     S
C5     O62     1.301   .     A
C5     O61     1.302   .     A
C6     C7      1.417   .     A
C6     C23     1.472   .     S
C6     C400    1.386   1_545 S
C7     C8      1.404   .     A
C7     C16     1.462   .     S
C8     H49     1.078   .     S
C8     C405    1.386   1_545 S
C9     C10     1.395   .     A
C9     H50     1.083   .     S
C9     C206    1.386   .     S
C11    H51     1.082   .     S
C11    N58     1.367   .     A
C11    C78     1.416   .     S
C12    N57     1.365   .     A
C12    H52     1.078   .     S
C12    C143    1.416   1_455 S
C13    C24     1.420   .     A
C13    C616    1.411   .     S
C13    C624    1.421   .     S
C14    H53     1.081   .     S
C14    N57     1.366   .     A
C14    C147    1.418   1_455 S
C15    N58     1.366   .     A
C15    H54     1.081   .     S
C15    C80     1.418   .     S
C16    O63     1.298   .     A
C16    O64     1.290   .     A
C17    O65     1.295   .     A
C17    O66     1.296   .     A
C17    C19     1.465   .     S
C18    C35     1.396   .     A
C18    C625    1.406   1_554 S
C18    H650    1.084   1_554 S
C19    C35     1.400   .     A
C19    C34     1.394   .     A
C20    C21     1.387   .     A
C21    C616    1.381   .     S
C21    H635    1.084   .     S
C22    H40     1.078   .     S
C22    C615    1.381   1_554 S
C22    C607    1.411   1_554 S
C23    C29     1.402   .     A
C23    C25     1.404   .     A
C24    C33     1.416   .     A
C25    H44     1.083   .     S
C25    C92     1.397   .     S
C26    C27     1.397   .     A
C26    H45     1.082   .     S
C26    C157    1.397   1_455 S
C27    H46     1.082   .     S
C27    C160    1.400   1_455 S
C28    C29     1.395   .     A
C28    C93     1.400   .     S
C28    H113    1.081   .     S
C29    H48     1.083   .     S
C30    C34     1.402   .     A
C30    C607    1.421   1_554 S
C30    C625    1.416   1_554 S
C31    C32     1.394   .     A
C31    C612    1.406   .     S
C31    C624    1.416   .     S
C32    H55     1.084   .     S
C32    C33     1.391   .     A
C33    H42     1.079   .     S
C34    H39     1.078   .     S
C35    H38     1.083   .     S
Cu36   O63     1.967   .     S
Cu36   O59     1.975   .     S
Cu36   O65     1.933   .     S
Cu36   N57     2.014   .     S
Cu36   Cu37    2.680   .     S
Cu36   O61     1.950   .     S
Cu37   O62     1.933   .     S
Cu37   O66     1.950   .     S
Cu37   N58     2.014   .     S
Cu37   O60     1.967   .     S
Cu37   O64     1.975   .     S
H41    C615    1.084   1_554 S
H47    C160    1.081   1_455 S
H56    C612    1.084   .     S
Br67   C86     1.916   .     S
C68    O126    1.291   .     A
C68    O125    1.291   .     A
C68    C76     1.447   .     S
C69    C86     1.423   .     A
C69    C90     1.431   .     A
C69    C71     1.493   .     S
C70    H109    1.086   .     S
C70    C76     1.392   .     A
C70    C270    1.386   .     S
C71    O128    1.301   .     A
C71    O127    1.302   .     A
C72    C73     1.417   .     A
C72    C89     1.472   .     S
C72    C466    1.386   1_545 S
C73    C74     1.404   .     A
C73    C82     1.462   .     S
C74    H115    1.078   .     S
C74    C471    1.386   1_545 S
C75    C76     1.395   .     A
C75    H116    1.083   .     S
C75    C272    1.386   .     S
C77    H117    1.082   .     S
C77    N124    1.367   .     A
C77    C144    1.416   .     S
C78    N123    1.365   .     A
C78    H118    1.078   .     S
C79    C90     1.420   .     A
C79    C682    1.411   .     S
C79    C690    1.421   .     S
C80    H119    1.081   .     S
C80    N123    1.366   .     A
C81    N124    1.366   .     A
C81    H120    1.081   .     S
C81    C146    1.418   .     S
C82    O129    1.298   .     A
C82    O130    1.290   .     A
C83    O131    1.295   .     A
C83    O132    1.296   .     A
C83    C85     1.465   .     S
C84    C101    1.396   .     A
C84    C691    1.406   1_554 S
C84    H716    1.084   1_554 S
C85    C101    1.400   .     A
C85    C100    1.394   .     A
C86    C87     1.387   .     A
C87    C682    1.381   .     S
C87    H701    1.084   .     S
C88    H106    1.078   .     S
C88    C681    1.381   1_554 S
C88    C673    1.411   1_554 S
C89    C95     1.402   .     A
C89    C91     1.404   .     A
C90    C99     1.416   .     A
C91    H110    1.083   .     S
C91    C158    1.397   .     S
C92    C93     1.397   .     A
C92    H111    1.082   .     S
C93    H112    1.082   .     S
C94    C95     1.395   .     A
C94    C159    1.400   .     S
C94    H179    1.081   .     S
C95    H114    1.083   .     S
C96    C100    1.402   .     A
C96    C673    1.421   1_554 S
C96    C691    1.416   1_554 S
C97    C98     1.394   .     A
C97    C678    1.406   .     S
C97    C690    1.416   .     S
C98    H121    1.084   .     S
C98    C99     1.391   .     A
C99    H108    1.079   .     S
C100   H105    1.078   .     S
C101   H104    1.083   .     S
Cu102  O129    1.967   .     S
Cu102  O125    1.975   .     S
Cu102  O131    1.933   .     S
Cu102  N123    2.014   .     S
Cu102  Cu103   2.680   .     S
Cu102  O127    1.950   .     S
Cu103  O128    1.933   .     S
Cu103  O132    1.950   .     S
Cu103  N124    2.014   .     S
Cu103  O126    1.967   .     S
Cu103  O130    1.975   .     S
H107   C681    1.084   1_554 S
H122   C678    1.084   .     S
Br133  C152    1.916   .     S
C134   O192    1.291   .     A
C134   O191    1.291   .     A
C134   C142    1.447   .     S
C135   C152    1.423   .     A
C135   C156    1.431   .     A
C135   C137    1.493   .     S
C136   H175    1.086   .     S
C136   C142    1.392   .     A
C136   C336    1.386   .     S
C137   O194    1.301   .     A
C137   O193    1.302   .     A
C138   C139    1.417   .     A
C138   C155    1.472   .     S
C138   C532    1.386   1_545 S
C139   C140    1.404   .     A
C139   C148    1.462   .     S
C140   H181    1.078   .     S
C140   C537    1.386   1_545 S
C141   C142    1.395   .     A
C141   H182    1.083   .     S
C141   C338    1.386   .     S
C143   H183    1.082   .     S
C143   N190    1.367   .     A
C143   C12     1.416   1_655 S
C144   N189    1.365   .     A
C144   H184    1.078   .     S
C145   C156    1.420   .     A
C145   C748    1.411   .     S
C145   C756    1.421   .     S
C146   H185    1.081   .     S
C146   N189    1.366   .     A
C147   N190    1.366   .     A
C147   H186    1.081   .     S
C147   C14     1.418   1_655 S
C148   O195    1.298   .     A
C148   O196    1.290   .     A
C149   O197    1.295   .     A
C149   O198    1.296   .     A
C149   C151    1.465   .     S
C150   C167    1.396   .     A
C150   C757    1.406   1_554 S
C150   H782    1.084   1_554 S
C151   C167    1.400   .     A
C151   C166    1.394   .     A
C152   C153    1.387   .     A
C153   C748    1.381   .     S
C153   H767    1.084   .     S
C154   H172    1.078   .     S
C154   C747    1.381   1_554 S
C154   C739    1.411   1_554 S
C155   C161    1.402   .     A
C155   C157    1.404   .     A
C156   C165    1.416   .     A
C157   H176    1.083   .     S
C157   C26     1.397   1_655 S
C158   C159    1.397   .     A
C158   H177    1.082   .     S
C159   H178    1.082   .     S
C160   C161    1.395   .     A
C160   C27     1.400   1_655 S
C160   H47     1.081   1_655 S
C161   H180    1.083   .     S
C162   C166    1.402   .     A
C162   C739    1.421   1_554 S
C162   C757    1.416   1_554 S
C163   C164    1.394   .     A
C163   C744    1.406   .     S
C163   C756    1.416   .     S
C164   H187    1.084   .     S
C164   C165    1.391   .     A
C165   H174    1.079   .     S
C166   H171    1.078   .     S
C167   H170    1.083   .     S
Cu168  O195    1.967   .     S
Cu168  O191    1.975   .     S
Cu168  O197    1.933   .     S
Cu168  N189    2.014   .     S
Cu168  Cu169   2.680   .     S
Cu168  O193    1.950   .     S
Cu169  O194    1.933   .     S
Cu169  O198    1.950   .     S
Cu169  N190    2.014   .     S
Cu169  O192    1.967   .     S
Cu169  O196    1.975   .     S
H173   C747    1.084   1_554 S
H188   C744    1.084   .     S
Br199  C218    1.916   .     S
C200   O258    1.291   .     A
C200   O257    1.291   .     A
C200   C208    1.447   .     S
C201   C218    1.423   .     A
C201   C222    1.431   .     A
C201   C203    1.493   .     S
C202   H241    1.086   .     S
C202   C208    1.392   .     A
C202   C402    1.386   .     S
C203   O260    1.301   .     A
C203   O259    1.302   .     A
C204   C205    1.417   .     A
C204   C221    1.472   .     S
C205   C206    1.404   .     A
C205   C214    1.462   .     S
C206   H247    1.078   .     S
C207   C208    1.395   .     A
C207   H248    1.083   .     S
C207   C404    1.386   .     S
C209   H249    1.082   .     S
C209   N256    1.367   .     A
C209   C276    1.416   .     S
C210   N255    1.365   .     A
C210   H250    1.078   .     S
C210   C341    1.416   1_455 S
C211   C222    1.420   .     A
C211   C814    1.411   .     S
C211   C822    1.421   .     S
C212   H251    1.081   .     S
C212   N255    1.366   .     A
C212   C345    1.418   1_455 S
C213   N256    1.366   .     A
C213   H252    1.081   .     S
C213   C278    1.418   .     S
C214   O261    1.298   .     A
C214   O262    1.290   .     A
C215   O263    1.295   .     A
C215   O264    1.296   .     A
C215   C217    1.465   .     S
C216   C233    1.396   .     A
C216   C823    1.406   1_554 S
C216   H848    1.084   1_554 S
C217   C233    1.400   .     A
C217   C232    1.394   .     A
C218   C219    1.387   .     A
C219   C814    1.381   .     S
C219   H833    1.084   .     S
C220   H238    1.078   .     S
C220   C813    1.381   1_554 S
C220   C805    1.411   1_554 S
C221   C227    1.402   .     A
C221   C223    1.404   .     A
C222   C231    1.416   .     A
C223   H242    1.083   .     S
C223   C290    1.397   .     S
C224   C225    1.397   .     A
C224   H243    1.082   .     S
C224   C355    1.397   1_455 S
C225   H244    1.082   .     S
C225   C358    1.400   1_455 S
C226   C227    1.395   .     A
C226   C291    1.400   .     S
C226   H311    1.081   .     S
C227   H246    1.083   .     S
C228   C232    1.402   .     A
C228   C805    1.421   1_554 S
C228   C823    1.416   1_554 S
C229   C230    1.394   .     A
C229   C810    1.406   .     S
C229   C822    1.416   .     S
C230   H253    1.084   .     S
C230   C231    1.391   .     A
C231   H240    1.079   .     S
C232   H237    1.078   .     S
C233   H236    1.083   .     S
Cu234  O261    1.967   .     S
Cu234  O257    1.975   .     S
Cu234  O263    1.933   .     S
Cu234  N255    2.014   .     S
Cu234  Cu235   2.680   .     S
Cu234  O259    1.950   .     S
Cu235  O260    1.933   .     S
Cu235  O264    1.950   .     S
Cu235  N256    2.014   .     S
Cu235  O258    1.967   .     S
Cu235  O262    1.975   .     S
H239   C813    1.084   1_554 S
H245   C358    1.081   1_455 S
H254   C810    1.084   .     S
Br265  C284    1.916   .     S
C266   O324    1.291   .     A
C266   O323    1.291   .     A
C266   C274    1.447   .     S
C267   C284    1.423   .     A
C267   C288    1.431   .     A
C267   C269    1.493   .     S
C268   H307    1.086   .     S
C268   C274    1.392   .     A
C268   C468    1.386   .     S
C269   O326    1.301   .     A
C269   O325    1.302   .     A
C270   C271    1.417   .     A
C270   C287    1.472   .     S
C271   C272    1.404   .     A
C271   C280    1.462   .     S
C272   H313    1.078   .     S
C273   C274    1.395   .     A
C273   H314    1.083   .     S
C273   C470    1.386   .     S
C275   H315    1.082   .     S
C275   N322    1.367   .     A
C275   C342    1.416   .     S
C276   N321    1.365   .     A
C276   H316    1.078   .     S
C277   C288    1.420   .     A
C277   C880    1.411   .     S
C277   C888    1.421   .     S
C278   H317    1.081   .     S
C278   N321    1.366   .     A
C279   N322    1.366   .     A
C279   H318    1.081   .     S
C279   C344    1.418   .     S
C280   O327    1.298   .     A
C280   O328    1.290   .     A
C281   O329    1.295   .     A
C281   O330    1.296   .     A
C281   C283    1.465   .     S
C282   C299    1.396   .     A
C282   C889    1.406   1_554 S
C282   H914    1.084   1_554 S
C283   C299    1.400   .     A
C283   C298    1.394   .     A
C284   C285    1.387   .     A
C285   C880    1.381   .     S
C285   H899    1.084   .     S
C286   H304    1.078   .     S
C286   C879    1.381   1_554 S
C286   C871    1.411   1_554 S
C287   C293    1.402   .     A
C287   C289    1.404   .     A
C288   C297    1.416   .     A
C289   H308    1.083   .     S
C289   C356    1.397   .     S
C290   C291    1.397   .     A
C290   H309    1.082   .     S
C291   H310    1.082   .     S
C292   C293    1.395   .     A
C292   C357    1.400   .     S
C292   H377    1.081   .     S
C293   H312    1.083   .     S
C294   C298    1.402   .     A
C294   C871    1.421   1_554 S
C294   C889    1.416   1_554 S
C295   C296    1.394   .     A
C295   C876    1.406   .     S
C295   C888    1.416   .     S
C296   H319    1.084   .     S
C296   C297    1.391   .     A
C297   H306    1.079   .     S
C298   H303    1.078   .     S
C299   H302    1.083   .     S
Cu300  O327    1.967   .     S
Cu300  O323    1.975   .     S
Cu300  O329    1.933   .     S
Cu300  N321    2.014   .     S
Cu300  Cu301   2.680   .     S
Cu300  O325    1.950   .     S
Cu301  O326    1.933   .     S
Cu301  O330    1.950   .     S
Cu301  N322    2.014   .     S
Cu301  O324    1.967   .     S
Cu301  O328    1.975   .     S
H305   C879    1.084   1_554 S
H320   C876    1.084   .     S
Br331  C350    1.916   .     S
C332   O390    1.291   .     A
C332   O389    1.291   .     A
C332   C340    1.447   .     S
C333   C350    1.423   .     A
C333   C354    1.431   .     A
C333   C335    1.493   .     S
C334   H373    1.086   .     S
C334   C340    1.392   .     A
C334   C534    1.386   .     S
C335   O392    1.301   .     A
C335   O391    1.302   .     A
C336   C337    1.417   .     A
C336   C353    1.472   .     S
C337   C338    1.404   .     A
C337   C346    1.462   .     S
C338   H379    1.078   .     S
C339   C340    1.395   .     A
C339   H380    1.083   .     S
C339   C536    1.386   .     S
C341   H381    1.082   .     S
C341   N388    1.367   .     A
C341   C210    1.416   1_655 S
C342   N387    1.365   .     A
C342   H382    1.078   .     S
C343   C354    1.420   .     A
C343   C946    1.411   .     S
C343   C954    1.421   .     S
C344   H383    1.081   .     S
C344   N387    1.366   .     A
C345   N388    1.366   .     A
C345   H384    1.081   .     S
C345   C212    1.418   1_655 S
C346   O393    1.298   .     A
C346   O394    1.290   .     A
C347   O395    1.295   .     A
C347   O396    1.296   .     A
C347   C349    1.465   .     S
C348   C365    1.396   .     A
C348   C955    1.406   1_554 S
C348   H980    1.084   1_554 S
C349   C365    1.400   .     A
C349   C364    1.394   .     A
C350   C351    1.387   .     A
C351   C946    1.381   .     S
C351   H965    1.084   .     S
C352   H370    1.078   .     S
C352   C945    1.381   1_554 S
C352   C937    1.411   1_554 S
C353   C359    1.402   .     A
C353   C355    1.404   .     A
C354   C363    1.416   .     A
C355   H374    1.083   .     S
C355   C224    1.397   1_655 S
C356   C357    1.397   .     A
C356   H375    1.082   .     S
C357   H376    1.082   .     S
C358   C359    1.395   .     A
C358   C225    1.400   1_655 S
C358   H245    1.081   1_655 S
C359   H378    1.083   .     S
C360   C364    1.402   .     A
C360   C937    1.421   1_554 S
C360   C955    1.416   1_554 S
C361   C362    1.394   .     A
C361   C942    1.406   .     S
C361   C954    1.416   .     S
C362   H385    1.084   .     S
C362   C363    1.391   .     A
C363   H372    1.079   .     S
C364   H369    1.078   .     S
C365   H368    1.083   .     S
Cu366  O393    1.967   .     S
Cu366  O389    1.975   .     S
Cu366  O395    1.933   .     S
Cu366  N387    2.014   .     S
Cu366  Cu367   2.680   .     S
Cu366  O391    1.950   .     S
Cu367  O392    1.933   .     S
Cu367  O396    1.950   .     S
Cu367  N388    2.014   .     S
Cu367  O390    1.967   .     S
Cu367  O394    1.975   .     S
H371   C945    1.084   1_554 S
H386   C942    1.084   .     S
Br397  C416    1.916   .     S
C398   O456    1.291   .     A
C398   O455    1.291   .     A
C398   C406    1.447   .     S
C399   C416    1.423   .     A
C399   C420    1.431   .     A
C399   C401    1.493   .     S
C400   H439    1.086   .     S
C400   C406    1.392   .     A
C400   C6      1.386   1_565 S
C401   O458    1.301   .     A
C401   O457    1.302   .     A
C402   C403    1.417   .     A
C402   C419    1.472   .     S
C403   C404    1.404   .     A
C403   C412    1.462   .     S
C404   H445    1.078   .     S
C405   C406    1.395   .     A
C405   H446    1.083   .     S
C405   C8      1.386   1_565 S
C407   H447    1.082   .     S
C407   N454    1.367   .     A
C407   C474    1.416   .     S
C408   N453    1.365   .     A
C408   H448    1.078   .     S
C408   C539    1.416   1_455 S
C409   C420    1.420   .     A
C409   C1012   1.411   .     S
C409   C1020   1.421   .     S
C410   H449    1.081   .     S
C410   N453    1.366   .     A
C410   C543    1.418   1_455 S
C411   N454    1.366   .     A
C411   H450    1.081   .     S
C411   C476    1.418   .     S
C412   O459    1.298   .     A
C412   O460    1.290   .     A
C413   O461    1.295   .     A
C413   O462    1.296   .     A
C413   C415    1.465   .     S
C414   C431    1.396   .     A
C414   C1021   1.406   1_554 S
C414   H1046   1.084   1_554 S
C415   C431    1.400   .     A
C415   C430    1.394   .     A
C416   C417    1.387   .     A
C417   C1012   1.381   .     S
C417   H1031   1.084   .     S
C418   H436    1.078   .     S
C418   C1011   1.381   1_554 S
C418   C1003   1.411   1_554 S
C419   C425    1.402   .     A
C419   C421    1.404   .     A
C420   C429    1.416   .     A
C421   H440    1.083   .     S
C421   C488    1.397   .     S
C422   C423    1.397   .     A
C422   H441    1.082   .     S
C422   C553    1.397   1_455 S
C423   H442    1.082   .     S
C423   C556    1.400   1_455 S
C424   C425    1.395   .     A
C424   C489    1.400   .     S
C424   H509    1.081   .     S
C425   H444    1.083   .     S
C426   C430    1.402   .     A
C426   C1003   1.421   1_554 S
C426   C1021   1.416   1_554 S
C427   C428    1.394   .     A
C427   C1008   1.406   .     S
C427   C1020   1.416   .     S
C428   H451    1.084   .     S
C428   C429    1.391   .     A
C429   H438    1.079   .     S
C430   H435    1.078   .     S
C431   H434    1.083   .     S
Cu432  O459    1.967   .     S
Cu432  O455    1.975   .     S
Cu432  O461    1.933   .     S
Cu432  N453    2.014   .     S
Cu432  Cu433   2.680   .     S
Cu432  O457    1.950   .     S
Cu433  O458    1.933   .     S
Cu433  O462    1.950   .     S
Cu433  N454    2.014   .     S
Cu433  O456    1.967   .     S
Cu433  O460    1.975   .     S
H437   C1011   1.084   1_554 S
H443   C556    1.081   1_455 S
H452   C1008   1.084   .     S
Br463  C482    1.916   .     S
C464   O522    1.291   .     A
C464   O521    1.291   .     A
C464   C472    1.447   .     S
C465   C482    1.423   .     A
C465   C486    1.431   .     A
C465   C467    1.493   .     S
C466   H505    1.086   .     S
C466   C472    1.392   .     A
C466   C72     1.386   1_565 S
C467   O524    1.301   .     A
C467   O523    1.302   .     A
C468   C469    1.417   .     A
C468   C485    1.472   .     S
C469   C470    1.404   .     A
C469   C478    1.462   .     S
C470   H511    1.078   .     S
C471   C472    1.395   .     A
C471   H512    1.083   .     S
C471   C74     1.386   1_565 S
C473   H513    1.082   .     S
C473   N520    1.367   .     A
C473   C540    1.416   .     S
C474   N519    1.365   .     A
C474   H514    1.078   .     S
C475   C486    1.420   .     A
C475   C1078   1.411   .     S
C475   C1086   1.421   .     S
C476   H515    1.081   .     S
C476   N519    1.366   .     A
C477   N520    1.366   .     A
C477   H516    1.081   .     S
C477   C542    1.418   .     S
C478   O525    1.298   .     A
C478   O526    1.290   .     A
C479   O527    1.295   .     A
C479   O528    1.296   .     A
C479   C481    1.465   .     S
C480   C497    1.396   .     A
C480   C1087   1.406   1_554 S
C480   H1112   1.084   1_554 S
C481   C497    1.400   .     A
C481   C496    1.394   .     A
C482   C483    1.387   .     A
C483   C1078   1.381   .     S
C483   H1097   1.084   .     S
C484   H502    1.078   .     S
C484   C1077   1.381   1_554 S
C484   C1069   1.411   1_554 S
C485   C491    1.402   .     A
C485   C487    1.404   .     A
C486   C495    1.416   .     A
C487   H506    1.083   .     S
C487   C554    1.397   .     S
C488   C489    1.397   .     A
C488   H507    1.082   .     S
C489   H508    1.082   .     S
C490   C491    1.395   .     A
C490   C555    1.400   .     S
C490   H575    1.081   .     S
C491   H510    1.083   .     S
C492   C496    1.402   .     A
C492   C1069   1.421   1_554 S
C492   C1087   1.416   1_554 S
C493   C494    1.394   .     A
C493   C1074   1.406   .     S
C493   C1086   1.416   .     S
C494   H517    1.084   .     S
C494   C495    1.391   .     A
C495   H504    1.079   .     S
C496   H501    1.078   .     S
C497   H500    1.083   .     S
Cu498  O525    1.967   .     S
Cu498  O521    1.975   .     S
Cu498  O527    1.933   .     S
Cu498  N519    2.014   .     S
Cu498  Cu499   2.680   .     S
Cu498  O523    1.950   .     S
Cu499  O524    1.933   .     S
Cu499  O528    1.950   .     S
Cu499  N520    2.014   .     S
Cu499  O522    1.967   .     S
Cu499  O526    1.975   .     S
H503   C1077   1.084   1_554 S
H518   C1074   1.084   .     S
Br529  C548    1.916   .     S
C530   O588    1.291   .     A
C530   O587    1.291   .     A
C530   C538    1.447   .     S
C531   C548    1.423   .     A
C531   C552    1.431   .     A
C531   C533    1.493   .     S
C532   H571    1.086   .     S
C532   C538    1.392   .     A
C532   C138    1.386   1_565 S
C533   O590    1.301   .     A
C533   O589    1.302   .     A
C534   C535    1.417   .     A
C534   C551    1.472   .     S
C535   C536    1.404   .     A
C535   C544    1.462   .     S
C536   H577    1.078   .     S
C537   C538    1.395   .     A
C537   H578    1.083   .     S
C537   C140    1.386   1_565 S
C539   H579    1.082   .     S
C539   N586    1.367   .     A
C539   C408    1.416   1_655 S
C540   N585    1.365   .     A
C540   H580    1.078   .     S
C541   C552    1.420   .     A
C541   C1144   1.411   .     S
C541   C1152   1.421   .     S
C542   H581    1.081   .     S
C542   N585    1.366   .     A
C543   N586    1.366   .     A
C543   H582    1.081   .     S
C543   C410    1.418   1_655 S
C544   O591    1.298   .     A
C544   O592    1.290   .     A
C545   O593    1.295   .     A
C545   O594    1.296   .     A
C545   C547    1.465   .     S
C546   C563    1.396   .     A
C546   C1153   1.406   1_554 S
C546   H1178   1.084   1_554 S
C547   C563    1.400   .     A
C547   C562    1.394   .     A
C548   C549    1.387   .     A
C549   C1144   1.381   .     S
C549   H1163   1.084   .     S
C550   H568    1.078   .     S
C550   C1143   1.381   1_554 S
C550   C1135   1.411   1_554 S
C551   C557    1.402   .     A
C551   C553    1.404   .     A
C552   C561    1.416   .     A
C553   H572    1.083   .     S
C553   C422    1.397   1_655 S
C554   C555    1.397   .     A
C554   H573    1.082   .     S
C555   H574    1.082   .     S
C556   C557    1.395   .     A
C556   C423    1.400   1_655 S
C556   H443    1.081   1_655 S
C557   H576    1.083   .     S
C558   C562    1.402   .     A
C558   C1135   1.421   1_554 S
C558   C1153   1.416   1_554 S
C559   C560    1.394   .     A
C559   C1140   1.406   .     S
C559   C1152   1.416   .     S
C560   H583    1.084   .     S
C560   C561    1.391   .     A
C561   H570    1.079   .     S
C562   H567    1.078   .     S
C563   H566    1.083   .     S
Cu564  O591    1.967   .     S
Cu564  O587    1.975   .     S
Cu564  O593    1.933   .     S
Cu564  N585    2.014   .     S
Cu564  Cu565   2.680   .     S
Cu564  O589    1.950   .     S
Cu565  O590    1.933   .     S
Cu565  O594    1.950   .     S
Cu565  N586    2.014   .     S
Cu565  O588    1.967   .     S
Cu565  O592    1.975   .     S
H569   C1143   1.084   1_554 S
H584   C1140   1.084   .     S
Br595  C614    1.916   .     S
C596   O654    1.291   .     A
C596   O653    1.291   .     A
C596   C604    1.447   .     S
C597   C614    1.423   .     A
C597   C618    1.431   .     A
C597   C599    1.493   .     S
C598   H637    1.086   .     S
C598   C604    1.392   .     A
C598   C798    1.386   .     S
C599   O656    1.301   .     A
C599   O655    1.302   .     A
C600   C601    1.417   .     A
C600   C617    1.472   .     S
C600   C994    1.386   1_545 S
C601   C602    1.404   .     A
C601   C610    1.462   .     S
C602   H643    1.078   .     S
C602   C999    1.386   1_545 S
C603   C604    1.395   .     A
C603   H644    1.083   .     S
C603   C800    1.386   .     S
C605   H645    1.082   .     S
C605   N652    1.367   .     A
C605   C672    1.416   .     S
C606   N651    1.365   .     A
C606   H646    1.078   .     S
C606   C737    1.416   1_455 S
C607   C618    1.420   .     A
C607   C22     1.411   1_556 S
C607   C30     1.421   1_556 S
C608   H647    1.081   .     S
C608   N651    1.366   .     A
C608   C741    1.418   1_455 S
C609   N652    1.366   .     A
C609   H648    1.081   .     S
C609   C674    1.418   .     S
C610   O657    1.298   .     A
C610   O658    1.290   .     A
C611   O659    1.295   .     A
C611   O660    1.296   .     A
C611   C613    1.465   .     S
C612   C629    1.396   .     A
C613   C629    1.400   .     A
C613   C628    1.394   .     A
C614   C615    1.387   .     A
C615   C22     1.381   1_556 S
C615   H41     1.084   1_556 S
C616   H634    1.078   .     S
C617   C623    1.402   .     A
C617   C619    1.404   .     A
C618   C627    1.416   .     A
C619   H638    1.083   .     S
C619   C686    1.397   .     S
C620   C621    1.397   .     A
C620   H639    1.082   .     S
C620   C751    1.397   1_455 S
C621   H640    1.082   .     S
C621   C754    1.400   1_455 S
C622   C623    1.395   .     A
C622   C687    1.400   .     S
C622   H707    1.081   .     S
C623   H642    1.083   .     S
C624   C628    1.402   .     A
C625   C626    1.394   .     A
C625   C18     1.406   1_556 S
C625   C30     1.416   1_556 S
C626   H649    1.084   .     S
C626   C627    1.391   .     A
C627   H636    1.079   .     S
C628   H633    1.078   .     S
C629   H632    1.083   .     S
Cu630  O657    1.967   .     S
Cu630  O653    1.975   .     S
Cu630  O659    1.933   .     S
Cu630  N651    2.014   .     S
Cu630  Cu631   2.680   .     S
Cu630  O655    1.950   .     S
Cu631  O656    1.933   .     S
Cu631  O660    1.950   .     S
Cu631  N652    2.014   .     S
Cu631  O654    1.967   .     S
Cu631  O658    1.975   .     S
H641   C754    1.081   1_455 S
H650   C18     1.084   1_556 S
Br661  C680    1.916   .     S
C662   O720    1.291   .     A
C662   O719    1.291   .     A
C662   C670    1.447   .     S
C663   C680    1.423   .     A
C663   C684    1.431   .     A
C663   C665    1.493   .     S
C664   H703    1.086   .     S
C664   C670    1.392   .     A
C664   C864    1.386   .     S
C665   O722    1.301   .     A
C665   O721    1.302   .     A
C666   C667    1.417   .     A
C666   C683    1.472   .     S
C666   C1060   1.386   1_545 S
C667   C668    1.404   .     A
C667   C676    1.462   .     S
C668   H709    1.078   .     S
C668   C1065   1.386   1_545 S
C669   C670    1.395   .     A
C669   H710    1.083   .     S
C669   C866    1.386   .     S
C671   H711    1.082   .     S
C671   N718    1.367   .     A
C671   C738    1.416   .     S
C672   N717    1.365   .     A
C672   H712    1.078   .     S
C673   C684    1.420   .     A
C673   C88     1.411   1_556 S
C673   C96     1.421   1_556 S
C674   H713    1.081   .     S
C674   N717    1.366   .     A
C675   N718    1.366   .     A
C675   H714    1.081   .     S
C675   C740    1.418   .     S
C676   O723    1.298   .     A
C676   O724    1.290   .     A
C677   O725    1.295   .     A
C677   O726    1.296   .     A
C677   C679    1.465   .     S
C678   C695    1.396   .     A
C679   C695    1.400   .     A
C679   C694    1.394   .     A
C680   C681    1.387   .     A
C681   C88     1.381   1_556 S
C681   H107    1.084   1_556 S
C682   H700    1.078   .     S
C683   C689    1.402   .     A
C683   C685    1.404   .     A
C684   C693    1.416   .     A
C685   H704    1.083   .     S
C685   C752    1.397   .     S
C686   C687    1.397   .     A
C686   H705    1.082   .     S
C687   H706    1.082   .     S
C688   C689    1.395   .     A
C688   C753    1.400   .     S
C688   H773    1.081   .     S
C689   H708    1.083   .     S
C690   C694    1.402   .     A
C691   C692    1.394   .     A
C691   C84     1.406   1_556 S
C691   C96     1.416   1_556 S
C692   H715    1.084   .     S
C692   C693    1.391   .     A
C693   H702    1.079   .     S
C694   H699    1.078   .     S
C695   H698    1.083   .     S
Cu696  O723    1.967   .     S
Cu696  O719    1.975   .     S
Cu696  O725    1.933   .     S
Cu696  N717    2.014   .     S
Cu696  Cu697   2.680   .     S
Cu696  O721    1.950   .     S
Cu697  O722    1.933   .     S
Cu697  O726    1.950   .     S
Cu697  N718    2.014   .     S
Cu697  O720    1.967   .     S
Cu697  O724    1.975   .     S
H716   C84     1.084   1_556 S
Br727  C746    1.916   .     S
C728   O786    1.291   .     A
C728   O785    1.291   .     A
C728   C736    1.447   .     S
C729   C746    1.423   .     A
C729   C750    1.431   .     A
C729   C731    1.493   .     S
C730   H769    1.086   .     S
C730   C736    1.392   .     A
C730   C930    1.386   .     S
C731   O788    1.301   .     A
C731   O787    1.302   .     A
C732   C733    1.417   .     A
C732   C749    1.472   .     S
C732   C1126   1.386   1_545 S
C733   C734    1.404   .     A
C733   C742    1.462   .     S
C734   H775    1.078   .     S
C734   C1131   1.386   1_545 S
C735   C736    1.395   .     A
C735   H776    1.083   .     S
C735   C932    1.386   .     S
C737   H777    1.082   .     S
C737   N784    1.367   .     A
C737   C606    1.416   1_655 S
C738   N783    1.365   .     A
C738   H778    1.078   .     S
C739   C750    1.420   .     A
C739   C154    1.411   1_556 S
C739   C162    1.421   1_556 S
C740   H779    1.081   .     S
C740   N783    1.366   .     A
C741   N784    1.366   .     A
C741   H780    1.081   .     S
C741   C608    1.418   1_655 S
C742   O789    1.298   .     A
C742   O790    1.290   .     A
C743   O791    1.295   .     A
C743   O792    1.296   .     A
C743   C745    1.465   .     S
C744   C761    1.396   .     A
C745   C761    1.400   .     A
C745   C760    1.394   .     A
C746   C747    1.387   .     A
C747   C154    1.381   1_556 S
C747   H173    1.084   1_556 S
C748   H766    1.078   .     S
C749   C755    1.402   .     A
C749   C751    1.404   .     A
C750   C759    1.416   .     A
C751   H770    1.083   .     S
C751   C620    1.397   1_655 S
C752   C753    1.397   .     A
C752   H771    1.082   .     S
C753   H772    1.082   .     S
C754   C755    1.395   .     A
C754   C621    1.400   1_655 S
C754   H641    1.081   1_655 S
C755   H774    1.083   .     S
C756   C760    1.402   .     A
C757   C758    1.394   .     A
C757   C150    1.406   1_556 S
C757   C162    1.416   1_556 S
C758   H781    1.084   .     S
C758   C759    1.391   .     A
C759   H768    1.079   .     S
C760   H765    1.078   .     S
C761   H764    1.083   .     S
Cu762  O789    1.967   .     S
Cu762  O785    1.975   .     S
Cu762  O791    1.933   .     S
Cu762  N783    2.014   .     S
Cu762  Cu763   2.680   .     S
Cu762  O787    1.950   .     S
Cu763  O788    1.933   .     S
Cu763  O792    1.950   .     S
Cu763  N784    2.014   .     S
Cu763  O786    1.967   .     S
Cu763  O790    1.975   .     S
H782   C150    1.084   1_556 S
Br793  C812    1.916   .     S
C794   O852    1.291   .     A
C794   O851    1.291   .     A
C794   C802    1.447   .     S
C795   C812    1.423   .     A
C795   C816    1.431   .     A
C795   C797    1.493   .     S
C796   H835    1.086   .     S
C796   C802    1.392   .     A
C796   C996    1.386   .     S
C797   O854    1.301   .     A
C797   O853    1.302   .     A
C798   C799    1.417   .     A
C798   C815    1.472   .     S
C799   C800    1.404   .     A
C799   C808    1.462   .     S
C800   H841    1.078   .     S
C801   C802    1.395   .     A
C801   H842    1.083   .     S
C801   C998    1.386   .     S
C803   H843    1.082   .     S
C803   N850    1.367   .     A
C803   C870    1.416   .     S
C804   N849    1.365   .     A
C804   H844    1.078   .     S
C804   C935    1.416   1_455 S
C805   C816    1.420   .     A
C805   C220    1.411   1_556 S
C805   C228    1.421   1_556 S
C806   H845    1.081   .     S
C806   N849    1.366   .     A
C806   C939    1.418   1_455 S
C807   N850    1.366   .     A
C807   H846    1.081   .     S
C807   C872    1.418   .     S
C808   O855    1.298   .     A
C808   O856    1.290   .     A
C809   O857    1.295   .     A
C809   O858    1.296   .     A
C809   C811    1.465   .     S
C810   C827    1.396   .     A
C811   C827    1.400   .     A
C811   C826    1.394   .     A
C812   C813    1.387   .     A
C813   C220    1.381   1_556 S
C813   H239    1.084   1_556 S
C814   H832    1.078   .     S
C815   C821    1.402   .     A
C815   C817    1.404   .     A
C816   C825    1.416   .     A
C817   H836    1.083   .     S
C817   C884    1.397   .     S
C818   C819    1.397   .     A
C818   H837    1.082   .     S
C818   C949    1.397   1_455 S
C819   H838    1.082   .     S
C819   C952    1.400   1_455 S
C820   C821    1.395   .     A
C820   C885    1.400   .     S
C820   H905    1.081   .     S
C821   H840    1.083   .     S
C822   C826    1.402   .     A
C823   C824    1.394   .     A
C823   C216    1.406   1_556 S
C823   C228    1.416   1_556 S
C824   H847    1.084   .     S
C824   C825    1.391   .     A
C825   H834    1.079   .     S
C826   H831    1.078   .     S
C827   H830    1.083   .     S
Cu828  O855    1.967   .     S
Cu828  O851    1.975   .     S
Cu828  O857    1.933   .     S
Cu828  N849    2.014   .     S
Cu828  Cu829   2.680   .     S
Cu828  O853    1.950   .     S
Cu829  O854    1.933   .     S
Cu829  O858    1.950   .     S
Cu829  N850    2.014   .     S
Cu829  O852    1.967   .     S
Cu829  O856    1.975   .     S
H839   C952    1.081   1_455 S
H848   C216    1.084   1_556 S
Br859  C878    1.916   .     S
C860   O918    1.291   .     A
C860   O917    1.291   .     A
C860   C868    1.447   .     S
C861   C878    1.423   .     A
C861   C882    1.431   .     A
C861   C863    1.493   .     S
C862   H901    1.086   .     S
C862   C868    1.392   .     A
C862   C1062   1.386   .     S
C863   O920    1.301   .     A
C863   O919    1.302   .     A
C864   C865    1.417   .     A
C864   C881    1.472   .     S
C865   C866    1.404   .     A
C865   C874    1.462   .     S
C866   H907    1.078   .     S
C867   C868    1.395   .     A
C867   H908    1.083   .     S
C867   C1064   1.386   .     S
C869   H909    1.082   .     S
C869   N916    1.367   .     A
C869   C936    1.416   .     S
C870   N915    1.365   .     A
C870   H910    1.078   .     S
C871   C882    1.420   .     A
C871   C286    1.411   1_556 S
C871   C294    1.421   1_556 S
C872   H911    1.081   .     S
C872   N915    1.366   .     A
C873   N916    1.366   .     A
C873   H912    1.081   .     S
C873   C938    1.418   .     S
C874   O921    1.298   .     A
C874   O922    1.290   .     A
C875   O923    1.295   .     A
C875   O924    1.296   .     A
C875   C877    1.465   .     S
C876   C893    1.396   .     A
C877   C893    1.400   .     A
C877   C892    1.394   .     A
C878   C879    1.387   .     A
C879   C286    1.381   1_556 S
C879   H305    1.084   1_556 S
C880   H898    1.078   .     S
C881   C887    1.402   .     A
C881   C883    1.404   .     A
C882   C891    1.416   .     A
C883   H902    1.083   .     S
C883   C950    1.397   .     S
C884   C885    1.397   .     A
C884   H903    1.082   .     S
C885   H904    1.082   .     S
C886   C887    1.395   .     A
C886   C951    1.400   .     S
C886   H971    1.081   .     S
C887   H906    1.083   .     S
C888   C892    1.402   .     A
C889   C890    1.394   .     A
C889   C282    1.406   1_556 S
C889   C294    1.416   1_556 S
C890   H913    1.084   .     S
C890   C891    1.391   .     A
C891   H900    1.079   .     S
C892   H897    1.078   .     S
C893   H896    1.083   .     S
Cu894  O921    1.967   .     S
Cu894  O917    1.975   .     S
Cu894  O923    1.933   .     S
Cu894  N915    2.014   .     S
Cu894  Cu895   2.680   .     S
Cu894  O919    1.950   .     S
Cu895  O920    1.933   .     S
Cu895  O924    1.950   .     S
Cu895  N916    2.014   .     S
Cu895  O918    1.967   .     S
Cu895  O922    1.975   .     S
H914   C282    1.084   1_556 S
Br925  C944    1.916   .     S
C926   O984    1.291   .     A
C926   O983    1.291   .     A
C926   C934    1.447   .     S
C927   C944    1.423   .     A
C927   C948    1.431   .     A
C927   C929    1.493   .     S
C928   H967    1.086   .     S
C928   C934    1.392   .     A
C928   C1128   1.386   .     S
C929   O986    1.301   .     A
C929   O985    1.302   .     A
C930   C931    1.417   .     A
C930   C947    1.472   .     S
C931   C932    1.404   .     A
C931   C940    1.462   .     S
C932   H973    1.078   .     S
C933   C934    1.395   .     A
C933   H974    1.083   .     S
C933   C1130   1.386   .     S
C935   H975    1.082   .     S
C935   N982    1.367   .     A
C935   C804    1.416   1_655 S
C936   N981    1.365   .     A
C936   H976    1.078   .     S
C937   C948    1.420   .     A
C937   C352    1.411   1_556 S
C937   C360    1.421   1_556 S
C938   H977    1.081   .     S
C938   N981    1.366   .     A
C939   N982    1.366   .     A
C939   H978    1.081   .     S
C939   C806    1.418   1_655 S
C940   O987    1.298   .     A
C940   O988    1.290   .     A
C941   O989    1.295   .     A
C941   O990    1.296   .     A
C941   C943    1.465   .     S
C942   C959    1.396   .     A
C943   C959    1.400   .     A
C943   C958    1.394   .     A
C944   C945    1.387   .     A
C945   C352    1.381   1_556 S
C945   H371    1.084   1_556 S
C946   H964    1.078   .     S
C947   C953    1.402   .     A
C947   C949    1.404   .     A
C948   C957    1.416   .     A
C949   H968    1.083   .     S
C949   C818    1.397   1_655 S
C950   C951    1.397   .     A
C950   H969    1.082   .     S
C951   H970    1.082   .     S
C952   C953    1.395   .     A
C952   C819    1.400   1_655 S
C952   H839    1.081   1_655 S
C953   H972    1.083   .     S
C954   C958    1.402   .     A
C955   C956    1.394   .     A
C955   C348    1.406   1_556 S
C955   C360    1.416   1_556 S
C956   H979    1.084   .     S
C956   C957    1.391   .     A
C957   H966    1.079   .     S
C958   H963    1.078   .     S
C959   H962    1.083   .     S
Cu960  O987    1.967   .     S
Cu960  O983    1.975   .     S
Cu960  O989    1.933   .     S
Cu960  N981    2.014   .     S
Cu960  Cu961   2.680   .     S
Cu960  O985    1.950   .     S
Cu961  O986    1.933   .     S
Cu961  O990    1.950   .     S
Cu961  N982    2.014   .     S
Cu961  O984    1.967   .     S
Cu961  O988    1.975   .     S
H980   C348    1.084   1_556 S
Br991  C1010   1.916   .     S
C992   O1050   1.291   .     A
C992   O1049   1.291   .     A
C992   C1000   1.447   .     S
C993   C1010   1.423   .     A
C993   C1014   1.431   .     A
C993   C995    1.493   .     S
C994   H1033   1.086   .     S
C994   C1000   1.392   .     A
C994   C600    1.386   1_565 S
C995   O1052   1.301   .     A
C995   O1051   1.302   .     A
C996   C997    1.417   .     A
C996   C1013   1.472   .     S
C997   C998    1.404   .     A
C997   C1006   1.462   .     S
C998   H1039   1.078   .     S
C999   C1000   1.395   .     A
C999   H1040   1.083   .     S
C999   C602    1.386   1_565 S
C1001  H1041   1.082   .     S
C1001  N1048   1.367   .     A
C1001  C1068   1.416   .     S
C1002  N1047   1.365   .     A
C1002  H1042   1.078   .     S
C1002  C1133   1.416   1_455 S
C1003  C1014   1.420   .     A
C1003  C418    1.411   1_556 S
C1003  C426    1.421   1_556 S
C1004  H1043   1.081   .     S
C1004  N1047   1.366   .     A
C1004  C1137   1.418   1_455 S
C1005  N1048   1.366   .     A
C1005  H1044   1.081   .     S
C1005  C1070   1.418   .     S
C1006  O1053   1.298   .     A
C1006  O1054   1.290   .     A
C1007  O1055   1.295   .     A
C1007  O1056   1.296   .     A
C1007  C1009   1.465   .     S
C1008  C1025   1.396   .     A
C1009  C1025   1.400   .     A
C1009  C1024   1.394   .     A
C1010  C1011   1.387   .     A
C1011  C418    1.381   1_556 S
C1011  H437    1.084   1_556 S
C1012  H1030   1.078   .     S
C1013  C1019   1.402   .     A
C1013  C1015   1.404   .     A
C1014  C1023   1.416   .     A
C1015  H1034   1.083   .     S
C1015  C1082   1.397   .     S
C1016  C1017   1.397   .     A
C1016  H1035   1.082   .     S
C1016  C1147   1.397   1_455 S
C1017  H1036   1.082   .     S
C1017  C1150   1.400   1_455 S
C1018  C1019   1.395   .     A
C1018  C1083   1.400   .     S
C1018  H1103   1.081   .     S
C1019  H1038   1.083   .     S
C1020  C1024   1.402   .     A
C1021  C1022   1.394   .     A
C1021  C414    1.406   1_556 S
C1021  C426    1.416   1_556 S
C1022  H1045   1.084   .     S
C1022  C1023   1.391   .     A
C1023  H1032   1.079   .     S
C1024  H1029   1.078   .     S
C1025  H1028   1.083   .     S
Cu1026 O1053   1.967   .     S
Cu1026 O1049   1.975   .     S
Cu1026 O1055   1.933   .     S
Cu1026 N1047   2.014   .     S
Cu1026 Cu1027  2.680   .     S
Cu1026 O1051   1.950   .     S
Cu1027 O1052   1.933   .     S
Cu1027 O1056   1.950   .     S
Cu1027 N1048   2.014   .     S
Cu1027 O1050   1.967   .     S
Cu1027 O1054   1.975   .     S
H1037  C1150   1.081   1_455 S
H1046  C414    1.084   1_556 S
Br1057 C1076   1.916   .     S
C1058  O1116   1.291   .     A
C1058  O1115   1.291   .     A
C1058  C1066   1.447   .     S
C1059  C1076   1.423   .     A
C1059  C1080   1.431   .     A
C1059  C1061   1.493   .     S
C1060  H1099   1.086   .     S
C1060  C1066   1.392   .     A
C1060  C666    1.386   1_565 S
C1061  O1118   1.301   .     A
C1061  O1117   1.302   .     A
C1062  C1063   1.417   .     A
C1062  C1079   1.472   .     S
C1063  C1064   1.404   .     A
C1063  C1072   1.462   .     S
C1064  H1105   1.078   .     S
C1065  C1066   1.395   .     A
C1065  H1106   1.083   .     S
C1065  C668    1.386   1_565 S
C1067  H1107   1.082   .     S
C1067  N1114   1.367   .     A
C1067  C1134   1.416   .     S
C1068  N1113   1.365   .     A
C1068  H1108   1.078   .     S
C1069  C1080   1.420   .     A
C1069  C484    1.411   1_556 S
C1069  C492    1.421   1_556 S
C1070  H1109   1.081   .     S
C1070  N1113   1.366   .     A
C1071  N1114   1.366   .     A
C1071  H1110   1.081   .     S
C1071  C1136   1.418   .     S
C1072  O1119   1.298   .     A
C1072  O1120   1.290   .     A
C1073  O1121   1.295   .     A
C1073  O1122   1.296   .     A
C1073  C1075   1.465   .     S
C1074  C1091   1.396   .     A
C1075  C1091   1.400   .     A
C1075  C1090   1.394   .     A
C1076  C1077   1.387   .     A
C1077  C484    1.381   1_556 S
C1077  H503    1.084   1_556 S
C1078  H1096   1.078   .     S
C1079  C1085   1.402   .     A
C1079  C1081   1.404   .     A
C1080  C1089   1.416   .     A
C1081  H1100   1.083   .     S
C1081  C1148   1.397   .     S
C1082  C1083   1.397   .     A
C1082  H1101   1.082   .     S
C1083  H1102   1.082   .     S
C1084  C1085   1.395   .     A
C1084  C1149   1.400   .     S
C1084  H1169   1.081   .     S
C1085  H1104   1.083   .     S
C1086  C1090   1.402   .     A
C1087  C1088   1.394   .     A
C1087  C480    1.406   1_556 S
C1087  C492    1.416   1_556 S
C1088  H1111   1.084   .     S
C1088  C1089   1.391   .     A
C1089  H1098   1.079   .     S
C1090  H1095   1.078   .     S
C1091  H1094   1.083   .     S
Cu1092 O1119   1.967   .     S
Cu1092 O1115   1.975   .     S
Cu1092 O1121   1.933   .     S
Cu1092 N1113   2.014   .     S
Cu1092 Cu1093  2.680   .     S
Cu1092 O1117   1.950   .     S
Cu1093 O1118   1.933   .     S
Cu1093 O1122   1.950   .     S
Cu1093 N1114   2.014   .     S
Cu1093 O1116   1.967   .     S
Cu1093 O1120   1.975   .     S
H1112  C480    1.084   1_556 S
Br1123 C1142   1.916   .     S
C1124  O1182   1.291   .     A
C1124  O1181   1.291   .     A
C1124  C1132   1.447   .     S
C1125  C1142   1.423   .     A
C1125  C1146   1.431   .     A
C1125  C1127   1.493   .     S
C1126  H1165   1.086   .     S
C1126  C1132   1.392   .     A
C1126  C732    1.386   1_565 S
C1127  O1184   1.301   .     A
C1127  O1183   1.302   .     A
C1128  C1129   1.417   .     A
C1128  C1145   1.472   .     S
C1129  C1130   1.404   .     A
C1129  C1138   1.462   .     S
C1130  H1171   1.078   .     S
C1131  C1132   1.395   .     A
C1131  H1172   1.083   .     S
C1131  C734    1.386   1_565 S
C1133  H1173   1.082   .     S
C1133  N1180   1.367   .     A
C1133  C1002   1.416   1_655 S
C1134  N1179   1.365   .     A
C1134  H1174   1.078   .     S
C1135  C1146   1.420   .     A
C1135  C550    1.411   1_556 S
C1135  C558    1.421   1_556 S
C1136  H1175   1.081   .     S
C1136  N1179   1.366   .     A
C1137  N1180   1.366   .     A
C1137  H1176   1.081   .     S
C1137  C1004   1.418   1_655 S
C1138  O1185   1.298   .     A
C1138  O1186   1.290   .     A
C1139  O1187   1.295   .     A
C1139  O1188   1.296   .     A
C1139  C1141   1.465   .     S
C1140  C1157   1.396   .     A
C1141  C1157   1.400   .     A
C1141  C1156   1.394   .     A
C1142  C1143   1.387   .     A
C1143  C550    1.381   1_556 S
C1143  H569    1.084   1_556 S
C1144  H1162   1.078   .     S
C1145  C1151   1.402   .     A
C1145  C1147   1.404   .     A
C1146  C1155   1.416   .     A
C1147  H1166   1.083   .     S
C1147  C1016   1.397   1_655 S
C1148  C1149   1.397   .     A
C1148  H1167   1.082   .     S
C1149  H1168   1.082   .     S
C1150  C1151   1.395   .     A
C1150  C1017   1.400   1_655 S
C1150  H1037   1.081   1_655 S
C1151  H1170   1.083   .     S
C1152  C1156   1.402   .     A
C1153  C1154   1.394   .     A
C1153  C546    1.406   1_556 S
C1153  C558    1.416   1_556 S
C1154  H1177   1.084   .     S
C1154  C1155   1.391   .     A
C1155  H1164   1.079   .     S
C1156  H1161   1.078   .     S
C1157  H1160   1.083   .     S
Cu1158 O1185   1.967   .     S
Cu1158 O1181   1.975   .     S
Cu1158 O1187   1.933   .     S
Cu1158 N1179   2.014   .     S
Cu1158 Cu1159  2.680   .     S
Cu1158 O1183   1.950   .     S
Cu1159 O1184   1.933   .     S
Cu1159 O1188   1.950   .     S
Cu1159 N1180   2.014   .     S
Cu1159 O1182   1.967   .     S
Cu1159 O1186   1.975   .     S
H1178  C546    1.084   1_556 S
