data_str_m2_o2_o10_pcu_sym.206
_audit_creation_date              2020-01-03
_audit_creation_method            'Materials Studio'
_symmetry_space_group_name_H-M    'P1'
_symmetry_Int_Tables_number       1
_symmetry_cell_setting            triclinic
loop_
_symmetry_equiv_pos_as_xyz
  x,y,z
_cell_length_a                    26.1092
_cell_length_b                    30.2245
_cell_length_c                    27.9083
_cell_angle_alpha                 88.9786
_cell_angle_beta                  96.0338
_cell_angle_gamma                 92.0170
loop_
_atom_site_label
_atom_site_type_symbol
_atom_site_fract_x
_atom_site_fract_y
_atom_site_fract_z
_atom_site_U_iso_or_equiv
_atom_site_adp_type
_atom_site_occupancy
C1     C     0.16724   0.16499   0.25028   0.00000  Uiso   1.00
C2     C     0.16664   0.33480   0.24967   0.00000  Uiso   1.00
C3     C     0.19360   0.28256   0.05546   0.00000  Uiso   1.00
C4     C     0.12883   0.22765   0.44360   0.00000  Uiso   1.00
C5     C     0.19415   0.28208   0.10591   0.00000  Uiso   1.00
C6     C     0.12930   0.22667   0.39328   0.00000  Uiso   1.00
C7     C     0.14022   0.21747   0.10285   0.00000  Uiso   1.00
C8     C     0.20448   0.27296   0.39833   0.00000  Uiso   1.00
C9     C     0.14074   0.21612   0.05237   0.00000  Uiso   1.00
C10    C     0.20628   0.27275   0.44909   0.00000  Uiso   1.00
C11    C     0.16738   0.24935   0.02739   0.00000  Uiso   1.00
C12    C     0.16774   0.24998   0.47291   0.00000  Uiso   1.00
C13    C     0.06832   0.24771   0.23845   0.00000  Uiso   1.00
C14    C     0.26501   0.25273   0.26146   0.00000  Uiso   1.00
C15    C     0.01347   0.23963   0.23468   0.00000  Uiso   1.00
C16    C     0.31986   0.26127   0.26480   0.00000  Uiso   1.00
C17    C     0.18348   0.04703   0.29232   0.00000  Uiso   1.00
C18    C     0.13221   0.45140   0.21792   0.00000  Uiso   1.00
C19    C     0.18407   0.09303   0.29246   0.00000  Uiso   1.00
C20    C     0.13209   0.40540   0.21745   0.00000  Uiso   1.00
C21    C     0.16838   0.11668   0.25023   0.00000  Uiso   1.00
C22    C     0.16731   0.38272   0.24917   0.00000  Uiso   1.00
C23    C     0.15469   0.09388   0.20720   0.00000  Uiso   1.00
C24    C     0.20313   0.40596   0.28083   0.00000  Uiso   1.00
C25    C     0.15570   0.04799   0.20665   0.00000  Uiso   1.00
C26    C     0.20463   0.45192   0.28010   0.00000  Uiso   1.00
C27    C     0.16930   0.02400   0.24936   0.00000  Uiso   1.00
C28    C     0.16878   0.47519   0.24903   0.00000  Uiso   1.00
Cu29   Cu    0.16667   0.24999   0.29821   0.00000  Uiso   1.00
Cu30   Cu    0.16667   0.25000   0.20178   0.00000  Uiso   1.00
H31    H     0.19378   0.02967   0.32601   0.00000  Uiso   1.00
H32    H     0.10323   0.46816   0.19439   0.00000  Uiso   1.00
H33    H     0.19730   0.10998   0.32546   0.00000  Uiso   1.00
H34    H     0.10385   0.38749   0.19322   0.00000  Uiso   1.00
H35    H     0.14316   0.11147   0.17386   0.00000  Uiso   1.00
H36    H     0.23047   0.38857   0.30550   0.00000  Uiso   1.00
H37    H     0.14612   0.03145   0.17265   0.00000  Uiso   1.00
H38    H     0.23411   0.46908   0.30365   0.00000  Uiso   1.00
H39    H     0.21411   0.30930   0.03863   0.00000  Uiso   1.00
H40    H     0.09775   0.21014   0.45942   0.00000  Uiso   1.00
H41    H     0.11908   0.19188   0.12082   0.00000  Uiso   1.00
H42    H     0.23414   0.29112   0.38126   0.00000  Uiso   1.00
H43    H     0.12070   0.18861   0.03359   0.00000  Uiso   1.00
H44    H     0.23834   0.29005   0.46911   0.00000  Uiso   1.00
N45    N     0.16667   0.25001   0.12934   0.00000  Uiso   1.00
N46    N     0.16667   0.24999   0.37065   0.00000  Uiso   1.00
O47    O     0.16667   0.18572   0.29071   0.00000  Uiso   1.00
O48    O     0.16666   0.31427   0.20928   0.00000  Uiso   1.00
O49    O     0.16667   0.18573   0.20928   0.00000  Uiso   1.00
O50    O     0.16666   0.31427   0.29072   0.00000  Uiso   1.00
O51    O     0.09161   0.24999   0.28132   0.00000  Uiso   1.00
O52    O     0.24172   0.25000   0.21868   0.00000  Uiso   1.00
O53    O     0.09161   0.25000   0.19988   0.00000  Uiso   1.00
O54    O     0.24172   0.25000   0.30011   0.00000  Uiso   1.00
O55    O     0.32229   0.21003   0.20116   0.00000  Uiso   1.00
C56    C     0.01541   0.16997   0.20129   0.00000  Uiso   1.00
H57    H     0.03329   0.16040   0.23789   0.00000  Uiso   1.00
H58    H     0.04587   0.17301   0.17632   0.00000  Uiso   1.00
C59    C     0.31073   0.13294   0.18395   0.00000  Uiso   1.00
H60    H     0.29266   0.14073   0.14709   0.00000  Uiso   1.00
H61    H     0.33111   0.10135   0.18326   0.00000  Uiso   1.00
H62    H     0.28016   0.12897   0.20870   0.00000  Uiso   1.00
O63    O     0.01133   0.29113   0.29789   0.00000  Uiso   1.00
C64    C     0.31708   0.33034   0.29980   0.00000  Uiso   1.00
H65    H     0.28948   0.32639   0.32734   0.00000  Uiso   1.00
H66    H     0.29569   0.33941   0.26453   0.00000  Uiso   1.00
C67    C     0.02152   0.36840   0.31425   0.00000  Uiso   1.00
H68    H     0.04942   0.37310   0.28700   0.00000  Uiso   1.00
H69    H     0.00035   0.39941   0.31647   0.00000  Uiso   1.00
H70    H     0.04289   0.36122   0.34992   0.00000  Uiso   1.00
C71    C     0.22745   0.31630   0.13165   0.00000  Uiso   1.00
C72    C     0.27938   0.30786   0.14594   0.00000  Uiso   1.00
C73    C     0.31270   0.34140   0.16608   0.00000  Uiso   1.00
C74    C     0.29471   0.38393   0.17086   0.00000  Uiso   1.00
C75    C     0.24369   0.39317   0.15457   0.00000  Uiso   1.00
C76    C     0.21038   0.35970   0.13419   0.00000  Uiso   1.00
H77    H     0.29411   0.27543   0.14094   0.00000  Uiso   1.00
H78    H     0.01915   0.33445   0.17780   0.00000  Uiso   1.00
H79    H     0.32047   0.40982   0.18666   0.00000  Uiso   1.00
H80    H     0.23000   0.42630   0.15753   0.00000  Uiso   1.00
H81    H     0.17117   0.36739   0.12090   0.00000  Uiso   1.00
C82    C     0.09027   0.19667   0.36770   0.00000  Uiso   1.00
C83    C     0.03816   0.20774   0.36232   0.00000  Uiso   1.00
C84    C     0.00007   0.17665   0.34476   0.00000  Uiso   1.00
C85    C     0.01359   0.13414   0.33324   0.00000  Uiso   1.00
C86    C     0.06501   0.12217   0.34086   0.00000  Uiso   1.00
C87    C     0.10286   0.15296   0.35940   0.00000  Uiso   1.00
H88    H     0.02701   0.24002   0.37290   0.00000  Uiso   1.00
H89    H     0.29331   0.18517   0.34086   0.00000  Uiso   1.00
H90    H     0.31743   0.11020   0.31950   0.00000  Uiso   1.00
H91    H     0.07535   0.08876   0.33362   0.00000  Uiso   1.00
H92    H     0.14185   0.14259   0.36866   0.00000  Uiso   1.00
C93    C     0.50057   0.16499   0.25028   0.00000  Uiso   1.00
C94    C     0.49998   0.33480   0.24967   0.00000  Uiso   1.00
C95    C     0.52693   0.28256   0.05546   0.00000  Uiso   1.00
C96    C     0.46216   0.22765   0.44360   0.00000  Uiso   1.00
C97    C     0.52748   0.28208   0.10591   0.00000  Uiso   1.00
C98    C     0.46263   0.22667   0.39328   0.00000  Uiso   1.00
C99    C     0.47356   0.21747   0.10285   0.00000  Uiso   1.00
C100   C     0.53782   0.27296   0.39833   0.00000  Uiso   1.00
C101   C     0.47407   0.21612   0.05237   0.00000  Uiso   1.00
C102   C     0.53961   0.27275   0.44909   0.00000  Uiso   1.00
C103   C     0.50072   0.24935   0.02739   0.00000  Uiso   1.00
C104   C     0.50107   0.24998   0.47291   0.00000  Uiso   1.00
C105   C     0.40165   0.24771   0.23845   0.00000  Uiso   1.00
C106   C     0.59834   0.25273   0.26146   0.00000  Uiso   1.00
C107   C     0.34680   0.23963   0.23468   0.00000  Uiso   1.00
C108   C     0.65319   0.26127   0.26480   0.00000  Uiso   1.00
C109   C     0.51681   0.04703   0.29232   0.00000  Uiso   1.00
C110   C     0.46555   0.45140   0.21792   0.00000  Uiso   1.00
C111   C     0.51740   0.09303   0.29246   0.00000  Uiso   1.00
C112   C     0.46542   0.40540   0.21745   0.00000  Uiso   1.00
C113   C     0.50171   0.11668   0.25023   0.00000  Uiso   1.00
C114   C     0.50064   0.38272   0.24917   0.00000  Uiso   1.00
C115   C     0.48802   0.09388   0.20720   0.00000  Uiso   1.00
C116   C     0.53646   0.40596   0.28083   0.00000  Uiso   1.00
C117   C     0.48904   0.04799   0.20665   0.00000  Uiso   1.00
C118   C     0.53796   0.45192   0.28010   0.00000  Uiso   1.00
C119   C     0.50264   0.02400   0.24936   0.00000  Uiso   1.00
C120   C     0.50212   0.47519   0.24903   0.00000  Uiso   1.00
Cu121  Cu    0.50000   0.24999   0.29821   0.00000  Uiso   1.00
Cu122  Cu    0.50000   0.25000   0.20178   0.00000  Uiso   1.00
H123   H     0.52711   0.02967   0.32601   0.00000  Uiso   1.00
H124   H     0.43657   0.46816   0.19439   0.00000  Uiso   1.00
H125   H     0.53063   0.10998   0.32546   0.00000  Uiso   1.00
H126   H     0.43719   0.38749   0.19322   0.00000  Uiso   1.00
H127   H     0.47650   0.11147   0.17386   0.00000  Uiso   1.00
H128   H     0.56381   0.38857   0.30550   0.00000  Uiso   1.00
H129   H     0.47946   0.03145   0.17265   0.00000  Uiso   1.00
H130   H     0.56744   0.46908   0.30365   0.00000  Uiso   1.00
H131   H     0.54745   0.30930   0.03863   0.00000  Uiso   1.00
H132   H     0.43108   0.21014   0.45942   0.00000  Uiso   1.00
H133   H     0.45241   0.19188   0.12082   0.00000  Uiso   1.00
H134   H     0.56747   0.29112   0.38126   0.00000  Uiso   1.00
H135   H     0.45403   0.18861   0.03359   0.00000  Uiso   1.00
H136   H     0.57167   0.29005   0.46911   0.00000  Uiso   1.00
N137   N     0.50000   0.25001   0.12934   0.00000  Uiso   1.00
N138   N     0.50000   0.24999   0.37065   0.00000  Uiso   1.00
O139   O     0.50000   0.18572   0.29071   0.00000  Uiso   1.00
O140   O     0.50000   0.31427   0.20928   0.00000  Uiso   1.00
O141   O     0.50000   0.18573   0.20928   0.00000  Uiso   1.00
O142   O     0.50000   0.31427   0.29072   0.00000  Uiso   1.00
O143   O     0.42495   0.24999   0.28132   0.00000  Uiso   1.00
O144   O     0.57505   0.25000   0.21868   0.00000  Uiso   1.00
O145   O     0.42495   0.25000   0.19988   0.00000  Uiso   1.00
O146   O     0.57505   0.25000   0.30011   0.00000  Uiso   1.00
O147   O     0.65563   0.21003   0.20116   0.00000  Uiso   1.00
C148   C     0.34875   0.16997   0.20129   0.00000  Uiso   1.00
H149   H     0.36663   0.16040   0.23789   0.00000  Uiso   1.00
H150   H     0.37920   0.17301   0.17632   0.00000  Uiso   1.00
C151   C     0.64407   0.13294   0.18395   0.00000  Uiso   1.00
H152   H     0.62599   0.14073   0.14709   0.00000  Uiso   1.00
H153   H     0.66444   0.10135   0.18326   0.00000  Uiso   1.00
H154   H     0.61349   0.12897   0.20870   0.00000  Uiso   1.00
O155   O     0.34466   0.29113   0.29789   0.00000  Uiso   1.00
C156   C     0.65041   0.33034   0.29980   0.00000  Uiso   1.00
H157   H     0.62282   0.32639   0.32734   0.00000  Uiso   1.00
H158   H     0.62902   0.33941   0.26453   0.00000  Uiso   1.00
C159   C     0.35485   0.36840   0.31425   0.00000  Uiso   1.00
H160   H     0.38275   0.37310   0.28700   0.00000  Uiso   1.00
H161   H     0.33368   0.39941   0.31647   0.00000  Uiso   1.00
H162   H     0.37623   0.36122   0.34992   0.00000  Uiso   1.00
C163   C     0.56079   0.31630   0.13165   0.00000  Uiso   1.00
C164   C     0.61272   0.30786   0.14594   0.00000  Uiso   1.00
C165   C     0.64603   0.34140   0.16608   0.00000  Uiso   1.00
C166   C     0.62804   0.38393   0.17086   0.00000  Uiso   1.00
C167   C     0.57702   0.39317   0.15457   0.00000  Uiso   1.00
C168   C     0.54371   0.35970   0.13419   0.00000  Uiso   1.00
H169   H     0.62745   0.27543   0.14094   0.00000  Uiso   1.00
H170   H     0.35249   0.33445   0.17780   0.00000  Uiso   1.00
H171   H     0.65380   0.40982   0.18666   0.00000  Uiso   1.00
H172   H     0.56333   0.42630   0.15753   0.00000  Uiso   1.00
H173   H     0.50450   0.36739   0.12090   0.00000  Uiso   1.00
C174   C     0.42360   0.19667   0.36770   0.00000  Uiso   1.00
C175   C     0.37149   0.20774   0.36232   0.00000  Uiso   1.00
C176   C     0.33340   0.17665   0.34476   0.00000  Uiso   1.00
C177   C     0.34692   0.13414   0.33324   0.00000  Uiso   1.00
C178   C     0.39834   0.12217   0.34086   0.00000  Uiso   1.00
C179   C     0.43619   0.15296   0.35940   0.00000  Uiso   1.00
H180   H     0.36034   0.24002   0.37290   0.00000  Uiso   1.00
H181   H     0.62665   0.18517   0.34086   0.00000  Uiso   1.00
H182   H     0.65076   0.11020   0.31950   0.00000  Uiso   1.00
H183   H     0.40869   0.08876   0.33362   0.00000  Uiso   1.00
H184   H     0.47518   0.14259   0.36866   0.00000  Uiso   1.00
C185   C     0.83390   0.16499   0.25028   0.00000  Uiso   1.00
C186   C     0.83331   0.33480   0.24967   0.00000  Uiso   1.00
C187   C     0.86026   0.28256   0.05546   0.00000  Uiso   1.00
C188   C     0.79549   0.22765   0.44360   0.00000  Uiso   1.00
C189   C     0.86081   0.28208   0.10591   0.00000  Uiso   1.00
C190   C     0.79597   0.22667   0.39328   0.00000  Uiso   1.00
C191   C     0.80689   0.21747   0.10285   0.00000  Uiso   1.00
C192   C     0.87115   0.27296   0.39833   0.00000  Uiso   1.00
C193   C     0.80740   0.21612   0.05237   0.00000  Uiso   1.00
C194   C     0.87294   0.27275   0.44909   0.00000  Uiso   1.00
C195   C     0.83405   0.24935   0.02739   0.00000  Uiso   1.00
C196   C     0.83440   0.24998   0.47291   0.00000  Uiso   1.00
C197   C     0.73499   0.24771   0.23845   0.00000  Uiso   1.00
C198   C     0.93167   0.25273   0.26146   0.00000  Uiso   1.00
C199   C     0.68013   0.23963   0.23468   0.00000  Uiso   1.00
C200   C     0.98652   0.26127   0.26480   0.00000  Uiso   1.00
C201   C     0.85015   0.04703   0.29232   0.00000  Uiso   1.00
C202   C     0.79888   0.45140   0.21792   0.00000  Uiso   1.00
C203   C     0.85074   0.09303   0.29246   0.00000  Uiso   1.00
C204   C     0.79876   0.40540   0.21745   0.00000  Uiso   1.00
C205   C     0.83505   0.11668   0.25023   0.00000  Uiso   1.00
C206   C     0.83398   0.38272   0.24917   0.00000  Uiso   1.00
C207   C     0.82136   0.09388   0.20720   0.00000  Uiso   1.00
C208   C     0.86980   0.40596   0.28083   0.00000  Uiso   1.00
C209   C     0.82237   0.04799   0.20665   0.00000  Uiso   1.00
C210   C     0.87129   0.45192   0.28010   0.00000  Uiso   1.00
C211   C     0.83597   0.02400   0.24936   0.00000  Uiso   1.00
C212   C     0.83545   0.47519   0.24903   0.00000  Uiso   1.00
Cu213  Cu    0.83333   0.24999   0.29821   0.00000  Uiso   1.00
Cu214  Cu    0.83333   0.25000   0.20178   0.00000  Uiso   1.00
H215   H     0.86045   0.02967   0.32601   0.00000  Uiso   1.00
H216   H     0.76990   0.46816   0.19439   0.00000  Uiso   1.00
H217   H     0.86396   0.10998   0.32546   0.00000  Uiso   1.00
H218   H     0.77052   0.38749   0.19322   0.00000  Uiso   1.00
H219   H     0.80983   0.11147   0.17386   0.00000  Uiso   1.00
H220   H     0.89714   0.38857   0.30550   0.00000  Uiso   1.00
H221   H     0.81279   0.03145   0.17265   0.00000  Uiso   1.00
H222   H     0.90077   0.46908   0.30365   0.00000  Uiso   1.00
H223   H     0.88078   0.30930   0.03863   0.00000  Uiso   1.00
H224   H     0.76442   0.21014   0.45942   0.00000  Uiso   1.00
H225   H     0.78574   0.19188   0.12082   0.00000  Uiso   1.00
H226   H     0.90081   0.29112   0.38126   0.00000  Uiso   1.00
H227   H     0.78737   0.18861   0.03359   0.00000  Uiso   1.00
H228   H     0.90500   0.29005   0.46911   0.00000  Uiso   1.00
N229   N     0.83333   0.25001   0.12934   0.00000  Uiso   1.00
N230   N     0.83333   0.24999   0.37065   0.00000  Uiso   1.00
O231   O     0.83334   0.18572   0.29071   0.00000  Uiso   1.00
O232   O     0.83333   0.31427   0.20928   0.00000  Uiso   1.00
O233   O     0.83334   0.18573   0.20928   0.00000  Uiso   1.00
O234   O     0.83333   0.31427   0.29072   0.00000  Uiso   1.00
O235   O     0.75828   0.24999   0.28132   0.00000  Uiso   1.00
O236   O     0.90839   0.25000   0.21868   0.00000  Uiso   1.00
O237   O     0.75828   0.25000   0.19988   0.00000  Uiso   1.00
O238   O     0.90839   0.25000   0.30011   0.00000  Uiso   1.00
O239   O     0.98896   0.21003   0.20116   0.00000  Uiso   1.00
C240   C     0.68208   0.16997   0.20129   0.00000  Uiso   1.00
H241   H     0.69996   0.16040   0.23789   0.00000  Uiso   1.00
H242   H     0.71253   0.17301   0.17632   0.00000  Uiso   1.00
C243   C     0.97740   0.13294   0.18395   0.00000  Uiso   1.00
H244   H     0.95933   0.14073   0.14709   0.00000  Uiso   1.00
H245   H     0.99778   0.10135   0.18326   0.00000  Uiso   1.00
H246   H     0.94683   0.12897   0.20870   0.00000  Uiso   1.00
O247   O     0.67799   0.29113   0.29789   0.00000  Uiso   1.00
C248   C     0.98374   0.33034   0.29980   0.00000  Uiso   1.00
H249   H     0.95615   0.32639   0.32734   0.00000  Uiso   1.00
H250   H     0.96235   0.33941   0.26453   0.00000  Uiso   1.00
C251   C     0.68819   0.36840   0.31425   0.00000  Uiso   1.00
H252   H     0.71609   0.37310   0.28700   0.00000  Uiso   1.00
H253   H     0.66702   0.39941   0.31647   0.00000  Uiso   1.00
H254   H     0.70956   0.36122   0.34992   0.00000  Uiso   1.00
C255   C     0.89412   0.31630   0.13165   0.00000  Uiso   1.00
C256   C     0.94605   0.30786   0.14594   0.00000  Uiso   1.00
C257   C     0.97936   0.34140   0.16608   0.00000  Uiso   1.00
C258   C     0.96138   0.38393   0.17086   0.00000  Uiso   1.00
C259   C     0.91035   0.39317   0.15457   0.00000  Uiso   1.00
C260   C     0.87704   0.35970   0.13419   0.00000  Uiso   1.00
H261   H     0.96078   0.27543   0.14094   0.00000  Uiso   1.00
H262   H     0.68582   0.33445   0.17780   0.00000  Uiso   1.00
H263   H     0.98713   0.40982   0.18666   0.00000  Uiso   1.00
H264   H     0.89667   0.42630   0.15753   0.00000  Uiso   1.00
H265   H     0.83784   0.36739   0.12090   0.00000  Uiso   1.00
C266   C     0.75693   0.19667   0.36770   0.00000  Uiso   1.00
C267   C     0.70482   0.20774   0.36232   0.00000  Uiso   1.00
C268   C     0.66674   0.17665   0.34476   0.00000  Uiso   1.00
C269   C     0.68025   0.13414   0.33324   0.00000  Uiso   1.00
C270   C     0.73167   0.12217   0.34086   0.00000  Uiso   1.00
C271   C     0.76953   0.15296   0.35940   0.00000  Uiso   1.00
H272   H     0.69367   0.24002   0.37290   0.00000  Uiso   1.00
H273   H     0.95998   0.18517   0.34086   0.00000  Uiso   1.00
H274   H     0.98409   0.11020   0.31950   0.00000  Uiso   1.00
H275   H     0.74202   0.08876   0.33362   0.00000  Uiso   1.00
H276   H     0.80851   0.14259   0.36866   0.00000  Uiso   1.00
C277   C     0.16724   0.66499   0.25028   0.00000  Uiso   1.00
C278   C     0.16664   0.83480   0.24967   0.00000  Uiso   1.00
C279   C     0.19360   0.78256   0.05546   0.00000  Uiso   1.00
C280   C     0.12883   0.72765   0.44360   0.00000  Uiso   1.00
C281   C     0.19415   0.78208   0.10591   0.00000  Uiso   1.00
C282   C     0.12930   0.72667   0.39328   0.00000  Uiso   1.00
C283   C     0.14022   0.71747   0.10285   0.00000  Uiso   1.00
C284   C     0.20448   0.77296   0.39833   0.00000  Uiso   1.00
C285   C     0.14074   0.71612   0.05237   0.00000  Uiso   1.00
C286   C     0.20628   0.77275   0.44909   0.00000  Uiso   1.00
C287   C     0.16738   0.74935   0.02739   0.00000  Uiso   1.00
C288   C     0.16774   0.74998   0.47291   0.00000  Uiso   1.00
C289   C     0.06832   0.74771   0.23845   0.00000  Uiso   1.00
C290   C     0.26501   0.75273   0.26146   0.00000  Uiso   1.00
C291   C     0.01347   0.73963   0.23468   0.00000  Uiso   1.00
C292   C     0.31986   0.76127   0.26480   0.00000  Uiso   1.00
C293   C     0.18348   0.54703   0.29232   0.00000  Uiso   1.00
C294   C     0.13221   0.95140   0.21792   0.00000  Uiso   1.00
C295   C     0.18407   0.59303   0.29246   0.00000  Uiso   1.00
C296   C     0.13209   0.90540   0.21745   0.00000  Uiso   1.00
C297   C     0.16838   0.61668   0.25023   0.00000  Uiso   1.00
C298   C     0.16731   0.88272   0.24917   0.00000  Uiso   1.00
C299   C     0.15469   0.59388   0.20720   0.00000  Uiso   1.00
C300   C     0.20313   0.90596   0.28083   0.00000  Uiso   1.00
C301   C     0.15570   0.54799   0.20665   0.00000  Uiso   1.00
C302   C     0.20463   0.95192   0.28010   0.00000  Uiso   1.00
C303   C     0.16930   0.52400   0.24936   0.00000  Uiso   1.00
C304   C     0.16878   0.97519   0.24903   0.00000  Uiso   1.00
Cu305  Cu    0.16667   0.74999   0.29821   0.00000  Uiso   1.00
Cu306  Cu    0.16667   0.75000   0.20178   0.00000  Uiso   1.00
H307   H     0.19378   0.52967   0.32601   0.00000  Uiso   1.00
H308   H     0.10323   0.96816   0.19439   0.00000  Uiso   1.00
H309   H     0.19730   0.60998   0.32546   0.00000  Uiso   1.00
H310   H     0.10385   0.88749   0.19322   0.00000  Uiso   1.00
H311   H     0.14316   0.61147   0.17386   0.00000  Uiso   1.00
H312   H     0.23047   0.88857   0.30550   0.00000  Uiso   1.00
H313   H     0.14612   0.53145   0.17265   0.00000  Uiso   1.00
H314   H     0.23411   0.96908   0.30365   0.00000  Uiso   1.00
H315   H     0.21411   0.80930   0.03863   0.00000  Uiso   1.00
H316   H     0.09775   0.71014   0.45942   0.00000  Uiso   1.00
H317   H     0.11908   0.69188   0.12082   0.00000  Uiso   1.00
H318   H     0.23414   0.79112   0.38126   0.00000  Uiso   1.00
H319   H     0.12070   0.68861   0.03359   0.00000  Uiso   1.00
H320   H     0.23834   0.79005   0.46911   0.00000  Uiso   1.00
N321   N     0.16667   0.75001   0.12934   0.00000  Uiso   1.00
N322   N     0.16667   0.74999   0.37065   0.00000  Uiso   1.00
O323   O     0.16667   0.68572   0.29071   0.00000  Uiso   1.00
O324   O     0.16666   0.81427   0.20928   0.00000  Uiso   1.00
O325   O     0.16667   0.68573   0.20928   0.00000  Uiso   1.00
O326   O     0.16666   0.81427   0.29072   0.00000  Uiso   1.00
O327   O     0.09161   0.74999   0.28132   0.00000  Uiso   1.00
O328   O     0.24172   0.75000   0.21868   0.00000  Uiso   1.00
O329   O     0.09161   0.75000   0.19988   0.00000  Uiso   1.00
O330   O     0.24172   0.75000   0.30011   0.00000  Uiso   1.00
O331   O     0.32229   0.71003   0.20116   0.00000  Uiso   1.00
C332   C     0.01541   0.66997   0.20129   0.00000  Uiso   1.00
H333   H     0.03329   0.66040   0.23789   0.00000  Uiso   1.00
H334   H     0.04587   0.67301   0.17632   0.00000  Uiso   1.00
C335   C     0.31073   0.63294   0.18395   0.00000  Uiso   1.00
H336   H     0.29266   0.64073   0.14709   0.00000  Uiso   1.00
H337   H     0.33111   0.60135   0.18326   0.00000  Uiso   1.00
H338   H     0.28016   0.62897   0.20870   0.00000  Uiso   1.00
O339   O     0.01133   0.79113   0.29789   0.00000  Uiso   1.00
C340   C     0.31708   0.83034   0.29980   0.00000  Uiso   1.00
H341   H     0.28948   0.82639   0.32734   0.00000  Uiso   1.00
H342   H     0.29569   0.83941   0.26453   0.00000  Uiso   1.00
C343   C     0.02152   0.86840   0.31425   0.00000  Uiso   1.00
H344   H     0.04942   0.87310   0.28700   0.00000  Uiso   1.00
H345   H     0.00035   0.89941   0.31647   0.00000  Uiso   1.00
H346   H     0.04289   0.86122   0.34992   0.00000  Uiso   1.00
C347   C     0.22745   0.81630   0.13165   0.00000  Uiso   1.00
C348   C     0.27938   0.80786   0.14594   0.00000  Uiso   1.00
C349   C     0.31270   0.84140   0.16608   0.00000  Uiso   1.00
C350   C     0.29471   0.88393   0.17086   0.00000  Uiso   1.00
C351   C     0.24369   0.89317   0.15457   0.00000  Uiso   1.00
C352   C     0.21038   0.85970   0.13419   0.00000  Uiso   1.00
H353   H     0.29411   0.77543   0.14094   0.00000  Uiso   1.00
H354   H     0.01915   0.83445   0.17780   0.00000  Uiso   1.00
H355   H     0.32047   0.90982   0.18666   0.00000  Uiso   1.00
H356   H     0.23000   0.92630   0.15753   0.00000  Uiso   1.00
H357   H     0.17117   0.86739   0.12090   0.00000  Uiso   1.00
C358   C     0.09027   0.69667   0.36770   0.00000  Uiso   1.00
C359   C     0.03816   0.70774   0.36232   0.00000  Uiso   1.00
C360   C     0.00007   0.67665   0.34476   0.00000  Uiso   1.00
C361   C     0.01359   0.63414   0.33324   0.00000  Uiso   1.00
C362   C     0.06501   0.62217   0.34086   0.00000  Uiso   1.00
C363   C     0.10286   0.65296   0.35940   0.00000  Uiso   1.00
H364   H     0.02701   0.74002   0.37290   0.00000  Uiso   1.00
H365   H     0.29331   0.68517   0.34086   0.00000  Uiso   1.00
H366   H     0.31743   0.61020   0.31950   0.00000  Uiso   1.00
H367   H     0.07535   0.58876   0.33362   0.00000  Uiso   1.00
H368   H     0.14185   0.64259   0.36866   0.00000  Uiso   1.00
C369   C     0.50057   0.66499   0.25028   0.00000  Uiso   1.00
C370   C     0.49998   0.83480   0.24967   0.00000  Uiso   1.00
C371   C     0.52693   0.78256   0.05546   0.00000  Uiso   1.00
C372   C     0.46216   0.72765   0.44360   0.00000  Uiso   1.00
C373   C     0.52748   0.78208   0.10591   0.00000  Uiso   1.00
C374   C     0.46263   0.72667   0.39328   0.00000  Uiso   1.00
C375   C     0.47356   0.71747   0.10285   0.00000  Uiso   1.00
C376   C     0.53782   0.77296   0.39833   0.00000  Uiso   1.00
C377   C     0.47407   0.71612   0.05237   0.00000  Uiso   1.00
C378   C     0.53961   0.77275   0.44909   0.00000  Uiso   1.00
C379   C     0.50072   0.74935   0.02739   0.00000  Uiso   1.00
C380   C     0.50107   0.74998   0.47291   0.00000  Uiso   1.00
C381   C     0.40165   0.74771   0.23845   0.00000  Uiso   1.00
C382   C     0.59834   0.75273   0.26146   0.00000  Uiso   1.00
C383   C     0.34680   0.73963   0.23468   0.00000  Uiso   1.00
C384   C     0.65319   0.76127   0.26480   0.00000  Uiso   1.00
C385   C     0.51681   0.54703   0.29232   0.00000  Uiso   1.00
C386   C     0.46555   0.95140   0.21792   0.00000  Uiso   1.00
C387   C     0.51740   0.59303   0.29246   0.00000  Uiso   1.00
C388   C     0.46542   0.90540   0.21745   0.00000  Uiso   1.00
C389   C     0.50171   0.61668   0.25023   0.00000  Uiso   1.00
C390   C     0.50064   0.88272   0.24917   0.00000  Uiso   1.00
C391   C     0.48802   0.59388   0.20720   0.00000  Uiso   1.00
C392   C     0.53646   0.90596   0.28083   0.00000  Uiso   1.00
C393   C     0.48904   0.54799   0.20665   0.00000  Uiso   1.00
C394   C     0.53796   0.95192   0.28010   0.00000  Uiso   1.00
C395   C     0.50264   0.52400   0.24936   0.00000  Uiso   1.00
C396   C     0.50212   0.97519   0.24903   0.00000  Uiso   1.00
Cu397  Cu    0.50000   0.74999   0.29821   0.00000  Uiso   1.00
Cu398  Cu    0.50000   0.75000   0.20178   0.00000  Uiso   1.00
H399   H     0.52711   0.52967   0.32601   0.00000  Uiso   1.00
H400   H     0.43657   0.96816   0.19439   0.00000  Uiso   1.00
H401   H     0.53063   0.60998   0.32546   0.00000  Uiso   1.00
H402   H     0.43719   0.88749   0.19322   0.00000  Uiso   1.00
H403   H     0.47650   0.61147   0.17386   0.00000  Uiso   1.00
H404   H     0.56381   0.88857   0.30550   0.00000  Uiso   1.00
H405   H     0.47946   0.53145   0.17265   0.00000  Uiso   1.00
H406   H     0.56744   0.96908   0.30365   0.00000  Uiso   1.00
H407   H     0.54745   0.80930   0.03863   0.00000  Uiso   1.00
H408   H     0.43108   0.71014   0.45942   0.00000  Uiso   1.00
H409   H     0.45241   0.69188   0.12082   0.00000  Uiso   1.00
H410   H     0.56747   0.79112   0.38126   0.00000  Uiso   1.00
H411   H     0.45403   0.68861   0.03359   0.00000  Uiso   1.00
H412   H     0.57167   0.79005   0.46911   0.00000  Uiso   1.00
N413   N     0.50000   0.75001   0.12934   0.00000  Uiso   1.00
N414   N     0.50000   0.74999   0.37065   0.00000  Uiso   1.00
O415   O     0.50000   0.68572   0.29071   0.00000  Uiso   1.00
O416   O     0.50000   0.81427   0.20928   0.00000  Uiso   1.00
O417   O     0.50000   0.68573   0.20928   0.00000  Uiso   1.00
O418   O     0.50000   0.81427   0.29072   0.00000  Uiso   1.00
O419   O     0.42495   0.74999   0.28132   0.00000  Uiso   1.00
O420   O     0.57505   0.75000   0.21868   0.00000  Uiso   1.00
O421   O     0.42495   0.75000   0.19988   0.00000  Uiso   1.00
O422   O     0.57505   0.75000   0.30011   0.00000  Uiso   1.00
O423   O     0.65563   0.71003   0.20116   0.00000  Uiso   1.00
C424   C     0.34875   0.66997   0.20129   0.00000  Uiso   1.00
H425   H     0.36663   0.66040   0.23789   0.00000  Uiso   1.00
H426   H     0.37920   0.67301   0.17632   0.00000  Uiso   1.00
C427   C     0.64407   0.63294   0.18395   0.00000  Uiso   1.00
H428   H     0.62599   0.64073   0.14709   0.00000  Uiso   1.00
H429   H     0.66444   0.60135   0.18326   0.00000  Uiso   1.00
H430   H     0.61349   0.62897   0.20870   0.00000  Uiso   1.00
O431   O     0.34466   0.79113   0.29789   0.00000  Uiso   1.00
C432   C     0.65041   0.83034   0.29980   0.00000  Uiso   1.00
H433   H     0.62282   0.82639   0.32734   0.00000  Uiso   1.00
H434   H     0.62902   0.83941   0.26453   0.00000  Uiso   1.00
C435   C     0.35485   0.86840   0.31425   0.00000  Uiso   1.00
H436   H     0.38275   0.87310   0.28700   0.00000  Uiso   1.00
H437   H     0.33368   0.89941   0.31647   0.00000  Uiso   1.00
H438   H     0.37623   0.86122   0.34992   0.00000  Uiso   1.00
C439   C     0.56079   0.81630   0.13165   0.00000  Uiso   1.00
C440   C     0.61272   0.80786   0.14594   0.00000  Uiso   1.00
C441   C     0.64603   0.84140   0.16608   0.00000  Uiso   1.00
C442   C     0.62804   0.88393   0.17086   0.00000  Uiso   1.00
C443   C     0.57702   0.89317   0.15457   0.00000  Uiso   1.00
C444   C     0.54371   0.85970   0.13419   0.00000  Uiso   1.00
H445   H     0.62745   0.77543   0.14094   0.00000  Uiso   1.00
H446   H     0.35249   0.83445   0.17780   0.00000  Uiso   1.00
H447   H     0.65380   0.90982   0.18666   0.00000  Uiso   1.00
H448   H     0.56333   0.92630   0.15753   0.00000  Uiso   1.00
H449   H     0.50450   0.86739   0.12090   0.00000  Uiso   1.00
C450   C     0.42360   0.69667   0.36770   0.00000  Uiso   1.00
C451   C     0.37149   0.70774   0.36232   0.00000  Uiso   1.00
C452   C     0.33340   0.67665   0.34476   0.00000  Uiso   1.00
C453   C     0.34692   0.63414   0.33324   0.00000  Uiso   1.00
C454   C     0.39834   0.62217   0.34086   0.00000  Uiso   1.00
C455   C     0.43619   0.65296   0.35940   0.00000  Uiso   1.00
H456   H     0.36034   0.74002   0.37290   0.00000  Uiso   1.00
H457   H     0.62665   0.68517   0.34086   0.00000  Uiso   1.00
H458   H     0.65076   0.61020   0.31950   0.00000  Uiso   1.00
H459   H     0.40869   0.58876   0.33362   0.00000  Uiso   1.00
H460   H     0.47518   0.64259   0.36866   0.00000  Uiso   1.00
C461   C     0.83390   0.66499   0.25028   0.00000  Uiso   1.00
C462   C     0.83331   0.83480   0.24967   0.00000  Uiso   1.00
C463   C     0.86026   0.78256   0.05546   0.00000  Uiso   1.00
C464   C     0.79549   0.72765   0.44360   0.00000  Uiso   1.00
C465   C     0.86081   0.78208   0.10591   0.00000  Uiso   1.00
C466   C     0.79597   0.72667   0.39328   0.00000  Uiso   1.00
C467   C     0.80689   0.71747   0.10285   0.00000  Uiso   1.00
C468   C     0.87115   0.77296   0.39833   0.00000  Uiso   1.00
C469   C     0.80740   0.71612   0.05237   0.00000  Uiso   1.00
C470   C     0.87294   0.77275   0.44909   0.00000  Uiso   1.00
C471   C     0.83405   0.74935   0.02739   0.00000  Uiso   1.00
C472   C     0.83440   0.74998   0.47291   0.00000  Uiso   1.00
C473   C     0.73499   0.74771   0.23845   0.00000  Uiso   1.00
C474   C     0.93167   0.75273   0.26146   0.00000  Uiso   1.00
C475   C     0.68013   0.73963   0.23468   0.00000  Uiso   1.00
C476   C     0.98652   0.76127   0.26480   0.00000  Uiso   1.00
C477   C     0.85015   0.54703   0.29232   0.00000  Uiso   1.00
C478   C     0.79888   0.95140   0.21792   0.00000  Uiso   1.00
C479   C     0.85074   0.59303   0.29246   0.00000  Uiso   1.00
C480   C     0.79876   0.90540   0.21745   0.00000  Uiso   1.00
C481   C     0.83505   0.61668   0.25023   0.00000  Uiso   1.00
C482   C     0.83398   0.88272   0.24917   0.00000  Uiso   1.00
C483   C     0.82136   0.59388   0.20720   0.00000  Uiso   1.00
C484   C     0.86980   0.90596   0.28083   0.00000  Uiso   1.00
C485   C     0.82237   0.54799   0.20665   0.00000  Uiso   1.00
C486   C     0.87129   0.95192   0.28010   0.00000  Uiso   1.00
C487   C     0.83597   0.52400   0.24936   0.00000  Uiso   1.00
C488   C     0.83545   0.97519   0.24903   0.00000  Uiso   1.00
Cu489  Cu    0.83333   0.74999   0.29821   0.00000  Uiso   1.00
Cu490  Cu    0.83333   0.75000   0.20178   0.00000  Uiso   1.00
H491   H     0.86045   0.52967   0.32601   0.00000  Uiso   1.00
H492   H     0.76990   0.96816   0.19439   0.00000  Uiso   1.00
H493   H     0.86396   0.60998   0.32546   0.00000  Uiso   1.00
H494   H     0.77052   0.88749   0.19322   0.00000  Uiso   1.00
H495   H     0.80983   0.61147   0.17386   0.00000  Uiso   1.00
H496   H     0.89714   0.88857   0.30550   0.00000  Uiso   1.00
H497   H     0.81279   0.53145   0.17265   0.00000  Uiso   1.00
H498   H     0.90077   0.96908   0.30365   0.00000  Uiso   1.00
H499   H     0.88078   0.80930   0.03863   0.00000  Uiso   1.00
H500   H     0.76442   0.71014   0.45942   0.00000  Uiso   1.00
H501   H     0.78574   0.69188   0.12082   0.00000  Uiso   1.00
H502   H     0.90081   0.79112   0.38126   0.00000  Uiso   1.00
H503   H     0.78737   0.68861   0.03359   0.00000  Uiso   1.00
H504   H     0.90500   0.79005   0.46911   0.00000  Uiso   1.00
N505   N     0.83333   0.75001   0.12934   0.00000  Uiso   1.00
N506   N     0.83333   0.74999   0.37065   0.00000  Uiso   1.00
O507   O     0.83334   0.68572   0.29071   0.00000  Uiso   1.00
O508   O     0.83333   0.81427   0.20928   0.00000  Uiso   1.00
O509   O     0.83334   0.68573   0.20928   0.00000  Uiso   1.00
O510   O     0.83333   0.81427   0.29072   0.00000  Uiso   1.00
O511   O     0.75828   0.74999   0.28132   0.00000  Uiso   1.00
O512   O     0.90839   0.75000   0.21868   0.00000  Uiso   1.00
O513   O     0.75828   0.75000   0.19988   0.00000  Uiso   1.00
O514   O     0.90839   0.75000   0.30011   0.00000  Uiso   1.00
O515   O     0.98896   0.71003   0.20116   0.00000  Uiso   1.00
C516   C     0.68208   0.66997   0.20129   0.00000  Uiso   1.00
H517   H     0.69996   0.66040   0.23789   0.00000  Uiso   1.00
H518   H     0.71253   0.67301   0.17632   0.00000  Uiso   1.00
C519   C     0.97740   0.63294   0.18395   0.00000  Uiso   1.00
H520   H     0.95933   0.64073   0.14709   0.00000  Uiso   1.00
H521   H     0.99778   0.60135   0.18326   0.00000  Uiso   1.00
H522   H     0.94683   0.62897   0.20870   0.00000  Uiso   1.00
O523   O     0.67799   0.79113   0.29789   0.00000  Uiso   1.00
C524   C     0.98374   0.83034   0.29980   0.00000  Uiso   1.00
H525   H     0.95615   0.82639   0.32734   0.00000  Uiso   1.00
H526   H     0.96235   0.83941   0.26453   0.00000  Uiso   1.00
C527   C     0.68819   0.86840   0.31425   0.00000  Uiso   1.00
H528   H     0.71609   0.87310   0.28700   0.00000  Uiso   1.00
H529   H     0.66702   0.89941   0.31647   0.00000  Uiso   1.00
H530   H     0.70956   0.86122   0.34992   0.00000  Uiso   1.00
C531   C     0.89412   0.81630   0.13165   0.00000  Uiso   1.00
C532   C     0.94605   0.80786   0.14594   0.00000  Uiso   1.00
C533   C     0.97936   0.84140   0.16608   0.00000  Uiso   1.00
C534   C     0.96138   0.88393   0.17086   0.00000  Uiso   1.00
C535   C     0.91035   0.89317   0.15457   0.00000  Uiso   1.00
C536   C     0.87704   0.85970   0.13419   0.00000  Uiso   1.00
H537   H     0.96078   0.77543   0.14094   0.00000  Uiso   1.00
H538   H     0.68582   0.83445   0.17780   0.00000  Uiso   1.00
H539   H     0.98713   0.90982   0.18666   0.00000  Uiso   1.00
H540   H     0.89667   0.92630   0.15753   0.00000  Uiso   1.00
H541   H     0.83784   0.86739   0.12090   0.00000  Uiso   1.00
C542   C     0.75693   0.69667   0.36770   0.00000  Uiso   1.00
C543   C     0.70482   0.70774   0.36232   0.00000  Uiso   1.00
C544   C     0.66674   0.67665   0.34476   0.00000  Uiso   1.00
C545   C     0.68025   0.63414   0.33324   0.00000  Uiso   1.00
C546   C     0.73167   0.62217   0.34086   0.00000  Uiso   1.00
C547   C     0.76953   0.65296   0.35940   0.00000  Uiso   1.00
H548   H     0.69367   0.74002   0.37290   0.00000  Uiso   1.00
H549   H     0.95998   0.68517   0.34086   0.00000  Uiso   1.00
H550   H     0.98409   0.61020   0.31950   0.00000  Uiso   1.00
H551   H     0.74202   0.58876   0.33362   0.00000  Uiso   1.00
H552   H     0.80851   0.64259   0.36866   0.00000  Uiso   1.00
C553   C     0.16724   0.16499   0.75028   0.00000  Uiso   1.00
C554   C     0.16664   0.33480   0.74967   0.00000  Uiso   1.00
C555   C     0.19360   0.28256   0.55546   0.00000  Uiso   1.00
C556   C     0.12883   0.22765   0.94360   0.00000  Uiso   1.00
C557   C     0.19415   0.28208   0.60591   0.00000  Uiso   1.00
C558   C     0.12930   0.22667   0.89328   0.00000  Uiso   1.00
C559   C     0.14022   0.21747   0.60285   0.00000  Uiso   1.00
C560   C     0.20448   0.27296   0.89833   0.00000  Uiso   1.00
C561   C     0.14074   0.21612   0.55237   0.00000  Uiso   1.00
C562   C     0.20628   0.27275   0.94909   0.00000  Uiso   1.00
C563   C     0.16738   0.24935   0.52739   0.00000  Uiso   1.00
C564   C     0.16774   0.24998   0.97291   0.00000  Uiso   1.00
C565   C     0.06832   0.24771   0.73845   0.00000  Uiso   1.00
C566   C     0.26501   0.25273   0.76146   0.00000  Uiso   1.00
C567   C     0.01347   0.23963   0.73468   0.00000  Uiso   1.00
C568   C     0.31986   0.26127   0.76480   0.00000  Uiso   1.00
C569   C     0.18348   0.04703   0.79232   0.00000  Uiso   1.00
C570   C     0.13221   0.45140   0.71792   0.00000  Uiso   1.00
C571   C     0.18407   0.09303   0.79246   0.00000  Uiso   1.00
C572   C     0.13209   0.40540   0.71745   0.00000  Uiso   1.00
C573   C     0.16838   0.11668   0.75023   0.00000  Uiso   1.00
C574   C     0.16731   0.38272   0.74917   0.00000  Uiso   1.00
C575   C     0.15469   0.09388   0.70720   0.00000  Uiso   1.00
C576   C     0.20313   0.40596   0.78083   0.00000  Uiso   1.00
C577   C     0.15570   0.04799   0.70665   0.00000  Uiso   1.00
C578   C     0.20463   0.45192   0.78010   0.00000  Uiso   1.00
C579   C     0.16930   0.02400   0.74936   0.00000  Uiso   1.00
C580   C     0.16878   0.47519   0.74903   0.00000  Uiso   1.00
Cu581  Cu    0.16667   0.24999   0.79821   0.00000  Uiso   1.00
Cu582  Cu    0.16667   0.25000   0.70178   0.00000  Uiso   1.00
H583   H     0.19378   0.02967   0.82601   0.00000  Uiso   1.00
H584   H     0.10323   0.46816   0.69439   0.00000  Uiso   1.00
H585   H     0.19730   0.10998   0.82546   0.00000  Uiso   1.00
H586   H     0.10385   0.38749   0.69322   0.00000  Uiso   1.00
H587   H     0.14316   0.11147   0.67386   0.00000  Uiso   1.00
H588   H     0.23047   0.38857   0.80550   0.00000  Uiso   1.00
H589   H     0.14612   0.03145   0.67265   0.00000  Uiso   1.00
H590   H     0.23411   0.46908   0.80365   0.00000  Uiso   1.00
H591   H     0.21411   0.30930   0.53863   0.00000  Uiso   1.00
H592   H     0.09775   0.21014   0.95942   0.00000  Uiso   1.00
H593   H     0.11908   0.19188   0.62082   0.00000  Uiso   1.00
H594   H     0.23414   0.29112   0.88126   0.00000  Uiso   1.00
H595   H     0.12070   0.18861   0.53359   0.00000  Uiso   1.00
H596   H     0.23834   0.29005   0.96911   0.00000  Uiso   1.00
N597   N     0.16667   0.25001   0.62934   0.00000  Uiso   1.00
N598   N     0.16667   0.24999   0.87065   0.00000  Uiso   1.00
O599   O     0.16667   0.18572   0.79071   0.00000  Uiso   1.00
O600   O     0.16666   0.31427   0.70928   0.00000  Uiso   1.00
O601   O     0.16667   0.18573   0.70928   0.00000  Uiso   1.00
O602   O     0.16666   0.31427   0.79072   0.00000  Uiso   1.00
O603   O     0.09161   0.24999   0.78132   0.00000  Uiso   1.00
O604   O     0.24172   0.25000   0.71868   0.00000  Uiso   1.00
O605   O     0.09161   0.25000   0.69988   0.00000  Uiso   1.00
O606   O     0.24172   0.25000   0.80011   0.00000  Uiso   1.00
O607   O     0.32229   0.21003   0.70116   0.00000  Uiso   1.00
C608   C     0.01541   0.16997   0.70129   0.00000  Uiso   1.00
H609   H     0.03329   0.16040   0.73789   0.00000  Uiso   1.00
H610   H     0.04587   0.17301   0.67632   0.00000  Uiso   1.00
C611   C     0.31073   0.13294   0.68395   0.00000  Uiso   1.00
H612   H     0.29266   0.14073   0.64709   0.00000  Uiso   1.00
H613   H     0.33111   0.10135   0.68326   0.00000  Uiso   1.00
H614   H     0.28016   0.12897   0.70870   0.00000  Uiso   1.00
O615   O     0.01133   0.29113   0.79789   0.00000  Uiso   1.00
C616   C     0.31708   0.33034   0.79980   0.00000  Uiso   1.00
H617   H     0.28948   0.32639   0.82734   0.00000  Uiso   1.00
H618   H     0.29569   0.33941   0.76453   0.00000  Uiso   1.00
C619   C     0.02152   0.36840   0.81425   0.00000  Uiso   1.00
H620   H     0.04942   0.37310   0.78700   0.00000  Uiso   1.00
H621   H     0.00035   0.39941   0.81647   0.00000  Uiso   1.00
H622   H     0.04289   0.36122   0.84992   0.00000  Uiso   1.00
C623   C     0.22745   0.31630   0.63165   0.00000  Uiso   1.00
C624   C     0.27938   0.30786   0.64594   0.00000  Uiso   1.00
C625   C     0.31270   0.34140   0.66608   0.00000  Uiso   1.00
C626   C     0.29471   0.38393   0.67086   0.00000  Uiso   1.00
C627   C     0.24369   0.39317   0.65457   0.00000  Uiso   1.00
C628   C     0.21038   0.35970   0.63419   0.00000  Uiso   1.00
H629   H     0.29411   0.27543   0.64094   0.00000  Uiso   1.00
H630   H     0.01915   0.33445   0.67780   0.00000  Uiso   1.00
H631   H     0.32047   0.40982   0.68666   0.00000  Uiso   1.00
H632   H     0.23000   0.42630   0.65753   0.00000  Uiso   1.00
H633   H     0.17117   0.36739   0.62090   0.00000  Uiso   1.00
C634   C     0.09027   0.19667   0.86770   0.00000  Uiso   1.00
C635   C     0.03816   0.20774   0.86232   0.00000  Uiso   1.00
C636   C     0.00007   0.17665   0.84476   0.00000  Uiso   1.00
C637   C     0.01359   0.13414   0.83324   0.00000  Uiso   1.00
C638   C     0.06501   0.12217   0.84086   0.00000  Uiso   1.00
C639   C     0.10286   0.15296   0.85940   0.00000  Uiso   1.00
H640   H     0.02701   0.24002   0.87290   0.00000  Uiso   1.00
H641   H     0.29331   0.18517   0.84086   0.00000  Uiso   1.00
H642   H     0.31743   0.11020   0.81950   0.00000  Uiso   1.00
H643   H     0.07535   0.08876   0.83362   0.00000  Uiso   1.00
H644   H     0.14185   0.14259   0.86866   0.00000  Uiso   1.00
C645   C     0.50057   0.16499   0.75028   0.00000  Uiso   1.00
C646   C     0.49998   0.33480   0.74967   0.00000  Uiso   1.00
C647   C     0.52693   0.28256   0.55546   0.00000  Uiso   1.00
C648   C     0.46216   0.22765   0.94360   0.00000  Uiso   1.00
C649   C     0.52748   0.28208   0.60591   0.00000  Uiso   1.00
C650   C     0.46263   0.22667   0.89328   0.00000  Uiso   1.00
C651   C     0.47356   0.21747   0.60285   0.00000  Uiso   1.00
C652   C     0.53782   0.27296   0.89833   0.00000  Uiso   1.00
C653   C     0.47407   0.21612   0.55237   0.00000  Uiso   1.00
C654   C     0.53961   0.27275   0.94909   0.00000  Uiso   1.00
C655   C     0.50072   0.24935   0.52739   0.00000  Uiso   1.00
C656   C     0.50107   0.24998   0.97291   0.00000  Uiso   1.00
C657   C     0.40165   0.24771   0.73845   0.00000  Uiso   1.00
C658   C     0.59834   0.25273   0.76146   0.00000  Uiso   1.00
C659   C     0.34680   0.23963   0.73468   0.00000  Uiso   1.00
C660   C     0.65319   0.26127   0.76480   0.00000  Uiso   1.00
C661   C     0.51681   0.04703   0.79232   0.00000  Uiso   1.00
C662   C     0.46555   0.45140   0.71792   0.00000  Uiso   1.00
C663   C     0.51740   0.09303   0.79246   0.00000  Uiso   1.00
C664   C     0.46542   0.40540   0.71745   0.00000  Uiso   1.00
C665   C     0.50171   0.11668   0.75023   0.00000  Uiso   1.00
C666   C     0.50064   0.38272   0.74917   0.00000  Uiso   1.00
C667   C     0.48802   0.09388   0.70720   0.00000  Uiso   1.00
C668   C     0.53646   0.40596   0.78083   0.00000  Uiso   1.00
C669   C     0.48904   0.04799   0.70665   0.00000  Uiso   1.00
C670   C     0.53796   0.45192   0.78010   0.00000  Uiso   1.00
C671   C     0.50264   0.02400   0.74936   0.00000  Uiso   1.00
C672   C     0.50212   0.47519   0.74903   0.00000  Uiso   1.00
Cu673  Cu    0.50000   0.24999   0.79821   0.00000  Uiso   1.00
Cu674  Cu    0.50000   0.25000   0.70178   0.00000  Uiso   1.00
H675   H     0.52711   0.02967   0.82601   0.00000  Uiso   1.00
H676   H     0.43657   0.46816   0.69439   0.00000  Uiso   1.00
H677   H     0.53063   0.10998   0.82546   0.00000  Uiso   1.00
H678   H     0.43719   0.38749   0.69322   0.00000  Uiso   1.00
H679   H     0.47650   0.11147   0.67386   0.00000  Uiso   1.00
H680   H     0.56381   0.38857   0.80550   0.00000  Uiso   1.00
H681   H     0.47946   0.03145   0.67265   0.00000  Uiso   1.00
H682   H     0.56744   0.46908   0.80365   0.00000  Uiso   1.00
H683   H     0.54745   0.30930   0.53863   0.00000  Uiso   1.00
H684   H     0.43108   0.21014   0.95942   0.00000  Uiso   1.00
H685   H     0.45241   0.19188   0.62082   0.00000  Uiso   1.00
H686   H     0.56747   0.29112   0.88126   0.00000  Uiso   1.00
H687   H     0.45403   0.18861   0.53359   0.00000  Uiso   1.00
H688   H     0.57167   0.29005   0.96911   0.00000  Uiso   1.00
N689   N     0.50000   0.25001   0.62934   0.00000  Uiso   1.00
N690   N     0.50000   0.24999   0.87065   0.00000  Uiso   1.00
O691   O     0.50000   0.18572   0.79071   0.00000  Uiso   1.00
O692   O     0.50000   0.31427   0.70928   0.00000  Uiso   1.00
O693   O     0.50000   0.18573   0.70928   0.00000  Uiso   1.00
O694   O     0.50000   0.31427   0.79072   0.00000  Uiso   1.00
O695   O     0.42495   0.24999   0.78132   0.00000  Uiso   1.00
O696   O     0.57505   0.25000   0.71868   0.00000  Uiso   1.00
O697   O     0.42495   0.25000   0.69988   0.00000  Uiso   1.00
O698   O     0.57505   0.25000   0.80011   0.00000  Uiso   1.00
O699   O     0.65563   0.21003   0.70116   0.00000  Uiso   1.00
C700   C     0.34875   0.16997   0.70129   0.00000  Uiso   1.00
H701   H     0.36663   0.16040   0.73789   0.00000  Uiso   1.00
H702   H     0.37920   0.17301   0.67632   0.00000  Uiso   1.00
C703   C     0.64407   0.13294   0.68395   0.00000  Uiso   1.00
H704   H     0.62599   0.14073   0.64709   0.00000  Uiso   1.00
H705   H     0.66444   0.10135   0.68326   0.00000  Uiso   1.00
H706   H     0.61349   0.12897   0.70870   0.00000  Uiso   1.00
O707   O     0.34466   0.29113   0.79789   0.00000  Uiso   1.00
C708   C     0.65041   0.33034   0.79980   0.00000  Uiso   1.00
H709   H     0.62282   0.32639   0.82734   0.00000  Uiso   1.00
H710   H     0.62902   0.33941   0.76453   0.00000  Uiso   1.00
C711   C     0.35485   0.36840   0.81425   0.00000  Uiso   1.00
H712   H     0.38275   0.37310   0.78700   0.00000  Uiso   1.00
H713   H     0.33368   0.39941   0.81647   0.00000  Uiso   1.00
H714   H     0.37623   0.36122   0.84992   0.00000  Uiso   1.00
C715   C     0.56079   0.31630   0.63165   0.00000  Uiso   1.00
C716   C     0.61272   0.30786   0.64594   0.00000  Uiso   1.00
C717   C     0.64603   0.34140   0.66608   0.00000  Uiso   1.00
C718   C     0.62804   0.38393   0.67086   0.00000  Uiso   1.00
C719   C     0.57702   0.39317   0.65457   0.00000  Uiso   1.00
C720   C     0.54371   0.35970   0.63419   0.00000  Uiso   1.00
H721   H     0.62745   0.27543   0.64094   0.00000  Uiso   1.00
H722   H     0.35249   0.33445   0.67780   0.00000  Uiso   1.00
H723   H     0.65380   0.40982   0.68666   0.00000  Uiso   1.00
H724   H     0.56333   0.42630   0.65753   0.00000  Uiso   1.00
H725   H     0.50450   0.36739   0.62090   0.00000  Uiso   1.00
C726   C     0.42360   0.19667   0.86770   0.00000  Uiso   1.00
C727   C     0.37149   0.20774   0.86232   0.00000  Uiso   1.00
C728   C     0.33340   0.17665   0.84476   0.00000  Uiso   1.00
C729   C     0.34692   0.13414   0.83324   0.00000  Uiso   1.00
C730   C     0.39834   0.12217   0.84086   0.00000  Uiso   1.00
C731   C     0.43619   0.15296   0.85940   0.00000  Uiso   1.00
H732   H     0.36034   0.24002   0.87290   0.00000  Uiso   1.00
H733   H     0.62665   0.18517   0.84086   0.00000  Uiso   1.00
H734   H     0.65076   0.11020   0.81950   0.00000  Uiso   1.00
H735   H     0.40869   0.08876   0.83362   0.00000  Uiso   1.00
H736   H     0.47518   0.14259   0.86866   0.00000  Uiso   1.00
C737   C     0.83390   0.16499   0.75028   0.00000  Uiso   1.00
C738   C     0.83331   0.33480   0.74967   0.00000  Uiso   1.00
C739   C     0.86026   0.28256   0.55546   0.00000  Uiso   1.00
C740   C     0.79549   0.22765   0.94360   0.00000  Uiso   1.00
C741   C     0.86081   0.28208   0.60591   0.00000  Uiso   1.00
C742   C     0.79597   0.22667   0.89328   0.00000  Uiso   1.00
C743   C     0.80689   0.21747   0.60285   0.00000  Uiso   1.00
C744   C     0.87115   0.27296   0.89833   0.00000  Uiso   1.00
C745   C     0.80740   0.21612   0.55237   0.00000  Uiso   1.00
C746   C     0.87294   0.27275   0.94909   0.00000  Uiso   1.00
C747   C     0.83405   0.24935   0.52739   0.00000  Uiso   1.00
C748   C     0.83440   0.24998   0.97291   0.00000  Uiso   1.00
C749   C     0.73499   0.24771   0.73845   0.00000  Uiso   1.00
C750   C     0.93167   0.25273   0.76146   0.00000  Uiso   1.00
C751   C     0.68013   0.23963   0.73468   0.00000  Uiso   1.00
C752   C     0.98652   0.26127   0.76480   0.00000  Uiso   1.00
C753   C     0.85015   0.04703   0.79232   0.00000  Uiso   1.00
C754   C     0.79888   0.45140   0.71792   0.00000  Uiso   1.00
C755   C     0.85074   0.09303   0.79246   0.00000  Uiso   1.00
C756   C     0.79876   0.40540   0.71745   0.00000  Uiso   1.00
C757   C     0.83505   0.11668   0.75023   0.00000  Uiso   1.00
C758   C     0.83398   0.38272   0.74917   0.00000  Uiso   1.00
C759   C     0.82136   0.09388   0.70720   0.00000  Uiso   1.00
C760   C     0.86980   0.40596   0.78083   0.00000  Uiso   1.00
C761   C     0.82237   0.04799   0.70665   0.00000  Uiso   1.00
C762   C     0.87129   0.45192   0.78010   0.00000  Uiso   1.00
C763   C     0.83597   0.02400   0.74936   0.00000  Uiso   1.00
C764   C     0.83545   0.47519   0.74903   0.00000  Uiso   1.00
Cu765  Cu    0.83333   0.24999   0.79821   0.00000  Uiso   1.00
Cu766  Cu    0.83333   0.25000   0.70178   0.00000  Uiso   1.00
H767   H     0.86045   0.02967   0.82601   0.00000  Uiso   1.00
H768   H     0.76990   0.46816   0.69439   0.00000  Uiso   1.00
H769   H     0.86396   0.10998   0.82546   0.00000  Uiso   1.00
H770   H     0.77052   0.38749   0.69322   0.00000  Uiso   1.00
H771   H     0.80983   0.11147   0.67386   0.00000  Uiso   1.00
H772   H     0.89714   0.38857   0.80550   0.00000  Uiso   1.00
H773   H     0.81279   0.03145   0.67265   0.00000  Uiso   1.00
H774   H     0.90077   0.46908   0.80365   0.00000  Uiso   1.00
H775   H     0.88078   0.30930   0.53863   0.00000  Uiso   1.00
H776   H     0.76442   0.21014   0.95942   0.00000  Uiso   1.00
H777   H     0.78574   0.19188   0.62082   0.00000  Uiso   1.00
H778   H     0.90081   0.29112   0.88126   0.00000  Uiso   1.00
H779   H     0.78737   0.18861   0.53359   0.00000  Uiso   1.00
H780   H     0.90500   0.29005   0.96911   0.00000  Uiso   1.00
N781   N     0.83333   0.25001   0.62934   0.00000  Uiso   1.00
N782   N     0.83333   0.24999   0.87065   0.00000  Uiso   1.00
O783   O     0.83334   0.18572   0.79071   0.00000  Uiso   1.00
O784   O     0.83333   0.31427   0.70928   0.00000  Uiso   1.00
O785   O     0.83334   0.18573   0.70928   0.00000  Uiso   1.00
O786   O     0.83333   0.31427   0.79072   0.00000  Uiso   1.00
O787   O     0.75828   0.24999   0.78132   0.00000  Uiso   1.00
O788   O     0.90839   0.25000   0.71868   0.00000  Uiso   1.00
O789   O     0.75828   0.25000   0.69988   0.00000  Uiso   1.00
O790   O     0.90839   0.25000   0.80011   0.00000  Uiso   1.00
O791   O     0.98896   0.21003   0.70116   0.00000  Uiso   1.00
C792   C     0.68208   0.16997   0.70129   0.00000  Uiso   1.00
H793   H     0.69996   0.16040   0.73789   0.00000  Uiso   1.00
H794   H     0.71253   0.17301   0.67632   0.00000  Uiso   1.00
C795   C     0.97740   0.13294   0.68395   0.00000  Uiso   1.00
H796   H     0.95933   0.14073   0.64709   0.00000  Uiso   1.00
H797   H     0.99778   0.10135   0.68326   0.00000  Uiso   1.00
H798   H     0.94683   0.12897   0.70870   0.00000  Uiso   1.00
O799   O     0.67799   0.29113   0.79789   0.00000  Uiso   1.00
C800   C     0.98374   0.33034   0.79980   0.00000  Uiso   1.00
H801   H     0.95615   0.32639   0.82734   0.00000  Uiso   1.00
H802   H     0.96235   0.33941   0.76453   0.00000  Uiso   1.00
C803   C     0.68819   0.36840   0.81425   0.00000  Uiso   1.00
H804   H     0.71609   0.37310   0.78700   0.00000  Uiso   1.00
H805   H     0.66702   0.39941   0.81647   0.00000  Uiso   1.00
H806   H     0.70956   0.36122   0.84992   0.00000  Uiso   1.00
C807   C     0.89412   0.31630   0.63165   0.00000  Uiso   1.00
C808   C     0.94605   0.30786   0.64594   0.00000  Uiso   1.00
C809   C     0.97936   0.34140   0.66608   0.00000  Uiso   1.00
C810   C     0.96138   0.38393   0.67086   0.00000  Uiso   1.00
C811   C     0.91035   0.39317   0.65457   0.00000  Uiso   1.00
C812   C     0.87704   0.35970   0.63419   0.00000  Uiso   1.00
H813   H     0.96078   0.27543   0.64094   0.00000  Uiso   1.00
H814   H     0.68582   0.33445   0.67780   0.00000  Uiso   1.00
H815   H     0.98713   0.40982   0.68666   0.00000  Uiso   1.00
H816   H     0.89667   0.42630   0.65753   0.00000  Uiso   1.00
H817   H     0.83784   0.36739   0.62090   0.00000  Uiso   1.00
C818   C     0.75693   0.19667   0.86770   0.00000  Uiso   1.00
C819   C     0.70482   0.20774   0.86232   0.00000  Uiso   1.00
C820   C     0.66674   0.17665   0.84476   0.00000  Uiso   1.00
C821   C     0.68025   0.13414   0.83324   0.00000  Uiso   1.00
C822   C     0.73167   0.12217   0.84086   0.00000  Uiso   1.00
C823   C     0.76953   0.15296   0.85940   0.00000  Uiso   1.00
H824   H     0.69367   0.24002   0.87290   0.00000  Uiso   1.00
H825   H     0.95998   0.18517   0.84086   0.00000  Uiso   1.00
H826   H     0.98409   0.11020   0.81950   0.00000  Uiso   1.00
H827   H     0.74202   0.08876   0.83362   0.00000  Uiso   1.00
H828   H     0.80851   0.14259   0.86866   0.00000  Uiso   1.00
C829   C     0.16724   0.66499   0.75028   0.00000  Uiso   1.00
C830   C     0.16664   0.83480   0.74967   0.00000  Uiso   1.00
C831   C     0.19360   0.78256   0.55546   0.00000  Uiso   1.00
C832   C     0.12883   0.72765   0.94360   0.00000  Uiso   1.00
C833   C     0.19415   0.78208   0.60591   0.00000  Uiso   1.00
C834   C     0.12930   0.72667   0.89328   0.00000  Uiso   1.00
C835   C     0.14022   0.71747   0.60285   0.00000  Uiso   1.00
C836   C     0.20448   0.77296   0.89833   0.00000  Uiso   1.00
C837   C     0.14074   0.71612   0.55237   0.00000  Uiso   1.00
C838   C     0.20628   0.77275   0.94909   0.00000  Uiso   1.00
C839   C     0.16738   0.74935   0.52739   0.00000  Uiso   1.00
C840   C     0.16774   0.74998   0.97291   0.00000  Uiso   1.00
C841   C     0.06832   0.74771   0.73845   0.00000  Uiso   1.00
C842   C     0.26501   0.75273   0.76146   0.00000  Uiso   1.00
C843   C     0.01347   0.73963   0.73468   0.00000  Uiso   1.00
C844   C     0.31986   0.76127   0.76480   0.00000  Uiso   1.00
C845   C     0.18348   0.54703   0.79232   0.00000  Uiso   1.00
C846   C     0.13221   0.95140   0.71792   0.00000  Uiso   1.00
C847   C     0.18407   0.59303   0.79246   0.00000  Uiso   1.00
C848   C     0.13209   0.90540   0.71745   0.00000  Uiso   1.00
C849   C     0.16838   0.61668   0.75023   0.00000  Uiso   1.00
C850   C     0.16731   0.88272   0.74917   0.00000  Uiso   1.00
C851   C     0.15469   0.59388   0.70720   0.00000  Uiso   1.00
C852   C     0.20313   0.90596   0.78083   0.00000  Uiso   1.00
C853   C     0.15570   0.54799   0.70665   0.00000  Uiso   1.00
C854   C     0.20463   0.95192   0.78010   0.00000  Uiso   1.00
C855   C     0.16930   0.52400   0.74936   0.00000  Uiso   1.00
C856   C     0.16878   0.97519   0.74903   0.00000  Uiso   1.00
Cu857  Cu    0.16667   0.74999   0.79821   0.00000  Uiso   1.00
Cu858  Cu    0.16667   0.75000   0.70178   0.00000  Uiso   1.00
H859   H     0.19378   0.52967   0.82601   0.00000  Uiso   1.00
H860   H     0.10323   0.96816   0.69439   0.00000  Uiso   1.00
H861   H     0.19730   0.60998   0.82546   0.00000  Uiso   1.00
H862   H     0.10385   0.88749   0.69322   0.00000  Uiso   1.00
H863   H     0.14316   0.61147   0.67386   0.00000  Uiso   1.00
H864   H     0.23047   0.88857   0.80550   0.00000  Uiso   1.00
H865   H     0.14612   0.53145   0.67265   0.00000  Uiso   1.00
H866   H     0.23411   0.96908   0.80365   0.00000  Uiso   1.00
H867   H     0.21411   0.80930   0.53863   0.00000  Uiso   1.00
H868   H     0.09775   0.71014   0.95942   0.00000  Uiso   1.00
H869   H     0.11908   0.69188   0.62082   0.00000  Uiso   1.00
H870   H     0.23414   0.79112   0.88126   0.00000  Uiso   1.00
H871   H     0.12070   0.68861   0.53359   0.00000  Uiso   1.00
H872   H     0.23834   0.79005   0.96911   0.00000  Uiso   1.00
N873   N     0.16667   0.75001   0.62934   0.00000  Uiso   1.00
N874   N     0.16667   0.74999   0.87065   0.00000  Uiso   1.00
O875   O     0.16667   0.68572   0.79071   0.00000  Uiso   1.00
O876   O     0.16666   0.81427   0.70928   0.00000  Uiso   1.00
O877   O     0.16667   0.68573   0.70928   0.00000  Uiso   1.00
O878   O     0.16666   0.81427   0.79072   0.00000  Uiso   1.00
O879   O     0.09161   0.74999   0.78132   0.00000  Uiso   1.00
O880   O     0.24172   0.75000   0.71868   0.00000  Uiso   1.00
O881   O     0.09161   0.75000   0.69988   0.00000  Uiso   1.00
O882   O     0.24172   0.75000   0.80011   0.00000  Uiso   1.00
O883   O     0.32229   0.71003   0.70116   0.00000  Uiso   1.00
C884   C     0.01541   0.66997   0.70129   0.00000  Uiso   1.00
H885   H     0.03329   0.66040   0.73789   0.00000  Uiso   1.00
H886   H     0.04587   0.67301   0.67632   0.00000  Uiso   1.00
C887   C     0.31073   0.63294   0.68395   0.00000  Uiso   1.00
H888   H     0.29266   0.64073   0.64709   0.00000  Uiso   1.00
H889   H     0.33111   0.60135   0.68326   0.00000  Uiso   1.00
H890   H     0.28016   0.62897   0.70870   0.00000  Uiso   1.00
O891   O     0.01133   0.79113   0.79789   0.00000  Uiso   1.00
C892   C     0.31708   0.83034   0.79980   0.00000  Uiso   1.00
H893   H     0.28948   0.82639   0.82734   0.00000  Uiso   1.00
H894   H     0.29569   0.83941   0.76453   0.00000  Uiso   1.00
C895   C     0.02152   0.86840   0.81425   0.00000  Uiso   1.00
H896   H     0.04942   0.87310   0.78700   0.00000  Uiso   1.00
H897   H     0.00035   0.89941   0.81647   0.00000  Uiso   1.00
H898   H     0.04289   0.86122   0.84992   0.00000  Uiso   1.00
C899   C     0.22745   0.81630   0.63165   0.00000  Uiso   1.00
C900   C     0.27938   0.80786   0.64594   0.00000  Uiso   1.00
C901   C     0.31270   0.84140   0.66608   0.00000  Uiso   1.00
C902   C     0.29471   0.88393   0.67086   0.00000  Uiso   1.00
C903   C     0.24369   0.89317   0.65457   0.00000  Uiso   1.00
C904   C     0.21038   0.85970   0.63419   0.00000  Uiso   1.00
H905   H     0.29411   0.77543   0.64094   0.00000  Uiso   1.00
H906   H     0.01915   0.83445   0.67780   0.00000  Uiso   1.00
H907   H     0.32047   0.90982   0.68666   0.00000  Uiso   1.00
H908   H     0.23000   0.92630   0.65753   0.00000  Uiso   1.00
H909   H     0.17117   0.86739   0.62090   0.00000  Uiso   1.00
C910   C     0.09027   0.69667   0.86770   0.00000  Uiso   1.00
C911   C     0.03816   0.70774   0.86232   0.00000  Uiso   1.00
C912   C     0.00007   0.67665   0.84476   0.00000  Uiso   1.00
C913   C     0.01359   0.63414   0.83324   0.00000  Uiso   1.00
C914   C     0.06501   0.62217   0.84086   0.00000  Uiso   1.00
C915   C     0.10286   0.65296   0.85940   0.00000  Uiso   1.00
H916   H     0.02701   0.74002   0.87290   0.00000  Uiso   1.00
H917   H     0.29331   0.68517   0.84086   0.00000  Uiso   1.00
H918   H     0.31743   0.61020   0.81950   0.00000  Uiso   1.00
H919   H     0.07535   0.58876   0.83362   0.00000  Uiso   1.00
H920   H     0.14185   0.64259   0.86866   0.00000  Uiso   1.00
C921   C     0.50057   0.66499   0.75028   0.00000  Uiso   1.00
C922   C     0.49998   0.83480   0.74967   0.00000  Uiso   1.00
C923   C     0.52693   0.78256   0.55546   0.00000  Uiso   1.00
C924   C     0.46216   0.72765   0.94360   0.00000  Uiso   1.00
C925   C     0.52748   0.78208   0.60591   0.00000  Uiso   1.00
C926   C     0.46263   0.72667   0.89328   0.00000  Uiso   1.00
C927   C     0.47356   0.71747   0.60285   0.00000  Uiso   1.00
C928   C     0.53782   0.77296   0.89833   0.00000  Uiso   1.00
C929   C     0.47407   0.71612   0.55237   0.00000  Uiso   1.00
C930   C     0.53961   0.77275   0.94909   0.00000  Uiso   1.00
C931   C     0.50072   0.74935   0.52739   0.00000  Uiso   1.00
C932   C     0.50107   0.74998   0.97291   0.00000  Uiso   1.00
C933   C     0.40165   0.74771   0.73845   0.00000  Uiso   1.00
C934   C     0.59834   0.75273   0.76146   0.00000  Uiso   1.00
C935   C     0.34680   0.73963   0.73468   0.00000  Uiso   1.00
C936   C     0.65319   0.76127   0.76480   0.00000  Uiso   1.00
C937   C     0.51681   0.54703   0.79232   0.00000  Uiso   1.00
C938   C     0.46555   0.95140   0.71792   0.00000  Uiso   1.00
C939   C     0.51740   0.59303   0.79246   0.00000  Uiso   1.00
C940   C     0.46542   0.90540   0.71745   0.00000  Uiso   1.00
C941   C     0.50171   0.61668   0.75023   0.00000  Uiso   1.00
C942   C     0.50064   0.88272   0.74917   0.00000  Uiso   1.00
C943   C     0.48802   0.59388   0.70720   0.00000  Uiso   1.00
C944   C     0.53646   0.90596   0.78083   0.00000  Uiso   1.00
C945   C     0.48904   0.54799   0.70665   0.00000  Uiso   1.00
C946   C     0.53796   0.95192   0.78010   0.00000  Uiso   1.00
C947   C     0.50264   0.52400   0.74936   0.00000  Uiso   1.00
C948   C     0.50212   0.97519   0.74903   0.00000  Uiso   1.00
Cu949  Cu    0.50000   0.74999   0.79821   0.00000  Uiso   1.00
Cu950  Cu    0.50000   0.75000   0.70178   0.00000  Uiso   1.00
H951   H     0.52711   0.52967   0.82601   0.00000  Uiso   1.00
H952   H     0.43657   0.96816   0.69439   0.00000  Uiso   1.00
H953   H     0.53063   0.60998   0.82546   0.00000  Uiso   1.00
H954   H     0.43719   0.88749   0.69322   0.00000  Uiso   1.00
H955   H     0.47650   0.61147   0.67386   0.00000  Uiso   1.00
H956   H     0.56381   0.88857   0.80550   0.00000  Uiso   1.00
H957   H     0.47946   0.53145   0.67265   0.00000  Uiso   1.00
H958   H     0.56744   0.96908   0.80365   0.00000  Uiso   1.00
H959   H     0.54745   0.80930   0.53863   0.00000  Uiso   1.00
H960   H     0.43108   0.71014   0.95942   0.00000  Uiso   1.00
H961   H     0.45241   0.69188   0.62082   0.00000  Uiso   1.00
H962   H     0.56747   0.79112   0.88126   0.00000  Uiso   1.00
H963   H     0.45403   0.68861   0.53359   0.00000  Uiso   1.00
H964   H     0.57167   0.79005   0.96911   0.00000  Uiso   1.00
N965   N     0.50000   0.75001   0.62934   0.00000  Uiso   1.00
N966   N     0.50000   0.74999   0.87065   0.00000  Uiso   1.00
O967   O     0.50000   0.68572   0.79071   0.00000  Uiso   1.00
O968   O     0.50000   0.81427   0.70928   0.00000  Uiso   1.00
O969   O     0.50000   0.68573   0.70928   0.00000  Uiso   1.00
O970   O     0.50000   0.81427   0.79072   0.00000  Uiso   1.00
O971   O     0.42495   0.74999   0.78132   0.00000  Uiso   1.00
O972   O     0.57505   0.75000   0.71868   0.00000  Uiso   1.00
O973   O     0.42495   0.75000   0.69988   0.00000  Uiso   1.00
O974   O     0.57505   0.75000   0.80011   0.00000  Uiso   1.00
O975   O     0.65563   0.71003   0.70116   0.00000  Uiso   1.00
C976   C     0.34875   0.66997   0.70129   0.00000  Uiso   1.00
H977   H     0.36663   0.66040   0.73789   0.00000  Uiso   1.00
H978   H     0.37920   0.67301   0.67632   0.00000  Uiso   1.00
C979   C     0.64407   0.63294   0.68395   0.00000  Uiso   1.00
H980   H     0.62599   0.64073   0.64709   0.00000  Uiso   1.00
H981   H     0.66444   0.60135   0.68326   0.00000  Uiso   1.00
H982   H     0.61349   0.62897   0.70870   0.00000  Uiso   1.00
O983   O     0.34466   0.79113   0.79789   0.00000  Uiso   1.00
C984   C     0.65041   0.83034   0.79980   0.00000  Uiso   1.00
H985   H     0.62282   0.82639   0.82734   0.00000  Uiso   1.00
H986   H     0.62902   0.83941   0.76453   0.00000  Uiso   1.00
C987   C     0.35485   0.86840   0.81425   0.00000  Uiso   1.00
H988   H     0.38275   0.87310   0.78700   0.00000  Uiso   1.00
H989   H     0.33368   0.89941   0.81647   0.00000  Uiso   1.00
H990   H     0.37623   0.86122   0.84992   0.00000  Uiso   1.00
C991   C     0.56079   0.81630   0.63165   0.00000  Uiso   1.00
C992   C     0.61272   0.80786   0.64594   0.00000  Uiso   1.00
C993   C     0.64603   0.84140   0.66608   0.00000  Uiso   1.00
C994   C     0.62804   0.88393   0.67086   0.00000  Uiso   1.00
C995   C     0.57702   0.89317   0.65457   0.00000  Uiso   1.00
C996   C     0.54371   0.85970   0.63419   0.00000  Uiso   1.00
H997   H     0.62745   0.77543   0.64094   0.00000  Uiso   1.00
H998   H     0.35249   0.83445   0.67780   0.00000  Uiso   1.00
H999   H     0.65380   0.90982   0.68666   0.00000  Uiso   1.00
H1000  H     0.56333   0.92630   0.65753   0.00000  Uiso   1.00
H1001  H     0.50450   0.86739   0.62090   0.00000  Uiso   1.00
C1002  C     0.42360   0.69667   0.86770   0.00000  Uiso   1.00
C1003  C     0.37149   0.70774   0.86232   0.00000  Uiso   1.00
C1004  C     0.33340   0.67665   0.84476   0.00000  Uiso   1.00
C1005  C     0.34692   0.63414   0.83324   0.00000  Uiso   1.00
C1006  C     0.39834   0.62217   0.84086   0.00000  Uiso   1.00
C1007  C     0.43619   0.65296   0.85940   0.00000  Uiso   1.00
H1008  H     0.36034   0.74002   0.87290   0.00000  Uiso   1.00
H1009  H     0.62665   0.68517   0.84086   0.00000  Uiso   1.00
H1010  H     0.65076   0.61020   0.81950   0.00000  Uiso   1.00
H1011  H     0.40869   0.58876   0.83362   0.00000  Uiso   1.00
H1012  H     0.47518   0.64259   0.86866   0.00000  Uiso   1.00
C1013  C     0.83390   0.66499   0.75028   0.00000  Uiso   1.00
C1014  C     0.83331   0.83480   0.74967   0.00000  Uiso   1.00
C1015  C     0.86026   0.78256   0.55546   0.00000  Uiso   1.00
C1016  C     0.79549   0.72765   0.94360   0.00000  Uiso   1.00
C1017  C     0.86081   0.78208   0.60591   0.00000  Uiso   1.00
C1018  C     0.79597   0.72667   0.89328   0.00000  Uiso   1.00
C1019  C     0.80689   0.71747   0.60285   0.00000  Uiso   1.00
C1020  C     0.87115   0.77296   0.89833   0.00000  Uiso   1.00
C1021  C     0.80740   0.71612   0.55237   0.00000  Uiso   1.00
C1022  C     0.87294   0.77275   0.94909   0.00000  Uiso   1.00
C1023  C     0.83405   0.74935   0.52739   0.00000  Uiso   1.00
C1024  C     0.83440   0.74998   0.97291   0.00000  Uiso   1.00
C1025  C     0.73499   0.74771   0.73845   0.00000  Uiso   1.00
C1026  C     0.93167   0.75273   0.76146   0.00000  Uiso   1.00
C1027  C     0.68013   0.73963   0.73468   0.00000  Uiso   1.00
C1028  C     0.98652   0.76127   0.76480   0.00000  Uiso   1.00
C1029  C     0.85015   0.54703   0.79232   0.00000  Uiso   1.00
C1030  C     0.79888   0.95140   0.71792   0.00000  Uiso   1.00
C1031  C     0.85074   0.59303   0.79246   0.00000  Uiso   1.00
C1032  C     0.79876   0.90540   0.71745   0.00000  Uiso   1.00
C1033  C     0.83505   0.61668   0.75023   0.00000  Uiso   1.00
C1034  C     0.83398   0.88272   0.74917   0.00000  Uiso   1.00
C1035  C     0.82136   0.59388   0.70720   0.00000  Uiso   1.00
C1036  C     0.86980   0.90596   0.78083   0.00000  Uiso   1.00
C1037  C     0.82237   0.54799   0.70665   0.00000  Uiso   1.00
C1038  C     0.87129   0.95192   0.78010   0.00000  Uiso   1.00
C1039  C     0.83597   0.52400   0.74936   0.00000  Uiso   1.00
C1040  C     0.83545   0.97519   0.74903   0.00000  Uiso   1.00
Cu1041 Cu    0.83333   0.74999   0.79821   0.00000  Uiso   1.00
Cu1042 Cu    0.83333   0.75000   0.70178   0.00000  Uiso   1.00
H1043  H     0.86045   0.52967   0.82601   0.00000  Uiso   1.00
H1044  H     0.76990   0.96816   0.69439   0.00000  Uiso   1.00
H1045  H     0.86396   0.60998   0.82546   0.00000  Uiso   1.00
H1046  H     0.77052   0.88749   0.69322   0.00000  Uiso   1.00
H1047  H     0.80983   0.61147   0.67386   0.00000  Uiso   1.00
H1048  H     0.89714   0.88857   0.80550   0.00000  Uiso   1.00
H1049  H     0.81279   0.53145   0.67265   0.00000  Uiso   1.00
H1050  H     0.90077   0.96908   0.80365   0.00000  Uiso   1.00
H1051  H     0.88078   0.80930   0.53863   0.00000  Uiso   1.00
H1052  H     0.76442   0.71014   0.95942   0.00000  Uiso   1.00
H1053  H     0.78574   0.69188   0.62082   0.00000  Uiso   1.00
H1054  H     0.90081   0.79112   0.88126   0.00000  Uiso   1.00
H1055  H     0.78737   0.68861   0.53359   0.00000  Uiso   1.00
H1056  H     0.90500   0.79005   0.96911   0.00000  Uiso   1.00
N1057  N     0.83333   0.75001   0.62934   0.00000  Uiso   1.00
N1058  N     0.83333   0.74999   0.87065   0.00000  Uiso   1.00
O1059  O     0.83334   0.68572   0.79071   0.00000  Uiso   1.00
O1060  O     0.83333   0.81427   0.70928   0.00000  Uiso   1.00
O1061  O     0.83334   0.68573   0.70928   0.00000  Uiso   1.00
O1062  O     0.83333   0.81427   0.79072   0.00000  Uiso   1.00
O1063  O     0.75828   0.74999   0.78132   0.00000  Uiso   1.00
O1064  O     0.90839   0.75000   0.71868   0.00000  Uiso   1.00
O1065  O     0.75828   0.75000   0.69988   0.00000  Uiso   1.00
O1066  O     0.90839   0.75000   0.80011   0.00000  Uiso   1.00
O1067  O     0.98896   0.71003   0.70116   0.00000  Uiso   1.00
C1068  C     0.68208   0.66997   0.70129   0.00000  Uiso   1.00
H1069  H     0.69996   0.66040   0.73789   0.00000  Uiso   1.00
H1070  H     0.71253   0.67301   0.67632   0.00000  Uiso   1.00
C1071  C     0.97740   0.63294   0.68395   0.00000  Uiso   1.00
H1072  H     0.95933   0.64073   0.64709   0.00000  Uiso   1.00
H1073  H     0.99778   0.60135   0.68326   0.00000  Uiso   1.00
H1074  H     0.94683   0.62897   0.70870   0.00000  Uiso   1.00
O1075  O     0.67799   0.79113   0.79789   0.00000  Uiso   1.00
C1076  C     0.98374   0.83034   0.79980   0.00000  Uiso   1.00
H1077  H     0.95615   0.82639   0.82734   0.00000  Uiso   1.00
H1078  H     0.96235   0.83941   0.76453   0.00000  Uiso   1.00
C1079  C     0.68819   0.86840   0.81425   0.00000  Uiso   1.00
H1080  H     0.71609   0.87310   0.78700   0.00000  Uiso   1.00
H1081  H     0.66702   0.89941   0.81647   0.00000  Uiso   1.00
H1082  H     0.70956   0.86122   0.84992   0.00000  Uiso   1.00
C1083  C     0.89412   0.81630   0.63165   0.00000  Uiso   1.00
C1084  C     0.94605   0.80786   0.64594   0.00000  Uiso   1.00
C1085  C     0.97936   0.84140   0.66608   0.00000  Uiso   1.00
C1086  C     0.96138   0.88393   0.67086   0.00000  Uiso   1.00
C1087  C     0.91035   0.89317   0.65457   0.00000  Uiso   1.00
C1088  C     0.87704   0.85970   0.63419   0.00000  Uiso   1.00
H1089  H     0.96078   0.77543   0.64094   0.00000  Uiso   1.00
H1090  H     0.68582   0.83445   0.67780   0.00000  Uiso   1.00
H1091  H     0.98713   0.90982   0.68666   0.00000  Uiso   1.00
H1092  H     0.89667   0.92630   0.65753   0.00000  Uiso   1.00
H1093  H     0.83784   0.86739   0.62090   0.00000  Uiso   1.00
C1094  C     0.75693   0.69667   0.86770   0.00000  Uiso   1.00
C1095  C     0.70482   0.70774   0.86232   0.00000  Uiso   1.00
C1096  C     0.66674   0.67665   0.84476   0.00000  Uiso   1.00
C1097  C     0.68025   0.63414   0.83324   0.00000  Uiso   1.00
C1098  C     0.73167   0.62217   0.84086   0.00000  Uiso   1.00
C1099  C     0.76953   0.65296   0.85940   0.00000  Uiso   1.00
H1100  H     0.69367   0.74002   0.87290   0.00000  Uiso   1.00
H1101  H     0.95998   0.68517   0.84086   0.00000  Uiso   1.00
H1102  H     0.98409   0.61020   0.81950   0.00000  Uiso   1.00
H1103  H     0.74202   0.58876   0.83362   0.00000  Uiso   1.00
H1104  H     0.80851   0.64259   0.86866   0.00000  Uiso   1.00
loop_
_geom_bond_atom_site_label_1
_geom_bond_atom_site_label_2
_geom_bond_distance
_geom_bond_site_symmetry_2
_ccdc_geom_bond_type
C1     C21     1.461   .     S
C1     O47     1.302   .     A
C1     O49     1.294   .     A
C2     O50     1.293   .     A
C2     C22     1.448   .     S
C2     O48     1.296   .     A
C3     H39     1.082   .     S
C3     C5      1.406   .     A
C3     C11     1.399   .     A
C4     H40     1.082   .     S
C4     C12     1.398   .     A
C4     C6      1.406   .     A
C5     N45     1.382   .     A
C5     C71     1.474   .     S
C6     C82     1.475   .     S
C6     N46     1.383   .     A
C7     N45     1.364   .     A
C7     C9      1.412   .     A
C7     H41     1.081   .     S
C8     H42     1.080   .     S
C8     N46     1.365   .     A
C8     C10     1.412   .     A
C9     H43     1.080   .     S
C9     C11     1.417   .     A
C10    H44     1.080   .     S
C10    C12     1.416   .     A
C11    C564    1.521   1_554 S
C12    C563    1.521   .     S
C13    O51     1.286   .     A
C13    O53     1.290   .     A
C13    C15     1.438   .     S
C14    O52     1.284   .     A
C14    O54     1.293   .     A
C14    C16     1.440   .     S
C15    C200    1.344   1_455 S
C15    O239    1.396   1_455 S
C16    C107    1.344   .     S
C16    O155    1.396   .     S
C17    C27     1.406   .     A
C17    H31     1.082   .     S
C17    C19     1.390   .     A
C18    C20     1.390   .     A
C18    C28     1.408   .     A
C18    H32     1.082   .     S
C19    C21     1.399   .     A
C19    H33     1.081   .     S
C20    H34     1.084   .     S
C20    C22     1.397   .     A
C21    C23     1.402   .     A
C22    C24     1.397   .     A
C23    C25     1.389   .     A
C23    H35     1.083   .     S
C24    H36     1.082   .     S
C24    C26     1.388   .     A
C25    H37     1.082   .     S
C25    C27     1.404   .     A
C26    H38     1.082   .     S
C26    C28     1.406   .     A
C27    C304    1.475   1_545 S
C28    C303    1.475   .     S
Cu29   O47     1.957   .     S
Cu29   O54     1.955   .     S
Cu29   O50     1.950   .     S
Cu29   Cu30    2.691   .     S
Cu29   O51     1.967   .     S
Cu29   N46     2.022   .     S
Cu30   N45     2.022   .     S
Cu30   O48     1.957   .     S
Cu30   O53     1.955   .     S
Cu30   O49     1.950   .     S
Cu30   O52     1.967   .     S
O55    C107    1.396   .     S
O55    C148    1.415   .     S
C56    H57     1.115   .     S
C56    H58     1.111   .     S
C56    O239    1.415   1_455 S
C56    C243    1.521   1_455 S
C59    H60     1.111   .     S
C59    H61     1.111   .     S
C59    H62     1.111   .     S
C59    C148    1.521   .     S
O63    C200    1.396   1_455 S
O63    C248    1.413   1_455 S
C64    H66     1.114   .     S
C64    H65     1.109   .     S
C64    O155    1.413   .     S
C64    C159    1.520   .     S
C67    H68     1.111   .     S
C67    H69     1.111   .     S
C67    H70     1.111   .     S
C67    C248    1.520   1_455 S
C71    C76     1.405   .     A
C71    C72     1.403   .     A
C72    H77     1.082   .     S
C72    C73     1.398   .     A
C73    C74     1.397   .     A
C73    H170    1.082   .     S
C74    C75     1.398   .     A
C74    H79     1.082   .     S
C75    H80     1.082   .     S
C75    C76     1.399   .     A
C76    H81     1.083   .     S
H78    C257    1.082   1_455 S
C82    C83     1.405   .     A
C82    C87     1.402   .     A
C83    H88     1.082   .     S
C83    C84     1.400   .     A
C84    C85     1.396   .     A
C84    H273    1.081   1_455 S
C85    C86     1.396   .     A
C85    H274    1.083   1_455 S
C86    H91     1.082   .     S
C86    C87     1.398   .     A
C87    H92     1.080   .     S
H89    C176    1.081   .     S
H90    C177    1.083   .     S
C93    C113    1.461   .     S
C93    O139    1.302   .     A
C93    O141    1.294   .     A
C94    O142    1.293   .     A
C94    C114    1.448   .     S
C94    O140    1.296   .     A
C95    H131    1.082   .     S
C95    C97     1.406   .     A
C95    C103    1.399   .     A
C96    H132    1.082   .     S
C96    C104    1.398   .     A
C96    C98     1.406   .     A
C97    N137    1.382   .     A
C97    C163    1.474   .     S
C98    C174    1.475   .     S
C98    N138    1.383   .     A
C99    N137    1.364   .     A
C99    C101    1.412   .     A
C99    H133    1.081   .     S
C100   H134    1.080   .     S
C100   N138    1.365   .     A
C100   C102    1.412   .     A
C101   H135    1.080   .     S
C101   C103    1.417   .     A
C102   H136    1.080   .     S
C102   C104    1.416   .     A
C103   C656    1.521   1_554 S
C104   C655    1.521   .     S
C105   O143    1.286   .     A
C105   O145    1.290   .     A
C105   C107    1.438   .     S
C106   O144    1.284   .     A
C106   O146    1.293   .     A
C106   C108    1.440   .     S
C108   C199    1.344   .     S
C108   O247    1.396   .     S
C109   C119    1.406   .     A
C109   H123    1.082   .     S
C109   C111    1.390   .     A
C110   C112    1.390   .     A
C110   C120    1.408   .     A
C110   H124    1.082   .     S
C111   C113    1.399   .     A
C111   H125    1.081   .     S
C112   H126    1.084   .     S
C112   C114    1.397   .     A
C113   C115    1.402   .     A
C114   C116    1.397   .     A
C115   C117    1.389   .     A
C115   H127    1.083   .     S
C116   H128    1.082   .     S
C116   C118    1.388   .     A
C117   H129    1.082   .     S
C117   C119    1.404   .     A
C118   H130    1.082   .     S
C118   C120    1.406   .     A
C119   C396    1.475   1_545 S
C120   C395    1.475   .     S
Cu121  O139    1.957   .     S
Cu121  O146    1.955   .     S
Cu121  O142    1.950   .     S
Cu121  Cu122   2.691   .     S
Cu121  O143    1.967   .     S
Cu121  N138    2.022   .     S
Cu122  N137    2.022   .     S
Cu122  O140    1.957   .     S
Cu122  O145    1.955   .     S
Cu122  O141    1.950   .     S
Cu122  O144    1.967   .     S
O147   C199    1.396   .     S
O147   C240    1.415   .     S
C148   H149    1.115   .     S
C148   H150    1.111   .     S
C151   H152    1.111   .     S
C151   H153    1.111   .     S
C151   H154    1.111   .     S
C151   C240    1.521   .     S
C156   H158    1.114   .     S
C156   H157    1.109   .     S
C156   O247    1.413   .     S
C156   C251    1.520   .     S
C159   H160    1.111   .     S
C159   H161    1.111   .     S
C159   H162    1.111   .     S
C163   C168    1.405   .     A
C163   C164    1.403   .     A
C164   H169    1.082   .     S
C164   C165    1.398   .     A
C165   C166    1.397   .     A
C165   H262    1.082   .     S
C166   C167    1.398   .     A
C166   H171    1.082   .     S
C167   H172    1.082   .     S
C167   C168    1.399   .     A
C168   H173    1.083   .     S
C174   C175    1.405   .     A
C174   C179    1.402   .     A
C175   H180    1.082   .     S
C175   C176    1.400   .     A
C176   C177    1.396   .     A
C177   C178    1.396   .     A
C178   H183    1.082   .     S
C178   C179    1.398   .     A
C179   H184    1.080   .     S
H181   C268    1.081   .     S
H182   C269    1.083   .     S
C185   C205    1.461   .     S
C185   O231    1.302   .     A
C185   O233    1.294   .     A
C186   O234    1.293   .     A
C186   C206    1.448   .     S
C186   O232    1.296   .     A
C187   H223    1.082   .     S
C187   C189    1.406   .     A
C187   C195    1.399   .     A
C188   H224    1.082   .     S
C188   C196    1.398   .     A
C188   C190    1.406   .     A
C189   N229    1.382   .     A
C189   C255    1.474   .     S
C190   C266    1.475   .     S
C190   N230    1.383   .     A
C191   N229    1.364   .     A
C191   C193    1.412   .     A
C191   H225    1.081   .     S
C192   H226    1.080   .     S
C192   N230    1.365   .     A
C192   C194    1.412   .     A
C193   H227    1.080   .     S
C193   C195    1.417   .     A
C194   H228    1.080   .     S
C194   C196    1.416   .     A
C195   C748    1.521   1_554 S
C196   C747    1.521   .     S
C197   O235    1.286   .     A
C197   O237    1.290   .     A
C197   C199    1.438   .     S
C198   O236    1.284   .     A
C198   O238    1.293   .     A
C198   C200    1.440   .     S
C200   C15     1.344   1_655 S
C200   O63     1.396   1_655 S
C201   C211    1.406   .     A
C201   H215    1.082   .     S
C201   C203    1.390   .     A
C202   C204    1.390   .     A
C202   C212    1.408   .     A
C202   H216    1.082   .     S
C203   C205    1.399   .     A
C203   H217    1.081   .     S
C204   H218    1.084   .     S
C204   C206    1.397   .     A
C205   C207    1.402   .     A
C206   C208    1.397   .     A
C207   C209    1.389   .     A
C207   H219    1.083   .     S
C208   H220    1.082   .     S
C208   C210    1.388   .     A
C209   H221    1.082   .     S
C209   C211    1.404   .     A
C210   H222    1.082   .     S
C210   C212    1.406   .     A
C211   C488    1.475   1_545 S
C212   C487    1.475   .     S
Cu213  O231    1.957   .     S
Cu213  O238    1.955   .     S
Cu213  O234    1.950   .     S
Cu213  Cu214   2.691   .     S
Cu213  O235    1.967   .     S
Cu213  N230    2.022   .     S
Cu214  N229    2.022   .     S
Cu214  O232    1.957   .     S
Cu214  O237    1.955   .     S
Cu214  O233    1.950   .     S
Cu214  O236    1.967   .     S
O239   C15     1.396   1_655 S
O239   C56     1.415   1_655 S
C240   H241    1.115   .     S
C240   H242    1.111   .     S
C243   H244    1.111   .     S
C243   H245    1.111   .     S
C243   H246    1.111   .     S
C243   C56     1.521   1_655 S
C248   H250    1.114   .     S
C248   H249    1.109   .     S
C248   O63     1.413   1_655 S
C248   C67     1.520   1_655 S
C251   H252    1.111   .     S
C251   H253    1.111   .     S
C251   H254    1.111   .     S
C255   C260    1.405   .     A
C255   C256    1.403   .     A
C256   H261    1.082   .     S
C256   C257    1.398   .     A
C257   C258    1.397   .     A
C257   H78     1.082   1_655 S
C258   C259    1.398   .     A
C258   H263    1.082   .     S
C259   H264    1.082   .     S
C259   C260    1.399   .     A
C260   H265    1.083   .     S
C266   C267    1.405   .     A
C266   C271    1.402   .     A
C267   H272    1.082   .     S
C267   C268    1.400   .     A
C268   C269    1.396   .     A
C269   C270    1.396   .     A
C270   H275    1.082   .     S
C270   C271    1.398   .     A
C271   H276    1.080   .     S
H273   C84     1.081   1_655 S
H274   C85     1.083   1_655 S
C277   C297    1.461   .     S
C277   O323    1.302   .     A
C277   O325    1.294   .     A
C278   O326    1.293   .     A
C278   C298    1.448   .     S
C278   O324    1.296   .     A
C279   H315    1.082   .     S
C279   C281    1.406   .     A
C279   C287    1.399   .     A
C280   H316    1.082   .     S
C280   C288    1.398   .     A
C280   C282    1.406   .     A
C281   N321    1.382   .     A
C281   C347    1.474   .     S
C282   C358    1.475   .     S
C282   N322    1.383   .     A
C283   N321    1.364   .     A
C283   C285    1.412   .     A
C283   H317    1.081   .     S
C284   H318    1.080   .     S
C284   N322    1.365   .     A
C284   C286    1.412   .     A
C285   H319    1.080   .     S
C285   C287    1.417   .     A
C286   H320    1.080   .     S
C286   C288    1.416   .     A
C287   C840    1.521   1_554 S
C288   C839    1.521   .     S
C289   O327    1.286   .     A
C289   O329    1.290   .     A
C289   C291    1.438   .     S
C290   O328    1.284   .     A
C290   O330    1.293   .     A
C290   C292    1.440   .     S
C291   C476    1.344   1_455 S
C291   O515    1.396   1_455 S
C292   C383    1.344   .     S
C292   O431    1.396   .     S
C293   C303    1.406   .     A
C293   H307    1.082   .     S
C293   C295    1.390   .     A
C294   C296    1.390   .     A
C294   C304    1.408   .     A
C294   H308    1.082   .     S
C295   C297    1.399   .     A
C295   H309    1.081   .     S
C296   H310    1.084   .     S
C296   C298    1.397   .     A
C297   C299    1.402   .     A
C298   C300    1.397   .     A
C299   C301    1.389   .     A
C299   H311    1.083   .     S
C300   H312    1.082   .     S
C300   C302    1.388   .     A
C301   H313    1.082   .     S
C301   C303    1.404   .     A
C302   H314    1.082   .     S
C302   C304    1.406   .     A
C304   C27     1.475   1_565 S
Cu305  O323    1.957   .     S
Cu305  O330    1.955   .     S
Cu305  O326    1.950   .     S
Cu305  Cu306   2.691   .     S
Cu305  O327    1.967   .     S
Cu305  N322    2.022   .     S
Cu306  N321    2.022   .     S
Cu306  O324    1.957   .     S
Cu306  O329    1.955   .     S
Cu306  O325    1.950   .     S
Cu306  O328    1.967   .     S
O331   C383    1.396   .     S
O331   C424    1.415   .     S
C332   H333    1.115   .     S
C332   H334    1.111   .     S
C332   O515    1.415   1_455 S
C332   C519    1.521   1_455 S
C335   H336    1.111   .     S
C335   H337    1.111   .     S
C335   H338    1.111   .     S
C335   C424    1.521   .     S
O339   C476    1.396   1_455 S
O339   C524    1.413   1_455 S
C340   H342    1.114   .     S
C340   H341    1.109   .     S
C340   O431    1.413   .     S
C340   C435    1.520   .     S
C343   H344    1.111   .     S
C343   H345    1.111   .     S
C343   H346    1.111   .     S
C343   C524    1.520   1_455 S
C347   C352    1.405   .     A
C347   C348    1.403   .     A
C348   H353    1.082   .     S
C348   C349    1.398   .     A
C349   C350    1.397   .     A
C349   H446    1.082   .     S
C350   C351    1.398   .     A
C350   H355    1.082   .     S
C351   H356    1.082   .     S
C351   C352    1.399   .     A
C352   H357    1.083   .     S
H354   C533    1.082   1_455 S
C358   C359    1.405   .     A
C358   C363    1.402   .     A
C359   H364    1.082   .     S
C359   C360    1.400   .     A
C360   C361    1.396   .     A
C360   H549    1.081   1_455 S
C361   C362    1.396   .     A
C361   H550    1.083   1_455 S
C362   H367    1.082   .     S
C362   C363    1.398   .     A
C363   H368    1.080   .     S
H365   C452    1.081   .     S
H366   C453    1.083   .     S
C369   C389    1.461   .     S
C369   O415    1.302   .     A
C369   O417    1.294   .     A
C370   O418    1.293   .     A
C370   C390    1.448   .     S
C370   O416    1.296   .     A
C371   H407    1.082   .     S
C371   C373    1.406   .     A
C371   C379    1.399   .     A
C372   H408    1.082   .     S
C372   C380    1.398   .     A
C372   C374    1.406   .     A
C373   N413    1.382   .     A
C373   C439    1.474   .     S
C374   C450    1.475   .     S
C374   N414    1.383   .     A
C375   N413    1.364   .     A
C375   C377    1.412   .     A
C375   H409    1.081   .     S
C376   H410    1.080   .     S
C376   N414    1.365   .     A
C376   C378    1.412   .     A
C377   H411    1.080   .     S
C377   C379    1.417   .     A
C378   H412    1.080   .     S
C378   C380    1.416   .     A
C379   C932    1.521   1_554 S
C380   C931    1.521   .     S
C381   O419    1.286   .     A
C381   O421    1.290   .     A
C381   C383    1.438   .     S
C382   O420    1.284   .     A
C382   O422    1.293   .     A
C382   C384    1.440   .     S
C384   C475    1.344   .     S
C384   O523    1.396   .     S
C385   C395    1.406   .     A
C385   H399    1.082   .     S
C385   C387    1.390   .     A
C386   C388    1.390   .     A
C386   C396    1.408   .     A
C386   H400    1.082   .     S
C387   C389    1.399   .     A
C387   H401    1.081   .     S
C388   H402    1.084   .     S
C388   C390    1.397   .     A
C389   C391    1.402   .     A
C390   C392    1.397   .     A
C391   C393    1.389   .     A
C391   H403    1.083   .     S
C392   H404    1.082   .     S
C392   C394    1.388   .     A
C393   H405    1.082   .     S
C393   C395    1.404   .     A
C394   H406    1.082   .     S
C394   C396    1.406   .     A
C396   C119    1.475   1_565 S
Cu397  O415    1.957   .     S
Cu397  O422    1.955   .     S
Cu397  O418    1.950   .     S
Cu397  Cu398   2.691   .     S
Cu397  O419    1.967   .     S
Cu397  N414    2.022   .     S
Cu398  N413    2.022   .     S
Cu398  O416    1.957   .     S
Cu398  O421    1.955   .     S
Cu398  O417    1.950   .     S
Cu398  O420    1.967   .     S
O423   C475    1.396   .     S
O423   C516    1.415   .     S
C424   H425    1.115   .     S
C424   H426    1.111   .     S
C427   H428    1.111   .     S
C427   H429    1.111   .     S
C427   H430    1.111   .     S
C427   C516    1.521   .     S
C432   H434    1.114   .     S
C432   H433    1.109   .     S
C432   O523    1.413   .     S
C432   C527    1.520   .     S
C435   H436    1.111   .     S
C435   H437    1.111   .     S
C435   H438    1.111   .     S
C439   C444    1.405   .     A
C439   C440    1.403   .     A
C440   H445    1.082   .     S
C440   C441    1.398   .     A
C441   C442    1.397   .     A
C441   H538    1.082   .     S
C442   C443    1.398   .     A
C442   H447    1.082   .     S
C443   H448    1.082   .     S
C443   C444    1.399   .     A
C444   H449    1.083   .     S
C450   C451    1.405   .     A
C450   C455    1.402   .     A
C451   H456    1.082   .     S
C451   C452    1.400   .     A
C452   C453    1.396   .     A
C453   C454    1.396   .     A
C454   H459    1.082   .     S
C454   C455    1.398   .     A
C455   H460    1.080   .     S
H457   C544    1.081   .     S
H458   C545    1.083   .     S
C461   C481    1.461   .     S
C461   O507    1.302   .     A
C461   O509    1.294   .     A
C462   O510    1.293   .     A
C462   C482    1.448   .     S
C462   O508    1.296   .     A
C463   H499    1.082   .     S
C463   C465    1.406   .     A
C463   C471    1.399   .     A
C464   H500    1.082   .     S
C464   C472    1.398   .     A
C464   C466    1.406   .     A
C465   N505    1.382   .     A
C465   C531    1.474   .     S
C466   C542    1.475   .     S
C466   N506    1.383   .     A
C467   N505    1.364   .     A
C467   C469    1.412   .     A
C467   H501    1.081   .     S
C468   H502    1.080   .     S
C468   N506    1.365   .     A
C468   C470    1.412   .     A
C469   H503    1.080   .     S
C469   C471    1.417   .     A
C470   H504    1.080   .     S
C470   C472    1.416   .     A
C471   C1024   1.521   1_554 S
C472   C1023   1.521   .     S
C473   O511    1.286   .     A
C473   O513    1.290   .     A
C473   C475    1.438   .     S
C474   O512    1.284   .     A
C474   O514    1.293   .     A
C474   C476    1.440   .     S
C476   C291    1.344   1_655 S
C476   O339    1.396   1_655 S
C477   C487    1.406   .     A
C477   H491    1.082   .     S
C477   C479    1.390   .     A
C478   C480    1.390   .     A
C478   C488    1.408   .     A
C478   H492    1.082   .     S
C479   C481    1.399   .     A
C479   H493    1.081   .     S
C480   H494    1.084   .     S
C480   C482    1.397   .     A
C481   C483    1.402   .     A
C482   C484    1.397   .     A
C483   C485    1.389   .     A
C483   H495    1.083   .     S
C484   H496    1.082   .     S
C484   C486    1.388   .     A
C485   H497    1.082   .     S
C485   C487    1.404   .     A
C486   H498    1.082   .     S
C486   C488    1.406   .     A
C488   C211    1.475   1_565 S
Cu489  O507    1.957   .     S
Cu489  O514    1.955   .     S
Cu489  O510    1.950   .     S
Cu489  Cu490   2.691   .     S
Cu489  O511    1.967   .     S
Cu489  N506    2.022   .     S
Cu490  N505    2.022   .     S
Cu490  O508    1.957   .     S
Cu490  O513    1.955   .     S
Cu490  O509    1.950   .     S
Cu490  O512    1.967   .     S
O515   C291    1.396   1_655 S
O515   C332    1.415   1_655 S
C516   H517    1.115   .     S
C516   H518    1.111   .     S
C519   H520    1.111   .     S
C519   H521    1.111   .     S
C519   H522    1.111   .     S
C519   C332    1.521   1_655 S
C524   H526    1.114   .     S
C524   H525    1.109   .     S
C524   O339    1.413   1_655 S
C524   C343    1.520   1_655 S
C527   H528    1.111   .     S
C527   H529    1.111   .     S
C527   H530    1.111   .     S
C531   C536    1.405   .     A
C531   C532    1.403   .     A
C532   H537    1.082   .     S
C532   C533    1.398   .     A
C533   C534    1.397   .     A
C533   H354    1.082   1_655 S
C534   C535    1.398   .     A
C534   H539    1.082   .     S
C535   H540    1.082   .     S
C535   C536    1.399   .     A
C536   H541    1.083   .     S
C542   C543    1.405   .     A
C542   C547    1.402   .     A
C543   H548    1.082   .     S
C543   C544    1.400   .     A
C544   C545    1.396   .     A
C545   C546    1.396   .     A
C546   H551    1.082   .     S
C546   C547    1.398   .     A
C547   H552    1.080   .     S
H549   C360    1.081   1_655 S
H550   C361    1.083   1_655 S
C553   C573    1.461   .     S
C553   O599    1.302   .     A
C553   O601    1.294   .     A
C554   O602    1.293   .     A
C554   C574    1.448   .     S
C554   O600    1.296   .     A
C555   H591    1.082   .     S
C555   C557    1.406   .     A
C555   C563    1.399   .     A
C556   H592    1.082   .     S
C556   C564    1.398   .     A
C556   C558    1.406   .     A
C557   N597    1.382   .     A
C557   C623    1.474   .     S
C558   C634    1.475   .     S
C558   N598    1.383   .     A
C559   N597    1.364   .     A
C559   C561    1.412   .     A
C559   H593    1.081   .     S
C560   H594    1.080   .     S
C560   N598    1.365   .     A
C560   C562    1.412   .     A
C561   H595    1.080   .     S
C561   C563    1.417   .     A
C562   H596    1.080   .     S
C562   C564    1.416   .     A
C564   C11     1.521   1_556 S
C565   O603    1.286   .     A
C565   O605    1.290   .     A
C565   C567    1.438   .     S
C566   O604    1.284   .     A
C566   O606    1.293   .     A
C566   C568    1.440   .     S
C567   C752    1.344   1_455 S
C567   O791    1.396   1_455 S
C568   C659    1.344   .     S
C568   O707    1.396   .     S
C569   C579    1.406   .     A
C569   H583    1.082   .     S
C569   C571    1.390   .     A
C570   C572    1.390   .     A
C570   C580    1.408   .     A
C570   H584    1.082   .     S
C571   C573    1.399   .     A
C571   H585    1.081   .     S
C572   H586    1.084   .     S
C572   C574    1.397   .     A
C573   C575    1.402   .     A
C574   C576    1.397   .     A
C575   C577    1.389   .     A
C575   H587    1.083   .     S
C576   H588    1.082   .     S
C576   C578    1.388   .     A
C577   H589    1.082   .     S
C577   C579    1.404   .     A
C578   H590    1.082   .     S
C578   C580    1.406   .     A
C579   C856    1.475   1_545 S
C580   C855    1.475   .     S
Cu581  O599    1.957   .     S
Cu581  O606    1.955   .     S
Cu581  O602    1.950   .     S
Cu581  Cu582   2.691   .     S
Cu581  O603    1.967   .     S
Cu581  N598    2.022   .     S
Cu582  N597    2.022   .     S
Cu582  O600    1.957   .     S
Cu582  O605    1.955   .     S
Cu582  O601    1.950   .     S
Cu582  O604    1.967   .     S
O607   C659    1.396   .     S
O607   C700    1.415   .     S
C608   H609    1.115   .     S
C608   H610    1.111   .     S
C608   O791    1.415   1_455 S
C608   C795    1.521   1_455 S
C611   H612    1.111   .     S
C611   H613    1.111   .     S
C611   H614    1.111   .     S
C611   C700    1.521   .     S
O615   C752    1.396   1_455 S
O615   C800    1.413   1_455 S
C616   H618    1.114   .     S
C616   H617    1.109   .     S
C616   O707    1.413   .     S
C616   C711    1.520   .     S
C619   H620    1.111   .     S
C619   H621    1.111   .     S
C619   H622    1.111   .     S
C619   C800    1.520   1_455 S
C623   C628    1.405   .     A
C623   C624    1.403   .     A
C624   H629    1.082   .     S
C624   C625    1.398   .     A
C625   C626    1.397   .     A
C625   H722    1.082   .     S
C626   C627    1.398   .     A
C626   H631    1.082   .     S
C627   H632    1.082   .     S
C627   C628    1.399   .     A
C628   H633    1.083   .     S
H630   C809    1.082   1_455 S
C634   C635    1.405   .     A
C634   C639    1.402   .     A
C635   H640    1.082   .     S
C635   C636    1.400   .     A
C636   C637    1.396   .     A
C636   H825    1.081   1_455 S
C637   C638    1.396   .     A
C637   H826    1.083   1_455 S
C638   H643    1.082   .     S
C638   C639    1.398   .     A
C639   H644    1.080   .     S
H641   C728    1.081   .     S
H642   C729    1.083   .     S
C645   C665    1.461   .     S
C645   O691    1.302   .     A
C645   O693    1.294   .     A
C646   O694    1.293   .     A
C646   C666    1.448   .     S
C646   O692    1.296   .     A
C647   H683    1.082   .     S
C647   C649    1.406   .     A
C647   C655    1.399   .     A
C648   H684    1.082   .     S
C648   C656    1.398   .     A
C648   C650    1.406   .     A
C649   N689    1.382   .     A
C649   C715    1.474   .     S
C650   C726    1.475   .     S
C650   N690    1.383   .     A
C651   N689    1.364   .     A
C651   C653    1.412   .     A
C651   H685    1.081   .     S
C652   H686    1.080   .     S
C652   N690    1.365   .     A
C652   C654    1.412   .     A
C653   H687    1.080   .     S
C653   C655    1.417   .     A
C654   H688    1.080   .     S
C654   C656    1.416   .     A
C656   C103    1.521   1_556 S
C657   O695    1.286   .     A
C657   O697    1.290   .     A
C657   C659    1.438   .     S
C658   O696    1.284   .     A
C658   O698    1.293   .     A
C658   C660    1.440   .     S
C660   C751    1.344   .     S
C660   O799    1.396   .     S
C661   C671    1.406   .     A
C661   H675    1.082   .     S
C661   C663    1.390   .     A
C662   C664    1.390   .     A
C662   C672    1.408   .     A
C662   H676    1.082   .     S
C663   C665    1.399   .     A
C663   H677    1.081   .     S
C664   H678    1.084   .     S
C664   C666    1.397   .     A
C665   C667    1.402   .     A
C666   C668    1.397   .     A
C667   C669    1.389   .     A
C667   H679    1.083   .     S
C668   H680    1.082   .     S
C668   C670    1.388   .     A
C669   H681    1.082   .     S
C669   C671    1.404   .     A
C670   H682    1.082   .     S
C670   C672    1.406   .     A
C671   C948    1.475   1_545 S
C672   C947    1.475   .     S
Cu673  O691    1.957   .     S
Cu673  O698    1.955   .     S
Cu673  O694    1.950   .     S
Cu673  Cu674   2.691   .     S
Cu673  O695    1.967   .     S
Cu673  N690    2.022   .     S
Cu674  N689    2.022   .     S
Cu674  O692    1.957   .     S
Cu674  O697    1.955   .     S
Cu674  O693    1.950   .     S
Cu674  O696    1.967   .     S
O699   C751    1.396   .     S
O699   C792    1.415   .     S
C700   H701    1.115   .     S
C700   H702    1.111   .     S
C703   H704    1.111   .     S
C703   H705    1.111   .     S
C703   H706    1.111   .     S
C703   C792    1.521   .     S
C708   H710    1.114   .     S
C708   H709    1.109   .     S
C708   O799    1.413   .     S
C708   C803    1.520   .     S
C711   H712    1.111   .     S
C711   H713    1.111   .     S
C711   H714    1.111   .     S
C715   C720    1.405   .     A
C715   C716    1.403   .     A
C716   H721    1.082   .     S
C716   C717    1.398   .     A
C717   C718    1.397   .     A
C717   H814    1.082   .     S
C718   C719    1.398   .     A
C718   H723    1.082   .     S
C719   H724    1.082   .     S
C719   C720    1.399   .     A
C720   H725    1.083   .     S
C726   C727    1.405   .     A
C726   C731    1.402   .     A
C727   H732    1.082   .     S
C727   C728    1.400   .     A
C728   C729    1.396   .     A
C729   C730    1.396   .     A
C730   H735    1.082   .     S
C730   C731    1.398   .     A
C731   H736    1.080   .     S
H733   C820    1.081   .     S
H734   C821    1.083   .     S
C737   C757    1.461   .     S
C737   O783    1.302   .     A
C737   O785    1.294   .     A
C738   O786    1.293   .     A
C738   C758    1.448   .     S
C738   O784    1.296   .     A
C739   H775    1.082   .     S
C739   C741    1.406   .     A
C739   C747    1.399   .     A
C740   H776    1.082   .     S
C740   C748    1.398   .     A
C740   C742    1.406   .     A
C741   N781    1.382   .     A
C741   C807    1.474   .     S
C742   C818    1.475   .     S
C742   N782    1.383   .     A
C743   N781    1.364   .     A
C743   C745    1.412   .     A
C743   H777    1.081   .     S
C744   H778    1.080   .     S
C744   N782    1.365   .     A
C744   C746    1.412   .     A
C745   H779    1.080   .     S
C745   C747    1.417   .     A
C746   H780    1.080   .     S
C746   C748    1.416   .     A
C748   C195    1.521   1_556 S
C749   O787    1.286   .     A
C749   O789    1.290   .     A
C749   C751    1.438   .     S
C750   O788    1.284   .     A
C750   O790    1.293   .     A
C750   C752    1.440   .     S
C752   C567    1.344   1_655 S
C752   O615    1.396   1_655 S
C753   C763    1.406   .     A
C753   H767    1.082   .     S
C753   C755    1.390   .     A
C754   C756    1.390   .     A
C754   C764    1.408   .     A
C754   H768    1.082   .     S
C755   C757    1.399   .     A
C755   H769    1.081   .     S
C756   H770    1.084   .     S
C756   C758    1.397   .     A
C757   C759    1.402   .     A
C758   C760    1.397   .     A
C759   C761    1.389   .     A
C759   H771    1.083   .     S
C760   H772    1.082   .     S
C760   C762    1.388   .     A
C761   H773    1.082   .     S
C761   C763    1.404   .     A
C762   H774    1.082   .     S
C762   C764    1.406   .     A
C763   C1040   1.475   1_545 S
C764   C1039   1.475   .     S
Cu765  O783    1.957   .     S
Cu765  O790    1.955   .     S
Cu765  O786    1.950   .     S
Cu765  Cu766   2.691   .     S
Cu765  O787    1.967   .     S
Cu765  N782    2.022   .     S
Cu766  N781    2.022   .     S
Cu766  O784    1.957   .     S
Cu766  O789    1.955   .     S
Cu766  O785    1.950   .     S
Cu766  O788    1.967   .     S
O791   C567    1.396   1_655 S
O791   C608    1.415   1_655 S
C792   H793    1.115   .     S
C792   H794    1.111   .     S
C795   H796    1.111   .     S
C795   H797    1.111   .     S
C795   H798    1.111   .     S
C795   C608    1.521   1_655 S
C800   H802    1.114   .     S
C800   H801    1.109   .     S
C800   O615    1.413   1_655 S
C800   C619    1.520   1_655 S
C803   H804    1.111   .     S
C803   H805    1.111   .     S
C803   H806    1.111   .     S
C807   C812    1.405   .     A
C807   C808    1.403   .     A
C808   H813    1.082   .     S
C808   C809    1.398   .     A
C809   C810    1.397   .     A
C809   H630    1.082   1_655 S
C810   C811    1.398   .     A
C810   H815    1.082   .     S
C811   H816    1.082   .     S
C811   C812    1.399   .     A
C812   H817    1.083   .     S
C818   C819    1.405   .     A
C818   C823    1.402   .     A
C819   H824    1.082   .     S
C819   C820    1.400   .     A
C820   C821    1.396   .     A
C821   C822    1.396   .     A
C822   H827    1.082   .     S
C822   C823    1.398   .     A
C823   H828    1.080   .     S
H825   C636    1.081   1_655 S
H826   C637    1.083   1_655 S
C829   C849    1.461   .     S
C829   O875    1.302   .     A
C829   O877    1.294   .     A
C830   O878    1.293   .     A
C830   C850    1.448   .     S
C830   O876    1.296   .     A
C831   H867    1.082   .     S
C831   C833    1.406   .     A
C831   C839    1.399   .     A
C832   H868    1.082   .     S
C832   C840    1.398   .     A
C832   C834    1.406   .     A
C833   N873    1.382   .     A
C833   C899    1.474   .     S
C834   C910    1.475   .     S
C834   N874    1.383   .     A
C835   N873    1.364   .     A
C835   C837    1.412   .     A
C835   H869    1.081   .     S
C836   H870    1.080   .     S
C836   N874    1.365   .     A
C836   C838    1.412   .     A
C837   H871    1.080   .     S
C837   C839    1.417   .     A
C838   H872    1.080   .     S
C838   C840    1.416   .     A
C840   C287    1.521   1_556 S
C841   O879    1.286   .     A
C841   O881    1.290   .     A
C841   C843    1.438   .     S
C842   O880    1.284   .     A
C842   O882    1.293   .     A
C842   C844    1.440   .     S
C843   C1028   1.344   1_455 S
C843   O1067   1.396   1_455 S
C844   C935    1.344   .     S
C844   O983    1.396   .     S
C845   C855    1.406   .     A
C845   H859    1.082   .     S
C845   C847    1.390   .     A
C846   C848    1.390   .     A
C846   C856    1.408   .     A
C846   H860    1.082   .     S
C847   C849    1.399   .     A
C847   H861    1.081   .     S
C848   H862    1.084   .     S
C848   C850    1.397   .     A
C849   C851    1.402   .     A
C850   C852    1.397   .     A
C851   C853    1.389   .     A
C851   H863    1.083   .     S
C852   H864    1.082   .     S
C852   C854    1.388   .     A
C853   H865    1.082   .     S
C853   C855    1.404   .     A
C854   H866    1.082   .     S
C854   C856    1.406   .     A
C856   C579    1.475   1_565 S
Cu857  O875    1.957   .     S
Cu857  O882    1.955   .     S
Cu857  O878    1.950   .     S
Cu857  Cu858   2.691   .     S
Cu857  O879    1.967   .     S
Cu857  N874    2.022   .     S
Cu858  N873    2.022   .     S
Cu858  O876    1.957   .     S
Cu858  O881    1.955   .     S
Cu858  O877    1.950   .     S
Cu858  O880    1.967   .     S
O883   C935    1.396   .     S
O883   C976    1.415   .     S
C884   H885    1.115   .     S
C884   H886    1.111   .     S
C884   O1067   1.415   1_455 S
C884   C1071   1.521   1_455 S
C887   H888    1.111   .     S
C887   H889    1.111   .     S
C887   H890    1.111   .     S
C887   C976    1.521   .     S
O891   C1028   1.396   1_455 S
O891   C1076   1.413   1_455 S
C892   H894    1.114   .     S
C892   H893    1.109   .     S
C892   O983    1.413   .     S
C892   C987    1.520   .     S
C895   H896    1.111   .     S
C895   H897    1.111   .     S
C895   H898    1.111   .     S
C895   C1076   1.520   1_455 S
C899   C904    1.405   .     A
C899   C900    1.403   .     A
C900   H905    1.082   .     S
C900   C901    1.398   .     A
C901   C902    1.397   .     A
C901   H998    1.082   .     S
C902   C903    1.398   .     A
C902   H907    1.082   .     S
C903   H908    1.082   .     S
C903   C904    1.399   .     A
C904   H909    1.083   .     S
H906   C1085   1.082   1_455 S
C910   C911    1.405   .     A
C910   C915    1.402   .     A
C911   H916    1.082   .     S
C911   C912    1.400   .     A
C912   C913    1.396   .     A
C912   H1101   1.081   1_455 S
C913   C914    1.396   .     A
C913   H1102   1.083   1_455 S
C914   H919    1.082   .     S
C914   C915    1.398   .     A
C915   H920    1.080   .     S
H917   C1004   1.081   .     S
H918   C1005   1.083   .     S
C921   C941    1.461   .     S
C921   O967    1.302   .     A
C921   O969    1.294   .     A
C922   O970    1.293   .     A
C922   C942    1.448   .     S
C922   O968    1.296   .     A
C923   H959    1.082   .     S
C923   C925    1.406   .     A
C923   C931    1.399   .     A
C924   H960    1.082   .     S
C924   C932    1.398   .     A
C924   C926    1.406   .     A
C925   N965    1.382   .     A
C925   C991    1.474   .     S
C926   C1002   1.475   .     S
C926   N966    1.383   .     A
C927   N965    1.364   .     A
C927   C929    1.412   .     A
C927   H961    1.081   .     S
C928   H962    1.080   .     S
C928   N966    1.365   .     A
C928   C930    1.412   .     A
C929   H963    1.080   .     S
C929   C931    1.417   .     A
C930   H964    1.080   .     S
C930   C932    1.416   .     A
C932   C379    1.521   1_556 S
C933   O971    1.286   .     A
C933   O973    1.290   .     A
C933   C935    1.438   .     S
C934   O972    1.284   .     A
C934   O974    1.293   .     A
C934   C936    1.440   .     S
C936   C1027   1.344   .     S
C936   O1075   1.396   .     S
C937   C947    1.406   .     A
C937   H951    1.082   .     S
C937   C939    1.390   .     A
C938   C940    1.390   .     A
C938   C948    1.408   .     A
C938   H952    1.082   .     S
C939   C941    1.399   .     A
C939   H953    1.081   .     S
C940   H954    1.084   .     S
C940   C942    1.397   .     A
C941   C943    1.402   .     A
C942   C944    1.397   .     A
C943   C945    1.389   .     A
C943   H955    1.083   .     S
C944   H956    1.082   .     S
C944   C946    1.388   .     A
C945   H957    1.082   .     S
C945   C947    1.404   .     A
C946   H958    1.082   .     S
C946   C948    1.406   .     A
C948   C671    1.475   1_565 S
Cu949  O967    1.957   .     S
Cu949  O974    1.955   .     S
Cu949  O970    1.950   .     S
Cu949  Cu950   2.691   .     S
Cu949  O971    1.967   .     S
Cu949  N966    2.022   .     S
Cu950  N965    2.022   .     S
Cu950  O968    1.957   .     S
Cu950  O973    1.955   .     S
Cu950  O969    1.950   .     S
Cu950  O972    1.967   .     S
O975   C1027   1.396   .     S
O975   C1068   1.415   .     S
C976   H977    1.115   .     S
C976   H978    1.111   .     S
C979   H980    1.111   .     S
C979   H981    1.111   .     S
C979   H982    1.111   .     S
C979   C1068   1.521   .     S
C984   H986    1.114   .     S
C984   H985    1.109   .     S
C984   O1075   1.413   .     S
C984   C1079   1.520   .     S
C987   H988    1.111   .     S
C987   H989    1.111   .     S
C987   H990    1.111   .     S
C991   C996    1.405   .     A
C991   C992    1.403   .     A
C992   H997    1.082   .     S
C992   C993    1.398   .     A
C993   C994    1.397   .     A
C993   H1090   1.082   .     S
C994   C995    1.398   .     A
C994   H999    1.082   .     S
C995   H1000   1.082   .     S
C995   C996    1.399   .     A
C996   H1001   1.083   .     S
C1002  C1003   1.405   .     A
C1002  C1007   1.402   .     A
C1003  H1008   1.082   .     S
C1003  C1004   1.400   .     A
C1004  C1005   1.396   .     A
C1005  C1006   1.396   .     A
C1006  H1011   1.082   .     S
C1006  C1007   1.398   .     A
C1007  H1012   1.080   .     S
H1009  C1096   1.081   .     S
H1010  C1097   1.083   .     S
C1013  C1033   1.461   .     S
C1013  O1059   1.302   .     A
C1013  O1061   1.294   .     A
C1014  O1062   1.293   .     A
C1014  C1034   1.448   .     S
C1014  O1060   1.296   .     A
C1015  H1051   1.082   .     S
C1015  C1017   1.406   .     A
C1015  C1023   1.399   .     A
C1016  H1052   1.082   .     S
C1016  C1024   1.398   .     A
C1016  C1018   1.406   .     A
C1017  N1057   1.382   .     A
C1017  C1083   1.474   .     S
C1018  C1094   1.475   .     S
C1018  N1058   1.383   .     A
C1019  N1057   1.364   .     A
C1019  C1021   1.412   .     A
C1019  H1053   1.081   .     S
C1020  H1054   1.080   .     S
C1020  N1058   1.365   .     A
C1020  C1022   1.412   .     A
C1021  H1055   1.080   .     S
C1021  C1023   1.417   .     A
C1022  H1056   1.080   .     S
C1022  C1024   1.416   .     A
C1024  C471    1.521   1_556 S
C1025  O1063   1.286   .     A
C1025  O1065   1.290   .     A
C1025  C1027   1.438   .     S
C1026  O1064   1.284   .     A
C1026  O1066   1.293   .     A
C1026  C1028   1.440   .     S
C1028  C843    1.344   1_655 S
C1028  O891    1.396   1_655 S
C1029  C1039   1.406   .     A
C1029  H1043   1.082   .     S
C1029  C1031   1.390   .     A
C1030  C1032   1.390   .     A
C1030  C1040   1.408   .     A
C1030  H1044   1.082   .     S
C1031  C1033   1.399   .     A
C1031  H1045   1.081   .     S
C1032  H1046   1.084   .     S
C1032  C1034   1.397   .     A
C1033  C1035   1.402   .     A
C1034  C1036   1.397   .     A
C1035  C1037   1.389   .     A
C1035  H1047   1.083   .     S
C1036  H1048   1.082   .     S
C1036  C1038   1.388   .     A
C1037  H1049   1.082   .     S
C1037  C1039   1.404   .     A
C1038  H1050   1.082   .     S
C1038  C1040   1.406   .     A
C1040  C763    1.475   1_565 S
Cu1041 O1059   1.957   .     S
Cu1041 O1066   1.955   .     S
Cu1041 O1062   1.950   .     S
Cu1041 Cu1042  2.691   .     S
Cu1041 O1063   1.967   .     S
Cu1041 N1058   2.022   .     S
Cu1042 N1057   2.022   .     S
Cu1042 O1060   1.957   .     S
Cu1042 O1065   1.955   .     S
Cu1042 O1061   1.950   .     S
Cu1042 O1064   1.967   .     S
O1067  C843    1.396   1_655 S
O1067  C884    1.415   1_655 S
C1068  H1069   1.115   .     S
C1068  H1070   1.111   .     S
C1071  H1072   1.111   .     S
C1071  H1073   1.111   .     S
C1071  H1074   1.111   .     S
C1071  C884    1.521   1_655 S
C1076  H1078   1.114   .     S
C1076  H1077   1.109   .     S
C1076  O891    1.413   1_655 S
C1076  C895    1.520   1_655 S
C1079  H1080   1.111   .     S
C1079  H1081   1.111   .     S
C1079  H1082   1.111   .     S
C1083  C1088   1.405   .     A
C1083  C1084   1.403   .     A
C1084  H1089   1.082   .     S
C1084  C1085   1.398   .     A
C1085  C1086   1.397   .     A
C1085  H906    1.082   1_655 S
C1086  C1087   1.398   .     A
C1086  H1091   1.082   .     S
C1087  H1092   1.082   .     S
C1087  C1088   1.399   .     A
C1088  H1093   1.083   .     S
C1094  C1095   1.405   .     A
C1094  C1099   1.402   .     A
C1095  H1100   1.082   .     S
C1095  C1096   1.400   .     A
C1096  C1097   1.396   .     A
C1097  C1098   1.396   .     A
C1098  H1103   1.082   .     S
C1098  C1099   1.398   .     A
C1099  H1104   1.080   .     S
H1101  C912    1.081   1_655 S
H1102  C913    1.083   1_655 S
