data_str_m2_o10_o17_pcu_sym.180
_audit_creation_date              2020-01-03
_audit_creation_method            'Materials Studio'
_symmetry_space_group_name_H-M    'P1'
_symmetry_Int_Tables_number       1
_symmetry_cell_setting            triclinic
loop_
_symmetry_equiv_pos_as_xyz
  x,y,z
_cell_length_a                    29.9865
_cell_length_b                    26.1688
_cell_length_c                    22.6637
_cell_angle_alpha                 102.3919
_cell_angle_beta                  96.1644
_cell_angle_gamma                 93.9940
loop_
_atom_site_label
_atom_site_type_symbol
_atom_site_fract_x
_atom_site_fract_y
_atom_site_fract_z
_atom_site_U_iso_or_equiv
_atom_site_adp_type
_atom_site_occupancy
C1     C     0.24844   0.06673   0.15125   0.00000  Uiso   1.00
C2     C     0.25156   0.26660   0.18208   0.00000  Uiso   1.00
C3     C     0.01282   0.07169   0.12049   0.00000  Uiso   1.00
C4     C     0.48718   0.26164   0.21285   0.00000  Uiso   1.00
C5     C     0.24762   0.01079   0.14268   0.00000  Uiso   1.00
C6     C     0.25238   0.32254   0.19065   0.00000  Uiso   1.00
C7     C     0.16472   0.16618   0.16629   0.00000  Uiso   1.00
C8     C     0.33528   0.16716   0.16704   0.00000  Uiso   1.00
C9     C     0.41030   0.21528   0.18067   0.00000  Uiso   1.00
C10    C     0.08970   0.11806   0.15266   0.00000  Uiso   1.00
C11    C     0.38360   0.16748   0.16815   0.00000  Uiso   1.00
C12    C     0.11640   0.16586   0.16518   0.00000  Uiso   1.00
C13    C     0.40247   0.11982   0.15815   0.00000  Uiso   1.00
C14    C     0.09753   0.21351   0.17519   0.00000  Uiso   1.00
C15    C     0.44823   0.11907   0.14925   0.00000  Uiso   1.00
C16    C     0.05177   0.21427   0.18408   0.00000  Uiso   1.00
C17    C     0.47657   0.16698   0.16723   0.00000  Uiso   1.00
C18    C     0.02343   0.16635   0.16610   0.00000  Uiso   1.00
C19    C     0.45789   0.21544   0.18670   0.00000  Uiso   1.00
C20    C     0.04211   0.11789   0.14663   0.00000  Uiso   1.00
C21    C     0.46592   0.07241   0.12129   0.00000  Uiso   1.00
C22    C     0.03408   0.26092   0.21204   0.00000  Uiso   1.00
Cu23   Cu    0.25500   0.17246   0.22813   0.00000  Uiso   1.00
Cu24   Cu    0.24499   0.16087   0.10521   0.00000  Uiso   1.00
H25    H     0.24315   0.32055   0.09633   0.00000  Uiso   1.00
H26    H     0.25685   0.01279   0.23701   0.00000  Uiso   1.00
N27    N     0.23744   0.15214   0.01284   0.00000  Uiso   1.00
N28    N     0.26255   0.18119   0.32049   0.00000  Uiso   1.00
O29    O     0.25325   0.09538   0.20659   0.00000  Uiso   1.00
O30    O     0.24674   0.23796   0.12674   0.00000  Uiso   1.00
O31    O     0.24480   0.08559   0.10279   0.00000  Uiso   1.00
O32    O     0.25520   0.24774   0.23055   0.00000  Uiso   1.00
O33    O     0.18935   0.17155   0.21857   0.00000  Uiso   1.00
O34    O     0.31064   0.16179   0.11476   0.00000  Uiso   1.00
O35    O     0.18090   0.16176   0.11477   0.00000  Uiso   1.00
O36    O     0.31910   0.17157   0.21857   0.00000  Uiso   1.00
Cl37   Cl    0.38182   0.27304   0.18522   0.00000  Uiso   1.00
Cl38   Cl    0.11818   0.06029   0.14811   0.00000  Uiso   1.00
Cl39   Cl    0.36879   0.06311   0.16454   0.00000  Uiso   1.00
Cl40   Cl    0.13121   0.27023   0.16880   0.00000  Uiso   1.00
C41    C     0.43522   0.02750   0.08332   0.00000  Uiso   1.00
O42    O     0.40669   0.03531   0.04424   0.00000  Uiso   1.00
O43    O     0.43850   0.31010   0.09264   0.00000  Uiso   1.00
H44    H     0.41546   0.28318   0.06435   0.00000  Uiso   1.00
C45    C     0.06478   0.30583   0.25001   0.00000  Uiso   1.00
O46    O     0.09331   0.29803   0.28910   0.00000  Uiso   1.00
O47    O     0.06150   0.02323   0.24069   0.00000  Uiso   1.00
H48    H     0.08454   0.05015   0.26898   0.00000  Uiso   1.00
C49    C     0.02957   0.02628   0.08109   0.00000  Uiso   1.00
O50    O     0.04536   0.03238   0.03541   0.00000  Uiso   1.00
O51    O     0.02829   0.31071   0.09660   0.00000  Uiso   1.00
H52    H     0.04103   0.28316   0.06600   0.00000  Uiso   1.00
C53    C     0.47043   0.30705   0.25224   0.00000  Uiso   1.00
O54    O     0.45464   0.30096   0.29793   0.00000  Uiso   1.00
O55    O     0.47171   0.02262   0.23673   0.00000  Uiso   1.00
H56    H     0.45897   0.05017   0.26734   0.00000  Uiso   1.00
Cl57   Cl    0.19788   0.10438   0.30175   0.00000  Uiso   1.00
Cl58   Cl    0.30212   0.22895   0.03158   0.00000  Uiso   1.00
C59    C     0.74844   0.06673   0.15125   0.00000  Uiso   1.00
C60    C     0.75156   0.26660   0.18208   0.00000  Uiso   1.00
C61    C     0.51282   0.07169   0.12049   0.00000  Uiso   1.00
C62    C     0.98718   0.26164   0.21285   0.00000  Uiso   1.00
C63    C     0.74762   0.01079   0.14268   0.00000  Uiso   1.00
C64    C     0.75238   0.32254   0.19065   0.00000  Uiso   1.00
C65    C     0.66472   0.16618   0.16629   0.00000  Uiso   1.00
C66    C     0.83528   0.16716   0.16704   0.00000  Uiso   1.00
C67    C     0.91030   0.21528   0.18067   0.00000  Uiso   1.00
C68    C     0.58970   0.11806   0.15266   0.00000  Uiso   1.00
C69    C     0.88360   0.16748   0.16815   0.00000  Uiso   1.00
C70    C     0.61640   0.16586   0.16518   0.00000  Uiso   1.00
C71    C     0.90247   0.11982   0.15815   0.00000  Uiso   1.00
C72    C     0.59753   0.21351   0.17519   0.00000  Uiso   1.00
C73    C     0.94823   0.11907   0.14925   0.00000  Uiso   1.00
C74    C     0.55177   0.21427   0.18408   0.00000  Uiso   1.00
C75    C     0.97657   0.16698   0.16723   0.00000  Uiso   1.00
C76    C     0.52343   0.16635   0.16610   0.00000  Uiso   1.00
C77    C     0.95789   0.21544   0.18670   0.00000  Uiso   1.00
C78    C     0.54211   0.11789   0.14663   0.00000  Uiso   1.00
C79    C     0.96592   0.07241   0.12129   0.00000  Uiso   1.00
C80    C     0.53408   0.26092   0.21204   0.00000  Uiso   1.00
Cu81   Cu    0.75500   0.17246   0.22813   0.00000  Uiso   1.00
Cu82   Cu    0.74499   0.16087   0.10521   0.00000  Uiso   1.00
H83    H     0.74315   0.32055   0.09633   0.00000  Uiso   1.00
H84    H     0.75685   0.01279   0.23701   0.00000  Uiso   1.00
N85    N     0.73744   0.15214   0.01284   0.00000  Uiso   1.00
N86    N     0.76255   0.18119   0.32049   0.00000  Uiso   1.00
O87    O     0.75325   0.09538   0.20659   0.00000  Uiso   1.00
O88    O     0.74674   0.23796   0.12674   0.00000  Uiso   1.00
O89    O     0.74480   0.08559   0.10279   0.00000  Uiso   1.00
O90    O     0.75520   0.24774   0.23055   0.00000  Uiso   1.00
O91    O     0.68935   0.17155   0.21857   0.00000  Uiso   1.00
O92    O     0.81064   0.16179   0.11476   0.00000  Uiso   1.00
O93    O     0.68090   0.16176   0.11477   0.00000  Uiso   1.00
O94    O     0.81910   0.17157   0.21857   0.00000  Uiso   1.00
Cl95   Cl    0.88182   0.27304   0.18522   0.00000  Uiso   1.00
Cl96   Cl    0.61818   0.06029   0.14811   0.00000  Uiso   1.00
Cl97   Cl    0.86879   0.06311   0.16454   0.00000  Uiso   1.00
Cl98   Cl    0.63121   0.27023   0.16880   0.00000  Uiso   1.00
C99    C     0.93522   0.02750   0.08332   0.00000  Uiso   1.00
O100   O     0.90669   0.03531   0.04424   0.00000  Uiso   1.00
O101   O     0.93850   0.31010   0.09264   0.00000  Uiso   1.00
H102   H     0.91546   0.28318   0.06435   0.00000  Uiso   1.00
C103   C     0.56478   0.30583   0.25001   0.00000  Uiso   1.00
O104   O     0.59331   0.29803   0.28910   0.00000  Uiso   1.00
O105   O     0.56150   0.02323   0.24069   0.00000  Uiso   1.00
H106   H     0.58454   0.05015   0.26898   0.00000  Uiso   1.00
C107   C     0.52957   0.02628   0.08109   0.00000  Uiso   1.00
O108   O     0.54536   0.03238   0.03541   0.00000  Uiso   1.00
O109   O     0.52829   0.31071   0.09660   0.00000  Uiso   1.00
H110   H     0.54103   0.28316   0.06600   0.00000  Uiso   1.00
C111   C     0.97043   0.30705   0.25224   0.00000  Uiso   1.00
O112   O     0.95464   0.30096   0.29793   0.00000  Uiso   1.00
O113   O     0.97171   0.02262   0.23673   0.00000  Uiso   1.00
H114   H     0.95897   0.05017   0.26734   0.00000  Uiso   1.00
Cl115  Cl    0.69788   0.10438   0.30175   0.00000  Uiso   1.00
Cl116  Cl    0.80212   0.22895   0.03158   0.00000  Uiso   1.00
C117   C     0.24844   0.40006   0.15125   0.00000  Uiso   1.00
C118   C     0.25156   0.59994   0.18208   0.00000  Uiso   1.00
C119   C     0.01282   0.40502   0.12049   0.00000  Uiso   1.00
C120   C     0.48718   0.59498   0.21285   0.00000  Uiso   1.00
C121   C     0.24762   0.34413   0.14268   0.00000  Uiso   1.00
C122   C     0.25238   0.65587   0.19065   0.00000  Uiso   1.00
C123   C     0.16472   0.49951   0.16629   0.00000  Uiso   1.00
C124   C     0.33528   0.50049   0.16704   0.00000  Uiso   1.00
C125   C     0.41030   0.54861   0.18067   0.00000  Uiso   1.00
C126   C     0.08970   0.45139   0.15266   0.00000  Uiso   1.00
C127   C     0.38360   0.50081   0.16815   0.00000  Uiso   1.00
C128   C     0.11640   0.49919   0.16518   0.00000  Uiso   1.00
C129   C     0.40247   0.45315   0.15815   0.00000  Uiso   1.00
C130   C     0.09753   0.54685   0.17519   0.00000  Uiso   1.00
C131   C     0.44823   0.45240   0.14925   0.00000  Uiso   1.00
C132   C     0.05177   0.54760   0.18408   0.00000  Uiso   1.00
C133   C     0.47657   0.50032   0.16723   0.00000  Uiso   1.00
C134   C     0.02343   0.49968   0.16610   0.00000  Uiso   1.00
C135   C     0.45789   0.54877   0.18670   0.00000  Uiso   1.00
C136   C     0.04211   0.45122   0.14663   0.00000  Uiso   1.00
C137   C     0.46592   0.40575   0.12129   0.00000  Uiso   1.00
C138   C     0.03408   0.59425   0.21204   0.00000  Uiso   1.00
Cu139  Cu    0.25500   0.50579   0.22813   0.00000  Uiso   1.00
Cu140  Cu    0.24499   0.49421   0.10521   0.00000  Uiso   1.00
H141   H     0.24315   0.65388   0.09633   0.00000  Uiso   1.00
H142   H     0.25685   0.34612   0.23701   0.00000  Uiso   1.00
N143   N     0.23744   0.48547   0.01284   0.00000  Uiso   1.00
N144   N     0.26255   0.51453   0.32049   0.00000  Uiso   1.00
O145   O     0.25325   0.42871   0.20659   0.00000  Uiso   1.00
O146   O     0.24674   0.57129   0.12674   0.00000  Uiso   1.00
O147   O     0.24480   0.41892   0.10279   0.00000  Uiso   1.00
O148   O     0.25520   0.58108   0.23055   0.00000  Uiso   1.00
O149   O     0.18935   0.50488   0.21857   0.00000  Uiso   1.00
O150   O     0.31064   0.49512   0.11476   0.00000  Uiso   1.00
O151   O     0.18090   0.49510   0.11477   0.00000  Uiso   1.00
O152   O     0.31910   0.50490   0.21857   0.00000  Uiso   1.00
Cl153  Cl    0.38182   0.60638   0.18522   0.00000  Uiso   1.00
Cl154  Cl    0.11818   0.39362   0.14811   0.00000  Uiso   1.00
Cl155  Cl    0.36879   0.39644   0.16454   0.00000  Uiso   1.00
Cl156  Cl    0.13121   0.60356   0.16880   0.00000  Uiso   1.00
C157   C     0.43522   0.36084   0.08332   0.00000  Uiso   1.00
O158   O     0.40669   0.36864   0.04424   0.00000  Uiso   1.00
O159   O     0.43850   0.64344   0.09264   0.00000  Uiso   1.00
H160   H     0.41546   0.61651   0.06435   0.00000  Uiso   1.00
C161   C     0.06478   0.63916   0.25001   0.00000  Uiso   1.00
O162   O     0.09331   0.63136   0.28910   0.00000  Uiso   1.00
O163   O     0.06150   0.35656   0.24069   0.00000  Uiso   1.00
H164   H     0.08454   0.38349   0.26898   0.00000  Uiso   1.00
C165   C     0.02957   0.35961   0.08109   0.00000  Uiso   1.00
O166   O     0.04536   0.36571   0.03541   0.00000  Uiso   1.00
O167   O     0.02829   0.64405   0.09660   0.00000  Uiso   1.00
H168   H     0.04103   0.61649   0.06600   0.00000  Uiso   1.00
C169   C     0.47043   0.64039   0.25224   0.00000  Uiso   1.00
O170   O     0.45464   0.63429   0.29793   0.00000  Uiso   1.00
O171   O     0.47171   0.35595   0.23673   0.00000  Uiso   1.00
H172   H     0.45897   0.38351   0.26734   0.00000  Uiso   1.00
Cl173  Cl    0.19788   0.43772   0.30175   0.00000  Uiso   1.00
Cl174  Cl    0.30212   0.56228   0.03158   0.00000  Uiso   1.00
C175   C     0.74844   0.40006   0.15125   0.00000  Uiso   1.00
C176   C     0.75156   0.59994   0.18208   0.00000  Uiso   1.00
C177   C     0.51282   0.40502   0.12049   0.00000  Uiso   1.00
C178   C     0.98718   0.59498   0.21285   0.00000  Uiso   1.00
C179   C     0.74762   0.34413   0.14268   0.00000  Uiso   1.00
C180   C     0.75238   0.65587   0.19065   0.00000  Uiso   1.00
C181   C     0.66472   0.49951   0.16629   0.00000  Uiso   1.00
C182   C     0.83528   0.50049   0.16704   0.00000  Uiso   1.00
C183   C     0.91030   0.54861   0.18067   0.00000  Uiso   1.00
C184   C     0.58970   0.45139   0.15266   0.00000  Uiso   1.00
C185   C     0.88360   0.50081   0.16815   0.00000  Uiso   1.00
C186   C     0.61640   0.49919   0.16518   0.00000  Uiso   1.00
C187   C     0.90247   0.45315   0.15815   0.00000  Uiso   1.00
C188   C     0.59753   0.54685   0.17519   0.00000  Uiso   1.00
C189   C     0.94823   0.45240   0.14925   0.00000  Uiso   1.00
C190   C     0.55177   0.54760   0.18408   0.00000  Uiso   1.00
C191   C     0.97657   0.50032   0.16723   0.00000  Uiso   1.00
C192   C     0.52343   0.49968   0.16610   0.00000  Uiso   1.00
C193   C     0.95789   0.54877   0.18670   0.00000  Uiso   1.00
C194   C     0.54211   0.45122   0.14663   0.00000  Uiso   1.00
C195   C     0.96592   0.40575   0.12129   0.00000  Uiso   1.00
C196   C     0.53408   0.59425   0.21204   0.00000  Uiso   1.00
Cu197  Cu    0.75500   0.50579   0.22813   0.00000  Uiso   1.00
Cu198  Cu    0.74499   0.49421   0.10521   0.00000  Uiso   1.00
H199   H     0.74315   0.65388   0.09633   0.00000  Uiso   1.00
H200   H     0.75685   0.34612   0.23701   0.00000  Uiso   1.00
N201   N     0.73744   0.48547   0.01284   0.00000  Uiso   1.00
N202   N     0.76255   0.51453   0.32049   0.00000  Uiso   1.00
O203   O     0.75325   0.42871   0.20659   0.00000  Uiso   1.00
O204   O     0.74674   0.57129   0.12674   0.00000  Uiso   1.00
O205   O     0.74480   0.41892   0.10279   0.00000  Uiso   1.00
O206   O     0.75520   0.58108   0.23055   0.00000  Uiso   1.00
O207   O     0.68935   0.50488   0.21857   0.00000  Uiso   1.00
O208   O     0.81064   0.49512   0.11476   0.00000  Uiso   1.00
O209   O     0.68090   0.49510   0.11477   0.00000  Uiso   1.00
O210   O     0.81910   0.50490   0.21857   0.00000  Uiso   1.00
Cl211  Cl    0.88182   0.60638   0.18522   0.00000  Uiso   1.00
Cl212  Cl    0.61818   0.39362   0.14811   0.00000  Uiso   1.00
Cl213  Cl    0.86879   0.39644   0.16454   0.00000  Uiso   1.00
Cl214  Cl    0.63121   0.60356   0.16880   0.00000  Uiso   1.00
C215   C     0.93522   0.36084   0.08332   0.00000  Uiso   1.00
O216   O     0.90669   0.36864   0.04424   0.00000  Uiso   1.00
O217   O     0.93850   0.64344   0.09264   0.00000  Uiso   1.00
H218   H     0.91546   0.61651   0.06435   0.00000  Uiso   1.00
C219   C     0.56478   0.63916   0.25001   0.00000  Uiso   1.00
O220   O     0.59331   0.63136   0.28910   0.00000  Uiso   1.00
O221   O     0.56150   0.35656   0.24069   0.00000  Uiso   1.00
H222   H     0.58454   0.38349   0.26898   0.00000  Uiso   1.00
C223   C     0.52957   0.35961   0.08109   0.00000  Uiso   1.00
O224   O     0.54536   0.36571   0.03541   0.00000  Uiso   1.00
O225   O     0.52829   0.64405   0.09660   0.00000  Uiso   1.00
H226   H     0.54103   0.61649   0.06600   0.00000  Uiso   1.00
C227   C     0.97043   0.64039   0.25224   0.00000  Uiso   1.00
O228   O     0.95464   0.63429   0.29793   0.00000  Uiso   1.00
O229   O     0.97171   0.35595   0.23673   0.00000  Uiso   1.00
H230   H     0.95897   0.38351   0.26734   0.00000  Uiso   1.00
Cl231  Cl    0.69788   0.43772   0.30175   0.00000  Uiso   1.00
Cl232  Cl    0.80212   0.56228   0.03158   0.00000  Uiso   1.00
C233   C     0.24844   0.73340   0.15125   0.00000  Uiso   1.00
C234   C     0.25156   0.93327   0.18208   0.00000  Uiso   1.00
C235   C     0.01282   0.73836   0.12049   0.00000  Uiso   1.00
C236   C     0.48718   0.92831   0.21285   0.00000  Uiso   1.00
C237   C     0.24762   0.67746   0.14268   0.00000  Uiso   1.00
C238   C     0.25238   0.98921   0.19065   0.00000  Uiso   1.00
C239   C     0.16472   0.83284   0.16629   0.00000  Uiso   1.00
C240   C     0.33528   0.83382   0.16704   0.00000  Uiso   1.00
C241   C     0.41030   0.88194   0.18067   0.00000  Uiso   1.00
C242   C     0.08970   0.78472   0.15266   0.00000  Uiso   1.00
C243   C     0.38360   0.83414   0.16815   0.00000  Uiso   1.00
C244   C     0.11640   0.83252   0.16518   0.00000  Uiso   1.00
C245   C     0.40247   0.78648   0.15815   0.00000  Uiso   1.00
C246   C     0.09753   0.88018   0.17519   0.00000  Uiso   1.00
C247   C     0.44823   0.78573   0.14925   0.00000  Uiso   1.00
C248   C     0.05177   0.88093   0.18408   0.00000  Uiso   1.00
C249   C     0.47657   0.83365   0.16723   0.00000  Uiso   1.00
C250   C     0.02343   0.83302   0.16610   0.00000  Uiso   1.00
C251   C     0.45789   0.88211   0.18670   0.00000  Uiso   1.00
C252   C     0.04211   0.78456   0.14663   0.00000  Uiso   1.00
C253   C     0.46592   0.73908   0.12129   0.00000  Uiso   1.00
C254   C     0.03408   0.92759   0.21204   0.00000  Uiso   1.00
Cu255  Cu    0.25500   0.83913   0.22813   0.00000  Uiso   1.00
Cu256  Cu    0.24499   0.82754   0.10521   0.00000  Uiso   1.00
H257   H     0.24315   0.98721   0.09633   0.00000  Uiso   1.00
H258   H     0.25685   0.67945   0.23701   0.00000  Uiso   1.00
N259   N     0.23744   0.81881   0.01284   0.00000  Uiso   1.00
N260   N     0.26255   0.84786   0.32049   0.00000  Uiso   1.00
O261   O     0.25325   0.76204   0.20659   0.00000  Uiso   1.00
O262   O     0.24674   0.90462   0.12674   0.00000  Uiso   1.00
O263   O     0.24480   0.75226   0.10279   0.00000  Uiso   1.00
O264   O     0.25520   0.91441   0.23055   0.00000  Uiso   1.00
O265   O     0.18935   0.83821   0.21857   0.00000  Uiso   1.00
O266   O     0.31064   0.82845   0.11476   0.00000  Uiso   1.00
O267   O     0.18090   0.82843   0.11477   0.00000  Uiso   1.00
O268   O     0.31910   0.83824   0.21857   0.00000  Uiso   1.00
Cl269  Cl    0.38182   0.93971   0.18522   0.00000  Uiso   1.00
Cl270  Cl    0.11818   0.72696   0.14811   0.00000  Uiso   1.00
Cl271  Cl    0.36879   0.72977   0.16454   0.00000  Uiso   1.00
Cl272  Cl    0.13121   0.93689   0.16880   0.00000  Uiso   1.00
C273   C     0.43522   0.69417   0.08332   0.00000  Uiso   1.00
O274   O     0.40669   0.70197   0.04424   0.00000  Uiso   1.00
O275   O     0.43850   0.97677   0.09264   0.00000  Uiso   1.00
H276   H     0.41546   0.94985   0.06435   0.00000  Uiso   1.00
C277   C     0.06478   0.97250   0.25001   0.00000  Uiso   1.00
O278   O     0.09331   0.96469   0.28910   0.00000  Uiso   1.00
O279   O     0.06150   0.68990   0.24069   0.00000  Uiso   1.00
H280   H     0.08454   0.71682   0.26898   0.00000  Uiso   1.00
C281   C     0.02957   0.69295   0.08109   0.00000  Uiso   1.00
O282   O     0.04536   0.69904   0.03541   0.00000  Uiso   1.00
O283   O     0.02829   0.97738   0.09660   0.00000  Uiso   1.00
H284   H     0.04103   0.94983   0.06600   0.00000  Uiso   1.00
C285   C     0.47043   0.97372   0.25224   0.00000  Uiso   1.00
O286   O     0.45464   0.96762   0.29793   0.00000  Uiso   1.00
O287   O     0.47171   0.68928   0.23673   0.00000  Uiso   1.00
H288   H     0.45897   0.71684   0.26734   0.00000  Uiso   1.00
Cl289  Cl    0.19788   0.77105   0.30175   0.00000  Uiso   1.00
Cl290  Cl    0.30212   0.89562   0.03158   0.00000  Uiso   1.00
C291   C     0.74844   0.73340   0.15125   0.00000  Uiso   1.00
C292   C     0.75156   0.93327   0.18208   0.00000  Uiso   1.00
C293   C     0.51282   0.73836   0.12049   0.00000  Uiso   1.00
C294   C     0.98718   0.92831   0.21285   0.00000  Uiso   1.00
C295   C     0.74762   0.67746   0.14268   0.00000  Uiso   1.00
C296   C     0.75238   0.98921   0.19065   0.00000  Uiso   1.00
C297   C     0.66472   0.83284   0.16629   0.00000  Uiso   1.00
C298   C     0.83528   0.83382   0.16704   0.00000  Uiso   1.00
C299   C     0.91030   0.88194   0.18067   0.00000  Uiso   1.00
C300   C     0.58970   0.78472   0.15266   0.00000  Uiso   1.00
C301   C     0.88360   0.83414   0.16815   0.00000  Uiso   1.00
C302   C     0.61640   0.83252   0.16518   0.00000  Uiso   1.00
C303   C     0.90247   0.78648   0.15815   0.00000  Uiso   1.00
C304   C     0.59753   0.88018   0.17519   0.00000  Uiso   1.00
C305   C     0.94823   0.78573   0.14925   0.00000  Uiso   1.00
C306   C     0.55177   0.88093   0.18408   0.00000  Uiso   1.00
C307   C     0.97657   0.83365   0.16723   0.00000  Uiso   1.00
C308   C     0.52343   0.83302   0.16610   0.00000  Uiso   1.00
C309   C     0.95789   0.88211   0.18670   0.00000  Uiso   1.00
C310   C     0.54211   0.78456   0.14663   0.00000  Uiso   1.00
C311   C     0.96592   0.73908   0.12129   0.00000  Uiso   1.00
C312   C     0.53408   0.92759   0.21204   0.00000  Uiso   1.00
Cu313  Cu    0.75500   0.83913   0.22813   0.00000  Uiso   1.00
Cu314  Cu    0.74499   0.82754   0.10521   0.00000  Uiso   1.00
H315   H     0.74315   0.98721   0.09633   0.00000  Uiso   1.00
H316   H     0.75685   0.67945   0.23701   0.00000  Uiso   1.00
N317   N     0.73744   0.81881   0.01284   0.00000  Uiso   1.00
N318   N     0.76255   0.84786   0.32049   0.00000  Uiso   1.00
O319   O     0.75325   0.76204   0.20659   0.00000  Uiso   1.00
O320   O     0.74674   0.90462   0.12674   0.00000  Uiso   1.00
O321   O     0.74480   0.75226   0.10279   0.00000  Uiso   1.00
O322   O     0.75520   0.91441   0.23055   0.00000  Uiso   1.00
O323   O     0.68935   0.83821   0.21857   0.00000  Uiso   1.00
O324   O     0.81064   0.82845   0.11476   0.00000  Uiso   1.00
O325   O     0.68090   0.82843   0.11477   0.00000  Uiso   1.00
O326   O     0.81910   0.83824   0.21857   0.00000  Uiso   1.00
Cl327  Cl    0.88182   0.93971   0.18522   0.00000  Uiso   1.00
Cl328  Cl    0.61818   0.72696   0.14811   0.00000  Uiso   1.00
Cl329  Cl    0.86879   0.72977   0.16454   0.00000  Uiso   1.00
Cl330  Cl    0.63121   0.93689   0.16880   0.00000  Uiso   1.00
C331   C     0.93522   0.69417   0.08332   0.00000  Uiso   1.00
O332   O     0.90669   0.70197   0.04424   0.00000  Uiso   1.00
O333   O     0.93850   0.97677   0.09264   0.00000  Uiso   1.00
H334   H     0.91546   0.94985   0.06435   0.00000  Uiso   1.00
C335   C     0.56478   0.97250   0.25001   0.00000  Uiso   1.00
O336   O     0.59331   0.96469   0.28910   0.00000  Uiso   1.00
O337   O     0.56150   0.68990   0.24069   0.00000  Uiso   1.00
H338   H     0.58454   0.71682   0.26898   0.00000  Uiso   1.00
C339   C     0.52957   0.69295   0.08109   0.00000  Uiso   1.00
O340   O     0.54536   0.69904   0.03541   0.00000  Uiso   1.00
O341   O     0.52829   0.97738   0.09660   0.00000  Uiso   1.00
H342   H     0.54103   0.94983   0.06600   0.00000  Uiso   1.00
C343   C     0.97043   0.97372   0.25224   0.00000  Uiso   1.00
O344   O     0.95464   0.96762   0.29793   0.00000  Uiso   1.00
O345   O     0.97171   0.68928   0.23673   0.00000  Uiso   1.00
H346   H     0.95897   0.71684   0.26734   0.00000  Uiso   1.00
Cl347  Cl    0.69788   0.77105   0.30175   0.00000  Uiso   1.00
Cl348  Cl    0.80212   0.89562   0.03158   0.00000  Uiso   1.00
C349   C     0.24844   0.06673   0.48459   0.00000  Uiso   1.00
C350   C     0.25156   0.26660   0.51541   0.00000  Uiso   1.00
C351   C     0.01282   0.07169   0.45382   0.00000  Uiso   1.00
C352   C     0.48718   0.26164   0.54618   0.00000  Uiso   1.00
C353   C     0.24762   0.01079   0.47601   0.00000  Uiso   1.00
C354   C     0.25238   0.32254   0.52399   0.00000  Uiso   1.00
C355   C     0.16472   0.16618   0.49963   0.00000  Uiso   1.00
C356   C     0.33528   0.16716   0.50037   0.00000  Uiso   1.00
C357   C     0.41030   0.21528   0.51401   0.00000  Uiso   1.00
C358   C     0.08970   0.11806   0.48599   0.00000  Uiso   1.00
C359   C     0.38360   0.16748   0.50149   0.00000  Uiso   1.00
C360   C     0.11640   0.16586   0.49851   0.00000  Uiso   1.00
C361   C     0.40247   0.11982   0.49148   0.00000  Uiso   1.00
C362   C     0.09753   0.21351   0.50852   0.00000  Uiso   1.00
C363   C     0.44823   0.11907   0.48258   0.00000  Uiso   1.00
C364   C     0.05177   0.21427   0.51742   0.00000  Uiso   1.00
C365   C     0.47657   0.16698   0.50057   0.00000  Uiso   1.00
C366   C     0.02343   0.16635   0.49943   0.00000  Uiso   1.00
C367   C     0.45789   0.21544   0.52003   0.00000  Uiso   1.00
C368   C     0.04211   0.11789   0.47997   0.00000  Uiso   1.00
C369   C     0.46592   0.07241   0.45462   0.00000  Uiso   1.00
C370   C     0.03408   0.26092   0.54538   0.00000  Uiso   1.00
Cu371  Cu    0.25500   0.17246   0.56146   0.00000  Uiso   1.00
Cu372  Cu    0.24499   0.16087   0.43854   0.00000  Uiso   1.00
H373   H     0.24315   0.32055   0.42966   0.00000  Uiso   1.00
H374   H     0.25685   0.01279   0.57034   0.00000  Uiso   1.00
N375   N     0.23744   0.15214   0.34617   0.00000  Uiso   1.00
N376   N     0.26255   0.18119   0.65383   0.00000  Uiso   1.00
O377   O     0.25325   0.09538   0.53992   0.00000  Uiso   1.00
O378   O     0.24674   0.23796   0.46008   0.00000  Uiso   1.00
O379   O     0.24480   0.08559   0.43612   0.00000  Uiso   1.00
O380   O     0.25520   0.24774   0.56388   0.00000  Uiso   1.00
O381   O     0.18935   0.17155   0.55191   0.00000  Uiso   1.00
O382   O     0.31064   0.16179   0.44809   0.00000  Uiso   1.00
O383   O     0.18090   0.16176   0.44810   0.00000  Uiso   1.00
O384   O     0.31910   0.17157   0.55190   0.00000  Uiso   1.00
Cl385  Cl    0.38182   0.27304   0.51856   0.00000  Uiso   1.00
Cl386  Cl    0.11818   0.06029   0.48144   0.00000  Uiso   1.00
Cl387  Cl    0.36879   0.06311   0.49787   0.00000  Uiso   1.00
Cl388  Cl    0.13121   0.27023   0.50213   0.00000  Uiso   1.00
C389   C     0.43522   0.02750   0.41666   0.00000  Uiso   1.00
O390   O     0.40669   0.03531   0.37757   0.00000  Uiso   1.00
O391   O     0.43850   0.31010   0.42598   0.00000  Uiso   1.00
H392   H     0.41546   0.28318   0.39769   0.00000  Uiso   1.00
C393   C     0.06478   0.30583   0.58334   0.00000  Uiso   1.00
O394   O     0.09331   0.29803   0.62243   0.00000  Uiso   1.00
O395   O     0.06150   0.02323   0.57402   0.00000  Uiso   1.00
H396   H     0.08454   0.05015   0.60231   0.00000  Uiso   1.00
C397   C     0.02957   0.02628   0.41443   0.00000  Uiso   1.00
O398   O     0.04536   0.03238   0.36874   0.00000  Uiso   1.00
O399   O     0.02829   0.31071   0.42993   0.00000  Uiso   1.00
H400   H     0.04103   0.28316   0.39933   0.00000  Uiso   1.00
C401   C     0.47043   0.30705   0.58557   0.00000  Uiso   1.00
O402   O     0.45464   0.30096   0.63126   0.00000  Uiso   1.00
O403   O     0.47171   0.02262   0.57007   0.00000  Uiso   1.00
H404   H     0.45897   0.05017   0.60067   0.00000  Uiso   1.00
Cl405  Cl    0.19788   0.10438   0.63508   0.00000  Uiso   1.00
Cl406  Cl    0.30212   0.22895   0.36491   0.00000  Uiso   1.00
C407   C     0.74844   0.06673   0.48459   0.00000  Uiso   1.00
C408   C     0.75156   0.26660   0.51541   0.00000  Uiso   1.00
C409   C     0.51282   0.07169   0.45382   0.00000  Uiso   1.00
C410   C     0.98718   0.26164   0.54618   0.00000  Uiso   1.00
C411   C     0.74762   0.01079   0.47601   0.00000  Uiso   1.00
C412   C     0.75238   0.32254   0.52399   0.00000  Uiso   1.00
C413   C     0.66472   0.16618   0.49963   0.00000  Uiso   1.00
C414   C     0.83528   0.16716   0.50037   0.00000  Uiso   1.00
C415   C     0.91030   0.21528   0.51401   0.00000  Uiso   1.00
C416   C     0.58970   0.11806   0.48599   0.00000  Uiso   1.00
C417   C     0.88360   0.16748   0.50149   0.00000  Uiso   1.00
C418   C     0.61640   0.16586   0.49851   0.00000  Uiso   1.00
C419   C     0.90247   0.11982   0.49148   0.00000  Uiso   1.00
C420   C     0.59753   0.21351   0.50852   0.00000  Uiso   1.00
C421   C     0.94823   0.11907   0.48258   0.00000  Uiso   1.00
C422   C     0.55177   0.21427   0.51742   0.00000  Uiso   1.00
C423   C     0.97657   0.16698   0.50057   0.00000  Uiso   1.00
C424   C     0.52343   0.16635   0.49943   0.00000  Uiso   1.00
C425   C     0.95789   0.21544   0.52003   0.00000  Uiso   1.00
C426   C     0.54211   0.11789   0.47997   0.00000  Uiso   1.00
C427   C     0.96592   0.07241   0.45462   0.00000  Uiso   1.00
C428   C     0.53408   0.26092   0.54538   0.00000  Uiso   1.00
Cu429  Cu    0.75500   0.17246   0.56146   0.00000  Uiso   1.00
Cu430  Cu    0.74499   0.16087   0.43854   0.00000  Uiso   1.00
H431   H     0.74315   0.32055   0.42966   0.00000  Uiso   1.00
H432   H     0.75685   0.01279   0.57034   0.00000  Uiso   1.00
N433   N     0.73744   0.15214   0.34617   0.00000  Uiso   1.00
N434   N     0.76255   0.18119   0.65383   0.00000  Uiso   1.00
O435   O     0.75325   0.09538   0.53992   0.00000  Uiso   1.00
O436   O     0.74674   0.23796   0.46008   0.00000  Uiso   1.00
O437   O     0.74480   0.08559   0.43612   0.00000  Uiso   1.00
O438   O     0.75520   0.24774   0.56388   0.00000  Uiso   1.00
O439   O     0.68935   0.17155   0.55191   0.00000  Uiso   1.00
O440   O     0.81064   0.16179   0.44809   0.00000  Uiso   1.00
O441   O     0.68090   0.16176   0.44810   0.00000  Uiso   1.00
O442   O     0.81910   0.17157   0.55190   0.00000  Uiso   1.00
Cl443  Cl    0.88182   0.27304   0.51856   0.00000  Uiso   1.00
Cl444  Cl    0.61818   0.06029   0.48144   0.00000  Uiso   1.00
Cl445  Cl    0.86879   0.06311   0.49787   0.00000  Uiso   1.00
Cl446  Cl    0.63121   0.27023   0.50213   0.00000  Uiso   1.00
C447   C     0.93522   0.02750   0.41666   0.00000  Uiso   1.00
O448   O     0.90669   0.03531   0.37757   0.00000  Uiso   1.00
O449   O     0.93850   0.31010   0.42598   0.00000  Uiso   1.00
H450   H     0.91546   0.28318   0.39769   0.00000  Uiso   1.00
C451   C     0.56478   0.30583   0.58334   0.00000  Uiso   1.00
O452   O     0.59331   0.29803   0.62243   0.00000  Uiso   1.00
O453   O     0.56150   0.02323   0.57402   0.00000  Uiso   1.00
H454   H     0.58454   0.05015   0.60231   0.00000  Uiso   1.00
C455   C     0.52957   0.02628   0.41443   0.00000  Uiso   1.00
O456   O     0.54536   0.03238   0.36874   0.00000  Uiso   1.00
O457   O     0.52829   0.31071   0.42993   0.00000  Uiso   1.00
H458   H     0.54103   0.28316   0.39933   0.00000  Uiso   1.00
C459   C     0.97043   0.30705   0.58557   0.00000  Uiso   1.00
O460   O     0.95464   0.30096   0.63126   0.00000  Uiso   1.00
O461   O     0.97171   0.02262   0.57007   0.00000  Uiso   1.00
H462   H     0.95897   0.05017   0.60067   0.00000  Uiso   1.00
Cl463  Cl    0.69788   0.10438   0.63508   0.00000  Uiso   1.00
Cl464  Cl    0.80212   0.22895   0.36491   0.00000  Uiso   1.00
C465   C     0.24844   0.40006   0.48459   0.00000  Uiso   1.00
C466   C     0.25156   0.59994   0.51541   0.00000  Uiso   1.00
C467   C     0.01282   0.40502   0.45382   0.00000  Uiso   1.00
C468   C     0.48718   0.59498   0.54618   0.00000  Uiso   1.00
C469   C     0.24762   0.34413   0.47601   0.00000  Uiso   1.00
C470   C     0.25238   0.65587   0.52399   0.00000  Uiso   1.00
C471   C     0.16472   0.49951   0.49963   0.00000  Uiso   1.00
C472   C     0.33528   0.50049   0.50037   0.00000  Uiso   1.00
C473   C     0.41030   0.54861   0.51401   0.00000  Uiso   1.00
C474   C     0.08970   0.45139   0.48599   0.00000  Uiso   1.00
C475   C     0.38360   0.50081   0.50149   0.00000  Uiso   1.00
C476   C     0.11640   0.49919   0.49851   0.00000  Uiso   1.00
C477   C     0.40247   0.45315   0.49148   0.00000  Uiso   1.00
C478   C     0.09753   0.54685   0.50852   0.00000  Uiso   1.00
C479   C     0.44823   0.45240   0.48258   0.00000  Uiso   1.00
C480   C     0.05177   0.54760   0.51742   0.00000  Uiso   1.00
C481   C     0.47657   0.50032   0.50057   0.00000  Uiso   1.00
C482   C     0.02343   0.49968   0.49943   0.00000  Uiso   1.00
C483   C     0.45789   0.54877   0.52003   0.00000  Uiso   1.00
C484   C     0.04211   0.45122   0.47997   0.00000  Uiso   1.00
C485   C     0.46592   0.40575   0.45462   0.00000  Uiso   1.00
C486   C     0.03408   0.59425   0.54538   0.00000  Uiso   1.00
Cu487  Cu    0.25500   0.50579   0.56146   0.00000  Uiso   1.00
Cu488  Cu    0.24499   0.49421   0.43854   0.00000  Uiso   1.00
H489   H     0.24315   0.65388   0.42966   0.00000  Uiso   1.00
H490   H     0.25685   0.34612   0.57034   0.00000  Uiso   1.00
N491   N     0.23744   0.48547   0.34617   0.00000  Uiso   1.00
N492   N     0.26255   0.51453   0.65383   0.00000  Uiso   1.00
O493   O     0.25325   0.42871   0.53992   0.00000  Uiso   1.00
O494   O     0.24674   0.57129   0.46008   0.00000  Uiso   1.00
O495   O     0.24480   0.41892   0.43612   0.00000  Uiso   1.00
O496   O     0.25520   0.58108   0.56388   0.00000  Uiso   1.00
O497   O     0.18935   0.50488   0.55191   0.00000  Uiso   1.00
O498   O     0.31064   0.49512   0.44809   0.00000  Uiso   1.00
O499   O     0.18090   0.49510   0.44810   0.00000  Uiso   1.00
O500   O     0.31910   0.50490   0.55190   0.00000  Uiso   1.00
Cl501  Cl    0.38182   0.60638   0.51856   0.00000  Uiso   1.00
Cl502  Cl    0.11818   0.39362   0.48144   0.00000  Uiso   1.00
Cl503  Cl    0.36879   0.39644   0.49787   0.00000  Uiso   1.00
Cl504  Cl    0.13121   0.60356   0.50213   0.00000  Uiso   1.00
C505   C     0.43522   0.36084   0.41666   0.00000  Uiso   1.00
O506   O     0.40669   0.36864   0.37757   0.00000  Uiso   1.00
O507   O     0.43850   0.64344   0.42598   0.00000  Uiso   1.00
H508   H     0.41546   0.61651   0.39769   0.00000  Uiso   1.00
C509   C     0.06478   0.63916   0.58334   0.00000  Uiso   1.00
O510   O     0.09331   0.63136   0.62243   0.00000  Uiso   1.00
O511   O     0.06150   0.35656   0.57402   0.00000  Uiso   1.00
H512   H     0.08454   0.38349   0.60231   0.00000  Uiso   1.00
C513   C     0.02957   0.35961   0.41443   0.00000  Uiso   1.00
O514   O     0.04536   0.36571   0.36874   0.00000  Uiso   1.00
O515   O     0.02829   0.64405   0.42993   0.00000  Uiso   1.00
H516   H     0.04103   0.61649   0.39933   0.00000  Uiso   1.00
C517   C     0.47043   0.64039   0.58557   0.00000  Uiso   1.00
O518   O     0.45464   0.63429   0.63126   0.00000  Uiso   1.00
O519   O     0.47171   0.35595   0.57007   0.00000  Uiso   1.00
H520   H     0.45897   0.38351   0.60067   0.00000  Uiso   1.00
Cl521  Cl    0.19788   0.43772   0.63508   0.00000  Uiso   1.00
Cl522  Cl    0.30212   0.56228   0.36491   0.00000  Uiso   1.00
C523   C     0.74844   0.40006   0.48459   0.00000  Uiso   1.00
C524   C     0.75156   0.59994   0.51541   0.00000  Uiso   1.00
C525   C     0.51282   0.40502   0.45382   0.00000  Uiso   1.00
C526   C     0.98718   0.59498   0.54618   0.00000  Uiso   1.00
C527   C     0.74762   0.34413   0.47601   0.00000  Uiso   1.00
C528   C     0.75238   0.65587   0.52399   0.00000  Uiso   1.00
C529   C     0.66472   0.49951   0.49963   0.00000  Uiso   1.00
C530   C     0.83528   0.50049   0.50037   0.00000  Uiso   1.00
C531   C     0.91030   0.54861   0.51401   0.00000  Uiso   1.00
C532   C     0.58970   0.45139   0.48599   0.00000  Uiso   1.00
C533   C     0.88360   0.50081   0.50149   0.00000  Uiso   1.00
C534   C     0.61640   0.49919   0.49851   0.00000  Uiso   1.00
C535   C     0.90247   0.45315   0.49148   0.00000  Uiso   1.00
C536   C     0.59753   0.54685   0.50852   0.00000  Uiso   1.00
C537   C     0.94823   0.45240   0.48258   0.00000  Uiso   1.00
C538   C     0.55177   0.54760   0.51742   0.00000  Uiso   1.00
C539   C     0.97657   0.50032   0.50057   0.00000  Uiso   1.00
C540   C     0.52343   0.49968   0.49943   0.00000  Uiso   1.00
C541   C     0.95789   0.54877   0.52003   0.00000  Uiso   1.00
C542   C     0.54211   0.45122   0.47997   0.00000  Uiso   1.00
C543   C     0.96592   0.40575   0.45462   0.00000  Uiso   1.00
C544   C     0.53408   0.59425   0.54538   0.00000  Uiso   1.00
Cu545  Cu    0.75500   0.50579   0.56146   0.00000  Uiso   1.00
Cu546  Cu    0.74499   0.49421   0.43854   0.00000  Uiso   1.00
H547   H     0.74315   0.65388   0.42966   0.00000  Uiso   1.00
H548   H     0.75685   0.34612   0.57034   0.00000  Uiso   1.00
N549   N     0.73744   0.48547   0.34617   0.00000  Uiso   1.00
N550   N     0.76255   0.51453   0.65383   0.00000  Uiso   1.00
O551   O     0.75325   0.42871   0.53992   0.00000  Uiso   1.00
O552   O     0.74674   0.57129   0.46008   0.00000  Uiso   1.00
O553   O     0.74480   0.41892   0.43612   0.00000  Uiso   1.00
O554   O     0.75520   0.58108   0.56388   0.00000  Uiso   1.00
O555   O     0.68935   0.50488   0.55191   0.00000  Uiso   1.00
O556   O     0.81064   0.49512   0.44809   0.00000  Uiso   1.00
O557   O     0.68090   0.49510   0.44810   0.00000  Uiso   1.00
O558   O     0.81910   0.50490   0.55190   0.00000  Uiso   1.00
Cl559  Cl    0.88182   0.60638   0.51856   0.00000  Uiso   1.00
Cl560  Cl    0.61818   0.39362   0.48144   0.00000  Uiso   1.00
Cl561  Cl    0.86879   0.39644   0.49787   0.00000  Uiso   1.00
Cl562  Cl    0.63121   0.60356   0.50213   0.00000  Uiso   1.00
C563   C     0.93522   0.36084   0.41666   0.00000  Uiso   1.00
O564   O     0.90669   0.36864   0.37757   0.00000  Uiso   1.00
O565   O     0.93850   0.64344   0.42598   0.00000  Uiso   1.00
H566   H     0.91546   0.61651   0.39769   0.00000  Uiso   1.00
C567   C     0.56478   0.63916   0.58334   0.00000  Uiso   1.00
O568   O     0.59331   0.63136   0.62243   0.00000  Uiso   1.00
O569   O     0.56150   0.35656   0.57402   0.00000  Uiso   1.00
H570   H     0.58454   0.38349   0.60231   0.00000  Uiso   1.00
C571   C     0.52957   0.35961   0.41443   0.00000  Uiso   1.00
O572   O     0.54536   0.36571   0.36874   0.00000  Uiso   1.00
O573   O     0.52829   0.64405   0.42993   0.00000  Uiso   1.00
H574   H     0.54103   0.61649   0.39933   0.00000  Uiso   1.00
C575   C     0.97043   0.64039   0.58557   0.00000  Uiso   1.00
O576   O     0.95464   0.63429   0.63126   0.00000  Uiso   1.00
O577   O     0.97171   0.35595   0.57007   0.00000  Uiso   1.00
H578   H     0.95897   0.38351   0.60067   0.00000  Uiso   1.00
Cl579  Cl    0.69788   0.43772   0.63508   0.00000  Uiso   1.00
Cl580  Cl    0.80212   0.56228   0.36491   0.00000  Uiso   1.00
C581   C     0.24844   0.73340   0.48459   0.00000  Uiso   1.00
C582   C     0.25156   0.93327   0.51541   0.00000  Uiso   1.00
C583   C     0.01282   0.73836   0.45382   0.00000  Uiso   1.00
C584   C     0.48718   0.92831   0.54618   0.00000  Uiso   1.00
C585   C     0.24762   0.67746   0.47601   0.00000  Uiso   1.00
C586   C     0.25238   0.98921   0.52399   0.00000  Uiso   1.00
C587   C     0.16472   0.83284   0.49963   0.00000  Uiso   1.00
C588   C     0.33528   0.83382   0.50037   0.00000  Uiso   1.00
C589   C     0.41030   0.88194   0.51401   0.00000  Uiso   1.00
C590   C     0.08970   0.78472   0.48599   0.00000  Uiso   1.00
C591   C     0.38360   0.83414   0.50149   0.00000  Uiso   1.00
C592   C     0.11640   0.83252   0.49851   0.00000  Uiso   1.00
C593   C     0.40247   0.78648   0.49148   0.00000  Uiso   1.00
C594   C     0.09753   0.88018   0.50852   0.00000  Uiso   1.00
C595   C     0.44823   0.78573   0.48258   0.00000  Uiso   1.00
C596   C     0.05177   0.88093   0.51742   0.00000  Uiso   1.00
C597   C     0.47657   0.83365   0.50057   0.00000  Uiso   1.00
C598   C     0.02343   0.83302   0.49943   0.00000  Uiso   1.00
C599   C     0.45789   0.88211   0.52003   0.00000  Uiso   1.00
C600   C     0.04211   0.78456   0.47997   0.00000  Uiso   1.00
C601   C     0.46592   0.73908   0.45462   0.00000  Uiso   1.00
C602   C     0.03408   0.92759   0.54538   0.00000  Uiso   1.00
Cu603  Cu    0.25500   0.83913   0.56146   0.00000  Uiso   1.00
Cu604  Cu    0.24499   0.82754   0.43854   0.00000  Uiso   1.00
H605   H     0.24315   0.98721   0.42966   0.00000  Uiso   1.00
H606   H     0.25685   0.67945   0.57034   0.00000  Uiso   1.00
N607   N     0.23744   0.81881   0.34617   0.00000  Uiso   1.00
N608   N     0.26255   0.84786   0.65383   0.00000  Uiso   1.00
O609   O     0.25325   0.76204   0.53992   0.00000  Uiso   1.00
O610   O     0.24674   0.90462   0.46008   0.00000  Uiso   1.00
O611   O     0.24480   0.75226   0.43612   0.00000  Uiso   1.00
O612   O     0.25520   0.91441   0.56388   0.00000  Uiso   1.00
O613   O     0.18935   0.83821   0.55191   0.00000  Uiso   1.00
O614   O     0.31064   0.82845   0.44809   0.00000  Uiso   1.00
O615   O     0.18090   0.82843   0.44810   0.00000  Uiso   1.00
O616   O     0.31910   0.83824   0.55190   0.00000  Uiso   1.00
Cl617  Cl    0.38182   0.93971   0.51856   0.00000  Uiso   1.00
Cl618  Cl    0.11818   0.72696   0.48144   0.00000  Uiso   1.00
Cl619  Cl    0.36879   0.72977   0.49787   0.00000  Uiso   1.00
Cl620  Cl    0.13121   0.93689   0.50213   0.00000  Uiso   1.00
C621   C     0.43522   0.69417   0.41666   0.00000  Uiso   1.00
O622   O     0.40669   0.70197   0.37757   0.00000  Uiso   1.00
O623   O     0.43850   0.97677   0.42598   0.00000  Uiso   1.00
H624   H     0.41546   0.94985   0.39769   0.00000  Uiso   1.00
C625   C     0.06478   0.97250   0.58334   0.00000  Uiso   1.00
O626   O     0.09331   0.96469   0.62243   0.00000  Uiso   1.00
O627   O     0.06150   0.68990   0.57402   0.00000  Uiso   1.00
H628   H     0.08454   0.71682   0.60231   0.00000  Uiso   1.00
C629   C     0.02957   0.69295   0.41443   0.00000  Uiso   1.00
O630   O     0.04536   0.69904   0.36874   0.00000  Uiso   1.00
O631   O     0.02829   0.97738   0.42993   0.00000  Uiso   1.00
H632   H     0.04103   0.94983   0.39933   0.00000  Uiso   1.00
C633   C     0.47043   0.97372   0.58557   0.00000  Uiso   1.00
O634   O     0.45464   0.96762   0.63126   0.00000  Uiso   1.00
O635   O     0.47171   0.68928   0.57007   0.00000  Uiso   1.00
H636   H     0.45897   0.71684   0.60067   0.00000  Uiso   1.00
Cl637  Cl    0.19788   0.77105   0.63508   0.00000  Uiso   1.00
Cl638  Cl    0.30212   0.89562   0.36491   0.00000  Uiso   1.00
C639   C     0.74844   0.73340   0.48459   0.00000  Uiso   1.00
C640   C     0.75156   0.93327   0.51541   0.00000  Uiso   1.00
C641   C     0.51282   0.73836   0.45382   0.00000  Uiso   1.00
C642   C     0.98718   0.92831   0.54618   0.00000  Uiso   1.00
C643   C     0.74762   0.67746   0.47601   0.00000  Uiso   1.00
C644   C     0.75238   0.98921   0.52399   0.00000  Uiso   1.00
C645   C     0.66472   0.83284   0.49963   0.00000  Uiso   1.00
C646   C     0.83528   0.83382   0.50037   0.00000  Uiso   1.00
C647   C     0.91030   0.88194   0.51401   0.00000  Uiso   1.00
C648   C     0.58970   0.78472   0.48599   0.00000  Uiso   1.00
C649   C     0.88360   0.83414   0.50149   0.00000  Uiso   1.00
C650   C     0.61640   0.83252   0.49851   0.00000  Uiso   1.00
C651   C     0.90247   0.78648   0.49148   0.00000  Uiso   1.00
C652   C     0.59753   0.88018   0.50852   0.00000  Uiso   1.00
C653   C     0.94823   0.78573   0.48258   0.00000  Uiso   1.00
C654   C     0.55177   0.88093   0.51742   0.00000  Uiso   1.00
C655   C     0.97657   0.83365   0.50057   0.00000  Uiso   1.00
C656   C     0.52343   0.83302   0.49943   0.00000  Uiso   1.00
C657   C     0.95789   0.88211   0.52003   0.00000  Uiso   1.00
C658   C     0.54211   0.78456   0.47997   0.00000  Uiso   1.00
C659   C     0.96592   0.73908   0.45462   0.00000  Uiso   1.00
C660   C     0.53408   0.92759   0.54538   0.00000  Uiso   1.00
Cu661  Cu    0.75500   0.83913   0.56146   0.00000  Uiso   1.00
Cu662  Cu    0.74499   0.82754   0.43854   0.00000  Uiso   1.00
H663   H     0.74315   0.98721   0.42966   0.00000  Uiso   1.00
H664   H     0.75685   0.67945   0.57034   0.00000  Uiso   1.00
N665   N     0.73744   0.81881   0.34617   0.00000  Uiso   1.00
N666   N     0.76255   0.84786   0.65383   0.00000  Uiso   1.00
O667   O     0.75325   0.76204   0.53992   0.00000  Uiso   1.00
O668   O     0.74674   0.90462   0.46008   0.00000  Uiso   1.00
O669   O     0.74480   0.75226   0.43612   0.00000  Uiso   1.00
O670   O     0.75520   0.91441   0.56388   0.00000  Uiso   1.00
O671   O     0.68935   0.83821   0.55191   0.00000  Uiso   1.00
O672   O     0.81064   0.82845   0.44809   0.00000  Uiso   1.00
O673   O     0.68090   0.82843   0.44810   0.00000  Uiso   1.00
O674   O     0.81910   0.83824   0.55190   0.00000  Uiso   1.00
Cl675  Cl    0.88182   0.93971   0.51856   0.00000  Uiso   1.00
Cl676  Cl    0.61818   0.72696   0.48144   0.00000  Uiso   1.00
Cl677  Cl    0.86879   0.72977   0.49787   0.00000  Uiso   1.00
Cl678  Cl    0.63121   0.93689   0.50213   0.00000  Uiso   1.00
C679   C     0.93522   0.69417   0.41666   0.00000  Uiso   1.00
O680   O     0.90669   0.70197   0.37757   0.00000  Uiso   1.00
O681   O     0.93850   0.97677   0.42598   0.00000  Uiso   1.00
H682   H     0.91546   0.94985   0.39769   0.00000  Uiso   1.00
C683   C     0.56478   0.97250   0.58334   0.00000  Uiso   1.00
O684   O     0.59331   0.96469   0.62243   0.00000  Uiso   1.00
O685   O     0.56150   0.68990   0.57402   0.00000  Uiso   1.00
H686   H     0.58454   0.71682   0.60231   0.00000  Uiso   1.00
C687   C     0.52957   0.69295   0.41443   0.00000  Uiso   1.00
O688   O     0.54536   0.69904   0.36874   0.00000  Uiso   1.00
O689   O     0.52829   0.97738   0.42993   0.00000  Uiso   1.00
H690   H     0.54103   0.94983   0.39933   0.00000  Uiso   1.00
C691   C     0.97043   0.97372   0.58557   0.00000  Uiso   1.00
O692   O     0.95464   0.96762   0.63126   0.00000  Uiso   1.00
O693   O     0.97171   0.68928   0.57007   0.00000  Uiso   1.00
H694   H     0.95897   0.71684   0.60067   0.00000  Uiso   1.00
Cl695  Cl    0.69788   0.77105   0.63508   0.00000  Uiso   1.00
Cl696  Cl    0.80212   0.89562   0.36491   0.00000  Uiso   1.00
C697   C     0.24844   0.06673   0.81792   0.00000  Uiso   1.00
C698   C     0.25156   0.26660   0.84875   0.00000  Uiso   1.00
C699   C     0.01282   0.07169   0.78715   0.00000  Uiso   1.00
C700   C     0.48718   0.26164   0.87951   0.00000  Uiso   1.00
C701   C     0.24762   0.01079   0.80935   0.00000  Uiso   1.00
C702   C     0.25238   0.32254   0.85732   0.00000  Uiso   1.00
C703   C     0.16472   0.16618   0.83296   0.00000  Uiso   1.00
C704   C     0.33528   0.16716   0.83371   0.00000  Uiso   1.00
C705   C     0.41030   0.21528   0.84734   0.00000  Uiso   1.00
C706   C     0.08970   0.11806   0.81933   0.00000  Uiso   1.00
C707   C     0.38360   0.16748   0.83482   0.00000  Uiso   1.00
C708   C     0.11640   0.16586   0.83185   0.00000  Uiso   1.00
C709   C     0.40247   0.11982   0.82481   0.00000  Uiso   1.00
C710   C     0.09753   0.21351   0.84185   0.00000  Uiso   1.00
C711   C     0.44823   0.11907   0.81592   0.00000  Uiso   1.00
C712   C     0.05177   0.21427   0.85075   0.00000  Uiso   1.00
C713   C     0.47657   0.16698   0.83390   0.00000  Uiso   1.00
C714   C     0.02343   0.16635   0.83277   0.00000  Uiso   1.00
C715   C     0.45789   0.21544   0.85337   0.00000  Uiso   1.00
C716   C     0.04211   0.11789   0.81330   0.00000  Uiso   1.00
C717   C     0.46592   0.07241   0.78796   0.00000  Uiso   1.00
C718   C     0.03408   0.26092   0.87871   0.00000  Uiso   1.00
Cu719  Cu    0.25500   0.17246   0.89479   0.00000  Uiso   1.00
Cu720  Cu    0.24499   0.16087   0.77187   0.00000  Uiso   1.00
H721   H     0.24315   0.32055   0.76299   0.00000  Uiso   1.00
H722   H     0.25685   0.01279   0.90367   0.00000  Uiso   1.00
N723   N     0.23744   0.15214   0.67951   0.00000  Uiso   1.00
N724   N     0.26255   0.18119   0.98716   0.00000  Uiso   1.00
O725   O     0.25325   0.09538   0.87326   0.00000  Uiso   1.00
O726   O     0.24674   0.23796   0.79341   0.00000  Uiso   1.00
O727   O     0.24480   0.08559   0.76945   0.00000  Uiso   1.00
O728   O     0.25520   0.24774   0.89721   0.00000  Uiso   1.00
O729   O     0.18935   0.17155   0.88524   0.00000  Uiso   1.00
O730   O     0.31064   0.16179   0.78143   0.00000  Uiso   1.00
O731   O     0.18090   0.16176   0.78143   0.00000  Uiso   1.00
O732   O     0.31910   0.17157   0.88523   0.00000  Uiso   1.00
Cl733  Cl    0.38182   0.27304   0.85189   0.00000  Uiso   1.00
Cl734  Cl    0.11818   0.06029   0.81478   0.00000  Uiso   1.00
Cl735  Cl    0.36879   0.06311   0.83120   0.00000  Uiso   1.00
Cl736  Cl    0.13121   0.27023   0.83546   0.00000  Uiso   1.00
C737   C     0.43522   0.02750   0.74999   0.00000  Uiso   1.00
O738   O     0.40669   0.03531   0.71090   0.00000  Uiso   1.00
O739   O     0.43850   0.31010   0.75931   0.00000  Uiso   1.00
H740   H     0.41546   0.28318   0.73102   0.00000  Uiso   1.00
C741   C     0.06478   0.30583   0.91668   0.00000  Uiso   1.00
O742   O     0.09331   0.29803   0.95576   0.00000  Uiso   1.00
O743   O     0.06150   0.02323   0.90736   0.00000  Uiso   1.00
H744   H     0.08454   0.05015   0.93565   0.00000  Uiso   1.00
C745   C     0.02957   0.02628   0.74776   0.00000  Uiso   1.00
O746   O     0.04536   0.03238   0.70207   0.00000  Uiso   1.00
O747   O     0.02829   0.31071   0.76327   0.00000  Uiso   1.00
H748   H     0.04103   0.28316   0.73266   0.00000  Uiso   1.00
C749   C     0.47043   0.30705   0.91891   0.00000  Uiso   1.00
O750   O     0.45464   0.30096   0.96459   0.00000  Uiso   1.00
O751   O     0.47171   0.02262   0.90340   0.00000  Uiso   1.00
H752   H     0.45897   0.05017   0.93400   0.00000  Uiso   1.00
Cl753  Cl    0.19788   0.10438   0.96842   0.00000  Uiso   1.00
Cl754  Cl    0.30212   0.22895   0.69825   0.00000  Uiso   1.00
C755   C     0.74844   0.06673   0.81792   0.00000  Uiso   1.00
C756   C     0.75156   0.26660   0.84875   0.00000  Uiso   1.00
C757   C     0.51282   0.07169   0.78715   0.00000  Uiso   1.00
C758   C     0.98718   0.26164   0.87951   0.00000  Uiso   1.00
C759   C     0.74762   0.01079   0.80935   0.00000  Uiso   1.00
C760   C     0.75238   0.32254   0.85732   0.00000  Uiso   1.00
C761   C     0.66472   0.16618   0.83296   0.00000  Uiso   1.00
C762   C     0.83528   0.16716   0.83371   0.00000  Uiso   1.00
C763   C     0.91030   0.21528   0.84734   0.00000  Uiso   1.00
C764   C     0.58970   0.11806   0.81933   0.00000  Uiso   1.00
C765   C     0.88360   0.16748   0.83482   0.00000  Uiso   1.00
C766   C     0.61640   0.16586   0.83185   0.00000  Uiso   1.00
C767   C     0.90247   0.11982   0.82481   0.00000  Uiso   1.00
C768   C     0.59753   0.21351   0.84185   0.00000  Uiso   1.00
C769   C     0.94823   0.11907   0.81592   0.00000  Uiso   1.00
C770   C     0.55177   0.21427   0.85075   0.00000  Uiso   1.00
C771   C     0.97657   0.16698   0.83390   0.00000  Uiso   1.00
C772   C     0.52343   0.16635   0.83277   0.00000  Uiso   1.00
C773   C     0.95789   0.21544   0.85337   0.00000  Uiso   1.00
C774   C     0.54211   0.11789   0.81330   0.00000  Uiso   1.00
C775   C     0.96592   0.07241   0.78796   0.00000  Uiso   1.00
C776   C     0.53408   0.26092   0.87871   0.00000  Uiso   1.00
Cu777  Cu    0.75500   0.17246   0.89479   0.00000  Uiso   1.00
Cu778  Cu    0.74499   0.16087   0.77187   0.00000  Uiso   1.00
H779   H     0.74315   0.32055   0.76299   0.00000  Uiso   1.00
H780   H     0.75685   0.01279   0.90367   0.00000  Uiso   1.00
N781   N     0.73744   0.15214   0.67951   0.00000  Uiso   1.00
N782   N     0.76255   0.18119   0.98716   0.00000  Uiso   1.00
O783   O     0.75325   0.09538   0.87326   0.00000  Uiso   1.00
O784   O     0.74674   0.23796   0.79341   0.00000  Uiso   1.00
O785   O     0.74480   0.08559   0.76945   0.00000  Uiso   1.00
O786   O     0.75520   0.24774   0.89721   0.00000  Uiso   1.00
O787   O     0.68935   0.17155   0.88524   0.00000  Uiso   1.00
O788   O     0.81064   0.16179   0.78143   0.00000  Uiso   1.00
O789   O     0.68090   0.16176   0.78143   0.00000  Uiso   1.00
O790   O     0.81910   0.17157   0.88523   0.00000  Uiso   1.00
Cl791  Cl    0.88182   0.27304   0.85189   0.00000  Uiso   1.00
Cl792  Cl    0.61818   0.06029   0.81478   0.00000  Uiso   1.00
Cl793  Cl    0.86879   0.06311   0.83120   0.00000  Uiso   1.00
Cl794  Cl    0.63121   0.27023   0.83546   0.00000  Uiso   1.00
C795   C     0.93522   0.02750   0.74999   0.00000  Uiso   1.00
O796   O     0.90669   0.03531   0.71090   0.00000  Uiso   1.00
O797   O     0.93850   0.31010   0.75931   0.00000  Uiso   1.00
H798   H     0.91546   0.28318   0.73102   0.00000  Uiso   1.00
C799   C     0.56478   0.30583   0.91668   0.00000  Uiso   1.00
O800   O     0.59331   0.29803   0.95576   0.00000  Uiso   1.00
O801   O     0.56150   0.02323   0.90736   0.00000  Uiso   1.00
H802   H     0.58454   0.05015   0.93565   0.00000  Uiso   1.00
C803   C     0.52957   0.02628   0.74776   0.00000  Uiso   1.00
O804   O     0.54536   0.03238   0.70207   0.00000  Uiso   1.00
O805   O     0.52829   0.31071   0.76327   0.00000  Uiso   1.00
H806   H     0.54103   0.28316   0.73266   0.00000  Uiso   1.00
C807   C     0.97043   0.30705   0.91891   0.00000  Uiso   1.00
O808   O     0.95464   0.30096   0.96459   0.00000  Uiso   1.00
O809   O     0.97171   0.02262   0.90340   0.00000  Uiso   1.00
H810   H     0.95897   0.05017   0.93400   0.00000  Uiso   1.00
Cl811  Cl    0.69788   0.10438   0.96842   0.00000  Uiso   1.00
Cl812  Cl    0.80212   0.22895   0.69825   0.00000  Uiso   1.00
C813   C     0.24844   0.40006   0.81792   0.00000  Uiso   1.00
C814   C     0.25156   0.59994   0.84875   0.00000  Uiso   1.00
C815   C     0.01282   0.40502   0.78715   0.00000  Uiso   1.00
C816   C     0.48718   0.59498   0.87951   0.00000  Uiso   1.00
C817   C     0.24762   0.34413   0.80935   0.00000  Uiso   1.00
C818   C     0.25238   0.65587   0.85732   0.00000  Uiso   1.00
C819   C     0.16472   0.49951   0.83296   0.00000  Uiso   1.00
C820   C     0.33528   0.50049   0.83371   0.00000  Uiso   1.00
C821   C     0.41030   0.54861   0.84734   0.00000  Uiso   1.00
C822   C     0.08970   0.45139   0.81933   0.00000  Uiso   1.00
C823   C     0.38360   0.50081   0.83482   0.00000  Uiso   1.00
C824   C     0.11640   0.49919   0.83185   0.00000  Uiso   1.00
C825   C     0.40247   0.45315   0.82481   0.00000  Uiso   1.00
C826   C     0.09753   0.54685   0.84185   0.00000  Uiso   1.00
C827   C     0.44823   0.45240   0.81592   0.00000  Uiso   1.00
C828   C     0.05177   0.54760   0.85075   0.00000  Uiso   1.00
C829   C     0.47657   0.50032   0.83390   0.00000  Uiso   1.00
C830   C     0.02343   0.49968   0.83277   0.00000  Uiso   1.00
C831   C     0.45789   0.54877   0.85337   0.00000  Uiso   1.00
C832   C     0.04211   0.45122   0.81330   0.00000  Uiso   1.00
C833   C     0.46592   0.40575   0.78796   0.00000  Uiso   1.00
C834   C     0.03408   0.59425   0.87871   0.00000  Uiso   1.00
Cu835  Cu    0.25500   0.50579   0.89479   0.00000  Uiso   1.00
Cu836  Cu    0.24499   0.49421   0.77187   0.00000  Uiso   1.00
H837   H     0.24315   0.65388   0.76299   0.00000  Uiso   1.00
H838   H     0.25685   0.34612   0.90367   0.00000  Uiso   1.00
N839   N     0.23744   0.48547   0.67951   0.00000  Uiso   1.00
N840   N     0.26255   0.51453   0.98716   0.00000  Uiso   1.00
O841   O     0.25325   0.42871   0.87326   0.00000  Uiso   1.00
O842   O     0.24674   0.57129   0.79341   0.00000  Uiso   1.00
O843   O     0.24480   0.41892   0.76945   0.00000  Uiso   1.00
O844   O     0.25520   0.58108   0.89721   0.00000  Uiso   1.00
O845   O     0.18935   0.50488   0.88524   0.00000  Uiso   1.00
O846   O     0.31064   0.49512   0.78143   0.00000  Uiso   1.00
O847   O     0.18090   0.49510   0.78143   0.00000  Uiso   1.00
O848   O     0.31910   0.50490   0.88523   0.00000  Uiso   1.00
Cl849  Cl    0.38182   0.60638   0.85189   0.00000  Uiso   1.00
Cl850  Cl    0.11818   0.39362   0.81478   0.00000  Uiso   1.00
Cl851  Cl    0.36879   0.39644   0.83120   0.00000  Uiso   1.00
Cl852  Cl    0.13121   0.60356   0.83546   0.00000  Uiso   1.00
C853   C     0.43522   0.36084   0.74999   0.00000  Uiso   1.00
O854   O     0.40669   0.36864   0.71090   0.00000  Uiso   1.00
O855   O     0.43850   0.64344   0.75931   0.00000  Uiso   1.00
H856   H     0.41546   0.61651   0.73102   0.00000  Uiso   1.00
C857   C     0.06478   0.63916   0.91668   0.00000  Uiso   1.00
O858   O     0.09331   0.63136   0.95576   0.00000  Uiso   1.00
O859   O     0.06150   0.35656   0.90736   0.00000  Uiso   1.00
H860   H     0.08454   0.38349   0.93565   0.00000  Uiso   1.00
C861   C     0.02957   0.35961   0.74776   0.00000  Uiso   1.00
O862   O     0.04536   0.36571   0.70207   0.00000  Uiso   1.00
O863   O     0.02829   0.64405   0.76327   0.00000  Uiso   1.00
H864   H     0.04103   0.61649   0.73266   0.00000  Uiso   1.00
C865   C     0.47043   0.64039   0.91891   0.00000  Uiso   1.00
O866   O     0.45464   0.63429   0.96459   0.00000  Uiso   1.00
O867   O     0.47171   0.35595   0.90340   0.00000  Uiso   1.00
H868   H     0.45897   0.38351   0.93400   0.00000  Uiso   1.00
Cl869  Cl    0.19788   0.43772   0.96842   0.00000  Uiso   1.00
Cl870  Cl    0.30212   0.56228   0.69825   0.00000  Uiso   1.00
C871   C     0.74844   0.40006   0.81792   0.00000  Uiso   1.00
C872   C     0.75156   0.59994   0.84875   0.00000  Uiso   1.00
C873   C     0.51282   0.40502   0.78715   0.00000  Uiso   1.00
C874   C     0.98718   0.59498   0.87951   0.00000  Uiso   1.00
C875   C     0.74762   0.34413   0.80935   0.00000  Uiso   1.00
C876   C     0.75238   0.65587   0.85732   0.00000  Uiso   1.00
C877   C     0.66472   0.49951   0.83296   0.00000  Uiso   1.00
C878   C     0.83528   0.50049   0.83371   0.00000  Uiso   1.00
C879   C     0.91030   0.54861   0.84734   0.00000  Uiso   1.00
C880   C     0.58970   0.45139   0.81933   0.00000  Uiso   1.00
C881   C     0.88360   0.50081   0.83482   0.00000  Uiso   1.00
C882   C     0.61640   0.49919   0.83185   0.00000  Uiso   1.00
C883   C     0.90247   0.45315   0.82481   0.00000  Uiso   1.00
C884   C     0.59753   0.54685   0.84185   0.00000  Uiso   1.00
C885   C     0.94823   0.45240   0.81592   0.00000  Uiso   1.00
C886   C     0.55177   0.54760   0.85075   0.00000  Uiso   1.00
C887   C     0.97657   0.50032   0.83390   0.00000  Uiso   1.00
C888   C     0.52343   0.49968   0.83277   0.00000  Uiso   1.00
C889   C     0.95789   0.54877   0.85337   0.00000  Uiso   1.00
C890   C     0.54211   0.45122   0.81330   0.00000  Uiso   1.00
C891   C     0.96592   0.40575   0.78796   0.00000  Uiso   1.00
C892   C     0.53408   0.59425   0.87871   0.00000  Uiso   1.00
Cu893  Cu    0.75500   0.50579   0.89479   0.00000  Uiso   1.00
Cu894  Cu    0.74499   0.49421   0.77187   0.00000  Uiso   1.00
H895   H     0.74315   0.65388   0.76299   0.00000  Uiso   1.00
H896   H     0.75685   0.34612   0.90367   0.00000  Uiso   1.00
N897   N     0.73744   0.48547   0.67951   0.00000  Uiso   1.00
N898   N     0.76255   0.51453   0.98716   0.00000  Uiso   1.00
O899   O     0.75325   0.42871   0.87326   0.00000  Uiso   1.00
O900   O     0.74674   0.57129   0.79341   0.00000  Uiso   1.00
O901   O     0.74480   0.41892   0.76945   0.00000  Uiso   1.00
O902   O     0.75520   0.58108   0.89721   0.00000  Uiso   1.00
O903   O     0.68935   0.50488   0.88524   0.00000  Uiso   1.00
O904   O     0.81064   0.49512   0.78143   0.00000  Uiso   1.00
O905   O     0.68090   0.49510   0.78143   0.00000  Uiso   1.00
O906   O     0.81910   0.50490   0.88523   0.00000  Uiso   1.00
Cl907  Cl    0.88182   0.60638   0.85189   0.00000  Uiso   1.00
Cl908  Cl    0.61818   0.39362   0.81478   0.00000  Uiso   1.00
Cl909  Cl    0.86879   0.39644   0.83120   0.00000  Uiso   1.00
Cl910  Cl    0.63121   0.60356   0.83546   0.00000  Uiso   1.00
C911   C     0.93522   0.36084   0.74999   0.00000  Uiso   1.00
O912   O     0.90669   0.36864   0.71090   0.00000  Uiso   1.00
O913   O     0.93850   0.64344   0.75931   0.00000  Uiso   1.00
H914   H     0.91546   0.61651   0.73102   0.00000  Uiso   1.00
C915   C     0.56478   0.63916   0.91668   0.00000  Uiso   1.00
O916   O     0.59331   0.63136   0.95576   0.00000  Uiso   1.00
O917   O     0.56150   0.35656   0.90736   0.00000  Uiso   1.00
H918   H     0.58454   0.38349   0.93565   0.00000  Uiso   1.00
C919   C     0.52957   0.35961   0.74776   0.00000  Uiso   1.00
O920   O     0.54536   0.36571   0.70207   0.00000  Uiso   1.00
O921   O     0.52829   0.64405   0.76327   0.00000  Uiso   1.00
H922   H     0.54103   0.61649   0.73266   0.00000  Uiso   1.00
C923   C     0.97043   0.64039   0.91891   0.00000  Uiso   1.00
O924   O     0.95464   0.63429   0.96459   0.00000  Uiso   1.00
O925   O     0.97171   0.35595   0.90340   0.00000  Uiso   1.00
H926   H     0.95897   0.38351   0.93400   0.00000  Uiso   1.00
Cl927  Cl    0.69788   0.43772   0.96842   0.00000  Uiso   1.00
Cl928  Cl    0.80212   0.56228   0.69825   0.00000  Uiso   1.00
C929   C     0.24844   0.73340   0.81792   0.00000  Uiso   1.00
C930   C     0.25156   0.93327   0.84875   0.00000  Uiso   1.00
C931   C     0.01282   0.73836   0.78715   0.00000  Uiso   1.00
C932   C     0.48718   0.92831   0.87951   0.00000  Uiso   1.00
C933   C     0.24762   0.67746   0.80935   0.00000  Uiso   1.00
C934   C     0.25238   0.98921   0.85732   0.00000  Uiso   1.00
C935   C     0.16472   0.83284   0.83296   0.00000  Uiso   1.00
C936   C     0.33528   0.83382   0.83371   0.00000  Uiso   1.00
C937   C     0.41030   0.88194   0.84734   0.00000  Uiso   1.00
C938   C     0.08970   0.78472   0.81933   0.00000  Uiso   1.00
C939   C     0.38360   0.83414   0.83482   0.00000  Uiso   1.00
C940   C     0.11640   0.83252   0.83185   0.00000  Uiso   1.00
C941   C     0.40247   0.78648   0.82481   0.00000  Uiso   1.00
C942   C     0.09753   0.88018   0.84185   0.00000  Uiso   1.00
C943   C     0.44823   0.78573   0.81592   0.00000  Uiso   1.00
C944   C     0.05177   0.88093   0.85075   0.00000  Uiso   1.00
C945   C     0.47657   0.83365   0.83390   0.00000  Uiso   1.00
C946   C     0.02343   0.83302   0.83277   0.00000  Uiso   1.00
C947   C     0.45789   0.88211   0.85337   0.00000  Uiso   1.00
C948   C     0.04211   0.78456   0.81330   0.00000  Uiso   1.00
C949   C     0.46592   0.73908   0.78796   0.00000  Uiso   1.00
C950   C     0.03408   0.92759   0.87871   0.00000  Uiso   1.00
Cu951  Cu    0.25500   0.83913   0.89479   0.00000  Uiso   1.00
Cu952  Cu    0.24499   0.82754   0.77187   0.00000  Uiso   1.00
H953   H     0.24315   0.98721   0.76299   0.00000  Uiso   1.00
H954   H     0.25685   0.67945   0.90367   0.00000  Uiso   1.00
N955   N     0.23744   0.81881   0.67951   0.00000  Uiso   1.00
N956   N     0.26255   0.84786   0.98716   0.00000  Uiso   1.00
O957   O     0.25325   0.76204   0.87326   0.00000  Uiso   1.00
O958   O     0.24674   0.90462   0.79341   0.00000  Uiso   1.00
O959   O     0.24480   0.75226   0.76945   0.00000  Uiso   1.00
O960   O     0.25520   0.91441   0.89721   0.00000  Uiso   1.00
O961   O     0.18935   0.83821   0.88524   0.00000  Uiso   1.00
O962   O     0.31064   0.82845   0.78143   0.00000  Uiso   1.00
O963   O     0.18090   0.82843   0.78143   0.00000  Uiso   1.00
O964   O     0.31910   0.83824   0.88523   0.00000  Uiso   1.00
Cl965  Cl    0.38182   0.93971   0.85189   0.00000  Uiso   1.00
Cl966  Cl    0.11818   0.72696   0.81478   0.00000  Uiso   1.00
Cl967  Cl    0.36879   0.72977   0.83120   0.00000  Uiso   1.00
Cl968  Cl    0.13121   0.93689   0.83546   0.00000  Uiso   1.00
C969   C     0.43522   0.69417   0.74999   0.00000  Uiso   1.00
O970   O     0.40669   0.70197   0.71090   0.00000  Uiso   1.00
O971   O     0.43850   0.97677   0.75931   0.00000  Uiso   1.00
H972   H     0.41546   0.94985   0.73102   0.00000  Uiso   1.00
C973   C     0.06478   0.97250   0.91668   0.00000  Uiso   1.00
O974   O     0.09331   0.96469   0.95576   0.00000  Uiso   1.00
O975   O     0.06150   0.68990   0.90736   0.00000  Uiso   1.00
H976   H     0.08454   0.71682   0.93565   0.00000  Uiso   1.00
C977   C     0.02957   0.69295   0.74776   0.00000  Uiso   1.00
O978   O     0.04536   0.69904   0.70207   0.00000  Uiso   1.00
O979   O     0.02829   0.97738   0.76327   0.00000  Uiso   1.00
H980   H     0.04103   0.94983   0.73266   0.00000  Uiso   1.00
C981   C     0.47043   0.97372   0.91891   0.00000  Uiso   1.00
O982   O     0.45464   0.96762   0.96459   0.00000  Uiso   1.00
O983   O     0.47171   0.68928   0.90340   0.00000  Uiso   1.00
H984   H     0.45897   0.71684   0.93400   0.00000  Uiso   1.00
Cl985  Cl    0.19788   0.77105   0.96842   0.00000  Uiso   1.00
Cl986  Cl    0.30212   0.89562   0.69825   0.00000  Uiso   1.00
C987   C     0.74844   0.73340   0.81792   0.00000  Uiso   1.00
C988   C     0.75156   0.93327   0.84875   0.00000  Uiso   1.00
C989   C     0.51282   0.73836   0.78715   0.00000  Uiso   1.00
C990   C     0.98718   0.92831   0.87951   0.00000  Uiso   1.00
C991   C     0.74762   0.67746   0.80935   0.00000  Uiso   1.00
C992   C     0.75238   0.98921   0.85732   0.00000  Uiso   1.00
C993   C     0.66472   0.83284   0.83296   0.00000  Uiso   1.00
C994   C     0.83528   0.83382   0.83371   0.00000  Uiso   1.00
C995   C     0.91030   0.88194   0.84734   0.00000  Uiso   1.00
C996   C     0.58970   0.78472   0.81933   0.00000  Uiso   1.00
C997   C     0.88360   0.83414   0.83482   0.00000  Uiso   1.00
C998   C     0.61640   0.83252   0.83185   0.00000  Uiso   1.00
C999   C     0.90247   0.78648   0.82481   0.00000  Uiso   1.00
C1000  C     0.59753   0.88018   0.84185   0.00000  Uiso   1.00
C1001  C     0.94823   0.78573   0.81592   0.00000  Uiso   1.00
C1002  C     0.55177   0.88093   0.85075   0.00000  Uiso   1.00
C1003  C     0.97657   0.83365   0.83390   0.00000  Uiso   1.00
C1004  C     0.52343   0.83302   0.83277   0.00000  Uiso   1.00
C1005  C     0.95789   0.88211   0.85337   0.00000  Uiso   1.00
C1006  C     0.54211   0.78456   0.81330   0.00000  Uiso   1.00
C1007  C     0.96592   0.73908   0.78796   0.00000  Uiso   1.00
C1008  C     0.53408   0.92759   0.87871   0.00000  Uiso   1.00
Cu1009 Cu    0.75500   0.83913   0.89479   0.00000  Uiso   1.00
Cu1010 Cu    0.74499   0.82754   0.77187   0.00000  Uiso   1.00
H1011  H     0.74315   0.98721   0.76299   0.00000  Uiso   1.00
H1012  H     0.75685   0.67945   0.90367   0.00000  Uiso   1.00
N1013  N     0.73744   0.81881   0.67951   0.00000  Uiso   1.00
N1014  N     0.76255   0.84786   0.98716   0.00000  Uiso   1.00
O1015  O     0.75325   0.76204   0.87326   0.00000  Uiso   1.00
O1016  O     0.74674   0.90462   0.79341   0.00000  Uiso   1.00
O1017  O     0.74480   0.75226   0.76945   0.00000  Uiso   1.00
O1018  O     0.75520   0.91441   0.89721   0.00000  Uiso   1.00
O1019  O     0.68935   0.83821   0.88524   0.00000  Uiso   1.00
O1020  O     0.81064   0.82845   0.78143   0.00000  Uiso   1.00
O1021  O     0.68090   0.82843   0.78143   0.00000  Uiso   1.00
O1022  O     0.81910   0.83824   0.88523   0.00000  Uiso   1.00
Cl1023 Cl    0.88182   0.93971   0.85189   0.00000  Uiso   1.00
Cl1024 Cl    0.61818   0.72696   0.81478   0.00000  Uiso   1.00
Cl1025 Cl    0.86879   0.72977   0.83120   0.00000  Uiso   1.00
Cl1026 Cl    0.63121   0.93689   0.83546   0.00000  Uiso   1.00
C1027  C     0.93522   0.69417   0.74999   0.00000  Uiso   1.00
O1028  O     0.90669   0.70197   0.71090   0.00000  Uiso   1.00
O1029  O     0.93850   0.97677   0.75931   0.00000  Uiso   1.00
H1030  H     0.91546   0.94985   0.73102   0.00000  Uiso   1.00
C1031  C     0.56478   0.97250   0.91668   0.00000  Uiso   1.00
O1032  O     0.59331   0.96469   0.95576   0.00000  Uiso   1.00
O1033  O     0.56150   0.68990   0.90736   0.00000  Uiso   1.00
H1034  H     0.58454   0.71682   0.93565   0.00000  Uiso   1.00
C1035  C     0.52957   0.69295   0.74776   0.00000  Uiso   1.00
O1036  O     0.54536   0.69904   0.70207   0.00000  Uiso   1.00
O1037  O     0.52829   0.97738   0.76327   0.00000  Uiso   1.00
H1038  H     0.54103   0.94983   0.73266   0.00000  Uiso   1.00
C1039  C     0.97043   0.97372   0.91891   0.00000  Uiso   1.00
O1040  O     0.95464   0.96762   0.96459   0.00000  Uiso   1.00
O1041  O     0.97171   0.68928   0.90340   0.00000  Uiso   1.00
H1042  H     0.95897   0.71684   0.93400   0.00000  Uiso   1.00
Cl1043 Cl    0.69788   0.77105   0.96842   0.00000  Uiso   1.00
Cl1044 Cl    0.80212   0.89562   0.69825   0.00000  Uiso   1.00
loop_
_geom_bond_atom_site_label_1
_geom_bond_atom_site_label_2
_geom_bond_distance
_geom_bond_site_symmetry_2
_ccdc_geom_bond_type
C1     O31     1.295   .     A
C1     C5      1.433   .     S
C1     O29     1.303   .     A
C2     C6      1.433   .     S
C2     O30     1.303   .     A
C2     O32     1.295   .     A
C3     C49     1.478   .     S
C3     C20     1.420   .     A
C3     C79     1.410   1_455 S
C4     C53     1.478   .     S
C4     C19     1.420   .     A
C4     C80     1.410   .     S
C5     C238    1.328   1_545 S
C5     H257    1.087   1_545 S
C6     C121    1.328   .     S
C6     H142    1.087   .     S
C7     O33     1.302   .     A
C7     C12     1.446   .     S
C7     O35     1.298   .     A
C8     C11     1.446   .     S
C8     O36     1.298   .     A
C8     O34     1.302   .     A
C9     Cl37    1.777   .     S
C9     C11     1.395   .     A
C9     C19     1.418   .     A
C10    Cl38    1.777   .     S
C10    C12     1.395   .     A
C10    C20     1.418   .     A
C11    C13     1.390   .     A
C12    C14     1.390   .     A
C13    C15     1.409   .     A
C13    Cl39    1.777   .     S
C14    C16     1.409   .     A
C14    Cl40    1.777   .     S
C15    C21     1.416   .     A
C15    C17     1.421   .     A
C16    C18     1.421   .     A
C16    C22     1.416   .     A
C17    C19     1.424   .     A
C17    C76     1.410   .     S
C18    C20     1.424   .     A
C18    C75     1.410   1_455 S
C21    C41     1.488   .     S
C21    C61     1.410   .     S
C22    C45     1.488   .     S
C22    C62     1.410   1_455 S
Cu23   Cu24    2.718   .     S
Cu23   O32     1.959   .     S
Cu23   O29     1.967   .     S
Cu23   O36     1.958   .     S
Cu23   O33     1.955   .     S
Cu23   N28     2.042   .     S
Cu24   N27     2.042   .     S
Cu24   O31     1.959   .     S
Cu24   O35     1.958   .     S
Cu24   O30     1.967   .     S
Cu24   O34     1.955   .     S
H25    C121    1.087   .     S
H26    C238    1.087   1_545 S
N27    N724    1.299   1_554 S
N27    Cl753   1.726   1_554 S
N28    N375    1.299   .     S
N28    Cl406   1.726   .     S
C41    O42     1.224   .     D
C41    O275    1.397   1_545 S
O43    H44     1.014   .     S
O43    C157    1.397   .     S
C45    O46     1.224   .     D
C45    O163    1.397   .     S
O47    H48     1.014   .     S
O47    C277    1.397   1_545 S
C49    O50     1.220   .     D
C49    O283    1.397   1_545 S
O51    H52     1.014   .     S
O51    C165    1.397   .     S
C53    O54     1.220   .     D
C53    O171    1.397   .     S
O55    H56     1.014   .     S
O55    C285    1.397   1_545 S
Cl57   N375    1.726   .     S
Cl58   N724    1.726   1_554 S
C59    O89     1.295   .     A
C59    C63     1.433   .     S
C59    O87     1.303   .     A
C60    C64     1.433   .     S
C60    O88     1.303   .     A
C60    O90     1.295   .     A
C61    C107    1.478   .     S
C61    C78     1.420   .     A
C62    C111    1.478   .     S
C62    C77     1.420   .     A
C62    C22     1.410   1_655 S
C63    C296    1.328   1_545 S
C63    H315    1.087   1_545 S
C64    C179    1.328   .     S
C64    H200    1.087   .     S
C65    O91     1.302   .     A
C65    C70     1.446   .     S
C65    O93     1.298   .     A
C66    C69     1.446   .     S
C66    O94     1.298   .     A
C66    O92     1.302   .     A
C67    Cl95    1.777   .     S
C67    C69     1.395   .     A
C67    C77     1.418   .     A
C68    Cl96    1.777   .     S
C68    C70     1.395   .     A
C68    C78     1.418   .     A
C69    C71     1.390   .     A
C70    C72     1.390   .     A
C71    C73     1.409   .     A
C71    Cl97    1.777   .     S
C72    C74     1.409   .     A
C72    Cl98    1.777   .     S
C73    C79     1.416   .     A
C73    C75     1.421   .     A
C74    C76     1.421   .     A
C74    C80     1.416   .     A
C75    C77     1.424   .     A
C75    C18     1.410   1_655 S
C76    C78     1.424   .     A
C79    C99     1.488   .     S
C79    C3      1.410   1_655 S
C80    C103    1.488   .     S
Cu81   Cu82    2.718   .     S
Cu81   O90     1.959   .     S
Cu81   O87     1.967   .     S
Cu81   O94     1.958   .     S
Cu81   O91     1.955   .     S
Cu81   N86     2.042   .     S
Cu82   N85     2.042   .     S
Cu82   O89     1.959   .     S
Cu82   O93     1.958   .     S
Cu82   O88     1.967   .     S
Cu82   O92     1.955   .     S
H83    C179    1.087   .     S
H84    C296    1.087   1_545 S
N85    N782    1.299   1_554 S
N85    Cl811   1.726   1_554 S
N86    N433    1.299   .     S
N86    Cl464   1.726   .     S
C99    O100    1.224   .     D
C99    O333    1.397   1_545 S
O101   H102    1.014   .     S
O101   C215    1.397   .     S
C103   O104    1.224   .     D
C103   O221    1.397   .     S
O105   H106    1.014   .     S
O105   C335    1.397   1_545 S
C107   O108    1.220   .     D
C107   O341    1.397   1_545 S
O109   H110    1.014   .     S
O109   C223    1.397   .     S
C111   O112    1.220   .     D
C111   O229    1.397   .     S
O113   H114    1.014   .     S
O113   C343    1.397   1_545 S
Cl115  N433    1.726   .     S
Cl116  N782    1.726   1_554 S
C117   O147    1.295   .     A
C117   C121    1.433   .     S
C117   O145    1.303   .     A
C118   C122    1.433   .     S
C118   O146    1.303   .     A
C118   O148    1.295   .     A
C119   C165    1.478   .     S
C119   C136    1.420   .     A
C119   C195    1.410   1_455 S
C120   C169    1.478   .     S
C120   C135    1.420   .     A
C120   C196    1.410   .     S
C122   C237    1.328   .     S
C122   H258    1.087   .     S
C123   O149    1.302   .     A
C123   C128    1.446   .     S
C123   O151    1.298   .     A
C124   C127    1.446   .     S
C124   O152    1.298   .     A
C124   O150    1.302   .     A
C125   Cl153   1.777   .     S
C125   C127    1.395   .     A
C125   C135    1.418   .     A
C126   Cl154   1.777   .     S
C126   C128    1.395   .     A
C126   C136    1.418   .     A
C127   C129    1.390   .     A
C128   C130    1.390   .     A
C129   C131    1.409   .     A
C129   Cl155   1.777   .     S
C130   C132    1.409   .     A
C130   Cl156   1.777   .     S
C131   C137    1.416   .     A
C131   C133    1.421   .     A
C132   C134    1.421   .     A
C132   C138    1.416   .     A
C133   C135    1.424   .     A
C133   C192    1.410   .     S
C134   C136    1.424   .     A
C134   C191    1.410   1_455 S
C137   C157    1.488   .     S
C137   C177    1.410   .     S
C138   C161    1.488   .     S
C138   C178    1.410   1_455 S
Cu139  Cu140   2.718   .     S
Cu139  O148    1.959   .     S
Cu139  O145    1.967   .     S
Cu139  O152    1.958   .     S
Cu139  O149    1.955   .     S
Cu139  N144    2.042   .     S
Cu140  N143    2.042   .     S
Cu140  O147    1.959   .     S
Cu140  O151    1.958   .     S
Cu140  O146    1.967   .     S
Cu140  O150    1.955   .     S
H141   C237    1.087   .     S
N143   N840    1.299   1_554 S
N143   Cl869   1.726   1_554 S
N144   N491    1.299   .     S
N144   Cl522   1.726   .     S
C157   O158    1.224   .     D
O159   H160    1.014   .     S
O159   C273    1.397   .     S
C161   O162    1.224   .     D
C161   O279    1.397   .     S
O163   H164    1.014   .     S
C165   O166    1.220   .     D
O167   H168    1.014   .     S
O167   C281    1.397   .     S
C169   O170    1.220   .     D
C169   O287    1.397   .     S
O171   H172    1.014   .     S
Cl173  N491    1.726   .     S
Cl174  N840    1.726   1_554 S
C175   O205    1.295   .     A
C175   C179    1.433   .     S
C175   O203    1.303   .     A
C176   C180    1.433   .     S
C176   O204    1.303   .     A
C176   O206    1.295   .     A
C177   C223    1.478   .     S
C177   C194    1.420   .     A
C178   C227    1.478   .     S
C178   C193    1.420   .     A
C178   C138    1.410   1_655 S
C180   C295    1.328   .     S
C180   H316    1.087   .     S
C181   O207    1.302   .     A
C181   C186    1.446   .     S
C181   O209    1.298   .     A
C182   C185    1.446   .     S
C182   O210    1.298   .     A
C182   O208    1.302   .     A
C183   Cl211   1.777   .     S
C183   C185    1.395   .     A
C183   C193    1.418   .     A
C184   Cl212   1.777   .     S
C184   C186    1.395   .     A
C184   C194    1.418   .     A
C185   C187    1.390   .     A
C186   C188    1.390   .     A
C187   C189    1.409   .     A
C187   Cl213   1.777   .     S
C188   C190    1.409   .     A
C188   Cl214   1.777   .     S
C189   C195    1.416   .     A
C189   C191    1.421   .     A
C190   C192    1.421   .     A
C190   C196    1.416   .     A
C191   C193    1.424   .     A
C191   C134    1.410   1_655 S
C192   C194    1.424   .     A
C195   C215    1.488   .     S
C195   C119    1.410   1_655 S
C196   C219    1.488   .     S
Cu197  Cu198   2.718   .     S
Cu197  O206    1.959   .     S
Cu197  O203    1.967   .     S
Cu197  O210    1.958   .     S
Cu197  O207    1.955   .     S
Cu197  N202    2.042   .     S
Cu198  N201    2.042   .     S
Cu198  O205    1.959   .     S
Cu198  O209    1.958   .     S
Cu198  O204    1.967   .     S
Cu198  O208    1.955   .     S
H199   C295    1.087   .     S
N201   N898    1.299   1_554 S
N201   Cl927   1.726   1_554 S
N202   N549    1.299   .     S
N202   Cl580   1.726   .     S
C215   O216    1.224   .     D
O217   H218    1.014   .     S
O217   C331    1.397   .     S
C219   O220    1.224   .     D
C219   O337    1.397   .     S
O221   H222    1.014   .     S
C223   O224    1.220   .     D
O225   H226    1.014   .     S
O225   C339    1.397   .     S
C227   O228    1.220   .     D
C227   O345    1.397   .     S
O229   H230    1.014   .     S
Cl231  N549    1.726   .     S
Cl232  N898    1.726   1_554 S
C233   O263    1.295   .     A
C233   C237    1.433   .     S
C233   O261    1.303   .     A
C234   C238    1.433   .     S
C234   O262    1.303   .     A
C234   O264    1.295   .     A
C235   C281    1.478   .     S
C235   C252    1.420   .     A
C235   C311    1.410   1_455 S
C236   C285    1.478   .     S
C236   C251    1.420   .     A
C236   C312    1.410   .     S
C238   C5      1.328   1_565 S
C238   H26     1.087   1_565 S
C239   O265    1.302   .     A
C239   C244    1.446   .     S
C239   O267    1.298   .     A
C240   C243    1.446   .     S
C240   O268    1.298   .     A
C240   O266    1.302   .     A
C241   Cl269   1.777   .     S
C241   C243    1.395   .     A
C241   C251    1.418   .     A
C242   Cl270   1.777   .     S
C242   C244    1.395   .     A
C242   C252    1.418   .     A
C243   C245    1.390   .     A
C244   C246    1.390   .     A
C245   C247    1.409   .     A
C245   Cl271   1.777   .     S
C246   C248    1.409   .     A
C246   Cl272   1.777   .     S
C247   C253    1.416   .     A
C247   C249    1.421   .     A
C248   C250    1.421   .     A
C248   C254    1.416   .     A
C249   C251    1.424   .     A
C249   C308    1.410   .     S
C250   C252    1.424   .     A
C250   C307    1.410   1_455 S
C253   C273    1.488   .     S
C253   C293    1.410   .     S
C254   C277    1.488   .     S
C254   C294    1.410   1_455 S
Cu255  Cu256   2.718   .     S
Cu255  O264    1.959   .     S
Cu255  O261    1.967   .     S
Cu255  O268    1.958   .     S
Cu255  O265    1.955   .     S
Cu255  N260    2.042   .     S
Cu256  N259    2.042   .     S
Cu256  O263    1.959   .     S
Cu256  O267    1.958   .     S
Cu256  O262    1.967   .     S
Cu256  O266    1.955   .     S
H257   C5      1.087   1_565 S
N259   N956    1.299   1_554 S
N259   Cl985   1.726   1_554 S
N260   N607    1.299   .     S
N260   Cl638   1.726   .     S
C273   O274    1.224   .     D
O275   H276    1.014   .     S
O275   C41     1.397   1_565 S
C277   O278    1.224   .     D
C277   O47     1.397   1_565 S
O279   H280    1.014   .     S
C281   O282    1.220   .     D
O283   H284    1.014   .     S
O283   C49     1.397   1_565 S
C285   O286    1.220   .     D
C285   O55     1.397   1_565 S
O287   H288    1.014   .     S
Cl289  N607    1.726   .     S
Cl290  N956    1.726   1_554 S
C291   O321    1.295   .     A
C291   C295    1.433   .     S
C291   O319    1.303   .     A
C292   C296    1.433   .     S
C292   O320    1.303   .     A
C292   O322    1.295   .     A
C293   C339    1.478   .     S
C293   C310    1.420   .     A
C294   C343    1.478   .     S
C294   C309    1.420   .     A
C294   C254    1.410   1_655 S
C296   C63     1.328   1_565 S
C296   H84     1.087   1_565 S
C297   O323    1.302   .     A
C297   C302    1.446   .     S
C297   O325    1.298   .     A
C298   C301    1.446   .     S
C298   O326    1.298   .     A
C298   O324    1.302   .     A
C299   Cl327   1.777   .     S
C299   C301    1.395   .     A
C299   C309    1.418   .     A
C300   Cl328   1.777   .     S
C300   C302    1.395   .     A
C300   C310    1.418   .     A
C301   C303    1.390   .     A
C302   C304    1.390   .     A
C303   C305    1.409   .     A
C303   Cl329   1.777   .     S
C304   C306    1.409   .     A
C304   Cl330   1.777   .     S
C305   C311    1.416   .     A
C305   C307    1.421   .     A
C306   C308    1.421   .     A
C306   C312    1.416   .     A
C307   C309    1.424   .     A
C307   C250    1.410   1_655 S
C308   C310    1.424   .     A
C311   C331    1.488   .     S
C311   C235    1.410   1_655 S
C312   C335    1.488   .     S
Cu313  Cu314   2.718   .     S
Cu313  O322    1.959   .     S
Cu313  O319    1.967   .     S
Cu313  O326    1.958   .     S
Cu313  O323    1.955   .     S
Cu313  N318    2.042   .     S
Cu314  N317    2.042   .     S
Cu314  O321    1.959   .     S
Cu314  O325    1.958   .     S
Cu314  O320    1.967   .     S
Cu314  O324    1.955   .     S
H315   C63     1.087   1_565 S
N317   N1014   1.299   1_554 S
N317   Cl1043  1.726   1_554 S
N318   N665    1.299   .     S
N318   Cl696   1.726   .     S
C331   O332    1.224   .     D
O333   H334    1.014   .     S
O333   C99     1.397   1_565 S
C335   O336    1.224   .     D
C335   O105    1.397   1_565 S
O337   H338    1.014   .     S
C339   O340    1.220   .     D
O341   H342    1.014   .     S
O341   C107    1.397   1_565 S
C343   O344    1.220   .     D
C343   O113    1.397   1_565 S
O345   H346    1.014   .     S
Cl347  N665    1.726   .     S
Cl348  N1014   1.726   1_554 S
C349   O379    1.295   .     A
C349   C353    1.433   .     S
C349   O377    1.303   .     A
C350   C354    1.433   .     S
C350   O378    1.303   .     A
C350   O380    1.295   .     A
C351   C397    1.478   .     S
C351   C368    1.420   .     A
C351   C427    1.410   1_455 S
C352   C401    1.478   .     S
C352   C367    1.420   .     A
C352   C428    1.410   .     S
C353   C586    1.328   1_545 S
C353   H605    1.087   1_545 S
C354   C469    1.328   .     S
C354   H490    1.087   .     S
C355   O381    1.302   .     A
C355   C360    1.446   .     S
C355   O383    1.298   .     A
C356   C359    1.446   .     S
C356   O384    1.298   .     A
C356   O382    1.302   .     A
C357   Cl385   1.777   .     S
C357   C359    1.395   .     A
C357   C367    1.418   .     A
C358   Cl386   1.777   .     S
C358   C360    1.395   .     A
C358   C368    1.418   .     A
C359   C361    1.390   .     A
C360   C362    1.390   .     A
C361   C363    1.409   .     A
C361   Cl387   1.777   .     S
C362   C364    1.409   .     A
C362   Cl388   1.777   .     S
C363   C369    1.416   .     A
C363   C365    1.421   .     A
C364   C366    1.421   .     A
C364   C370    1.416   .     A
C365   C367    1.424   .     A
C365   C424    1.410   .     S
C366   C368    1.424   .     A
C366   C423    1.410   1_455 S
C369   C389    1.488   .     S
C369   C409    1.410   .     S
C370   C393    1.488   .     S
C370   C410    1.410   1_455 S
Cu371  Cu372   2.718   .     S
Cu371  O380    1.959   .     S
Cu371  O377    1.967   .     S
Cu371  O384    1.958   .     S
Cu371  O381    1.955   .     S
Cu371  N376    2.042   .     S
Cu372  N375    2.042   .     S
Cu372  O379    1.959   .     S
Cu372  O383    1.958   .     S
Cu372  O378    1.967   .     S
Cu372  O382    1.955   .     S
H373   C469    1.087   .     S
H374   C586    1.087   1_545 S
N376   N723    1.299   .     S
N376   Cl754   1.726   .     S
C389   O390    1.224   .     D
C389   O623    1.397   1_545 S
O391   H392    1.014   .     S
O391   C505    1.397   .     S
C393   O394    1.224   .     D
C393   O511    1.397   .     S
O395   H396    1.014   .     S
O395   C625    1.397   1_545 S
C397   O398    1.220   .     D
C397   O631    1.397   1_545 S
O399   H400    1.014   .     S
O399   C513    1.397   .     S
C401   O402    1.220   .     D
C401   O519    1.397   .     S
O403   H404    1.014   .     S
O403   C633    1.397   1_545 S
Cl405  N723    1.726   .     S
C407   O437    1.295   .     A
C407   C411    1.433   .     S
C407   O435    1.303   .     A
C408   C412    1.433   .     S
C408   O436    1.303   .     A
C408   O438    1.295   .     A
C409   C455    1.478   .     S
C409   C426    1.420   .     A
C410   C459    1.478   .     S
C410   C425    1.420   .     A
C410   C370    1.410   1_655 S
C411   C644    1.328   1_545 S
C411   H663    1.087   1_545 S
C412   C527    1.328   .     S
C412   H548    1.087   .     S
C413   O439    1.302   .     A
C413   C418    1.446   .     S
C413   O441    1.298   .     A
C414   C417    1.446   .     S
C414   O442    1.298   .     A
C414   O440    1.302   .     A
C415   Cl443   1.777   .     S
C415   C417    1.395   .     A
C415   C425    1.418   .     A
C416   Cl444   1.777   .     S
C416   C418    1.395   .     A
C416   C426    1.418   .     A
C417   C419    1.390   .     A
C418   C420    1.390   .     A
C419   C421    1.409   .     A
C419   Cl445   1.777   .     S
C420   C422    1.409   .     A
C420   Cl446   1.777   .     S
C421   C427    1.416   .     A
C421   C423    1.421   .     A
C422   C424    1.421   .     A
C422   C428    1.416   .     A
C423   C425    1.424   .     A
C423   C366    1.410   1_655 S
C424   C426    1.424   .     A
C427   C447    1.488   .     S
C427   C351    1.410   1_655 S
C428   C451    1.488   .     S
Cu429  Cu430   2.718   .     S
Cu429  O438    1.959   .     S
Cu429  O435    1.967   .     S
Cu429  O442    1.958   .     S
Cu429  O439    1.955   .     S
Cu429  N434    2.042   .     S
Cu430  N433    2.042   .     S
Cu430  O437    1.959   .     S
Cu430  O441    1.958   .     S
Cu430  O436    1.967   .     S
Cu430  O440    1.955   .     S
H431   C527    1.087   .     S
H432   C644    1.087   1_545 S
N434   N781    1.299   .     S
N434   Cl812   1.726   .     S
C447   O448    1.224   .     D
C447   O681    1.397   1_545 S
O449   H450    1.014   .     S
O449   C563    1.397   .     S
C451   O452    1.224   .     D
C451   O569    1.397   .     S
O453   H454    1.014   .     S
O453   C683    1.397   1_545 S
C455   O456    1.220   .     D
C455   O689    1.397   1_545 S
O457   H458    1.014   .     S
O457   C571    1.397   .     S
C459   O460    1.220   .     D
C459   O577    1.397   .     S
O461   H462    1.014   .     S
O461   C691    1.397   1_545 S
Cl463  N781    1.726   .     S
C465   O495    1.295   .     A
C465   C469    1.433   .     S
C465   O493    1.303   .     A
C466   C470    1.433   .     S
C466   O494    1.303   .     A
C466   O496    1.295   .     A
C467   C513    1.478   .     S
C467   C484    1.420   .     A
C467   C543    1.410   1_455 S
C468   C517    1.478   .     S
C468   C483    1.420   .     A
C468   C544    1.410   .     S
C470   C585    1.328   .     S
C470   H606    1.087   .     S
C471   O497    1.302   .     A
C471   C476    1.446   .     S
C471   O499    1.298   .     A
C472   C475    1.446   .     S
C472   O500    1.298   .     A
C472   O498    1.302   .     A
C473   Cl501   1.777   .     S
C473   C475    1.395   .     A
C473   C483    1.418   .     A
C474   Cl502   1.777   .     S
C474   C476    1.395   .     A
C474   C484    1.418   .     A
C475   C477    1.390   .     A
C476   C478    1.390   .     A
C477   C479    1.409   .     A
C477   Cl503   1.777   .     S
C478   C480    1.409   .     A
C478   Cl504   1.777   .     S
C479   C485    1.416   .     A
C479   C481    1.421   .     A
C480   C482    1.421   .     A
C480   C486    1.416   .     A
C481   C483    1.424   .     A
C481   C540    1.410   .     S
C482   C484    1.424   .     A
C482   C539    1.410   1_455 S
C485   C505    1.488   .     S
C485   C525    1.410   .     S
C486   C509    1.488   .     S
C486   C526    1.410   1_455 S
Cu487  Cu488   2.718   .     S
Cu487  O496    1.959   .     S
Cu487  O493    1.967   .     S
Cu487  O500    1.958   .     S
Cu487  O497    1.955   .     S
Cu487  N492    2.042   .     S
Cu488  N491    2.042   .     S
Cu488  O495    1.959   .     S
Cu488  O499    1.958   .     S
Cu488  O494    1.967   .     S
Cu488  O498    1.955   .     S
H489   C585    1.087   .     S
N492   N839    1.299   .     S
N492   Cl870   1.726   .     S
C505   O506    1.224   .     D
O507   H508    1.014   .     S
O507   C621    1.397   .     S
C509   O510    1.224   .     D
C509   O627    1.397   .     S
O511   H512    1.014   .     S
C513   O514    1.220   .     D
O515   H516    1.014   .     S
O515   C629    1.397   .     S
C517   O518    1.220   .     D
C517   O635    1.397   .     S
O519   H520    1.014   .     S
Cl521  N839    1.726   .     S
C523   O553    1.295   .     A
C523   C527    1.433   .     S
C523   O551    1.303   .     A
C524   C528    1.433   .     S
C524   O552    1.303   .     A
C524   O554    1.295   .     A
C525   C571    1.478   .     S
C525   C542    1.420   .     A
C526   C575    1.478   .     S
C526   C541    1.420   .     A
C526   C486    1.410   1_655 S
C528   C643    1.328   .     S
C528   H664    1.087   .     S
C529   O555    1.302   .     A
C529   C534    1.446   .     S
C529   O557    1.298   .     A
C530   C533    1.446   .     S
C530   O558    1.298   .     A
C530   O556    1.302   .     A
C531   Cl559   1.777   .     S
C531   C533    1.395   .     A
C531   C541    1.418   .     A
C532   Cl560   1.777   .     S
C532   C534    1.395   .     A
C532   C542    1.418   .     A
C533   C535    1.390   .     A
C534   C536    1.390   .     A
C535   C537    1.409   .     A
C535   Cl561   1.777   .     S
C536   C538    1.409   .     A
C536   Cl562   1.777   .     S
C537   C543    1.416   .     A
C537   C539    1.421   .     A
C538   C540    1.421   .     A
C538   C544    1.416   .     A
C539   C541    1.424   .     A
C539   C482    1.410   1_655 S
C540   C542    1.424   .     A
C543   C563    1.488   .     S
C543   C467    1.410   1_655 S
C544   C567    1.488   .     S
Cu545  Cu546   2.718   .     S
Cu545  O554    1.959   .     S
Cu545  O551    1.967   .     S
Cu545  O558    1.958   .     S
Cu545  O555    1.955   .     S
Cu545  N550    2.042   .     S
Cu546  N549    2.042   .     S
Cu546  O553    1.959   .     S
Cu546  O557    1.958   .     S
Cu546  O552    1.967   .     S
Cu546  O556    1.955   .     S
H547   C643    1.087   .     S
N550   N897    1.299   .     S
N550   Cl928   1.726   .     S
C563   O564    1.224   .     D
O565   H566    1.014   .     S
O565   C679    1.397   .     S
C567   O568    1.224   .     D
C567   O685    1.397   .     S
O569   H570    1.014   .     S
C571   O572    1.220   .     D
O573   H574    1.014   .     S
O573   C687    1.397   .     S
C575   O576    1.220   .     D
C575   O693    1.397   .     S
O577   H578    1.014   .     S
Cl579  N897    1.726   .     S
C581   O611    1.295   .     A
C581   C585    1.433   .     S
C581   O609    1.303   .     A
C582   C586    1.433   .     S
C582   O610    1.303   .     A
C582   O612    1.295   .     A
C583   C629    1.478   .     S
C583   C600    1.420   .     A
C583   C659    1.410   1_455 S
C584   C633    1.478   .     S
C584   C599    1.420   .     A
C584   C660    1.410   .     S
C586   C353    1.328   1_565 S
C586   H374    1.087   1_565 S
C587   O613    1.302   .     A
C587   C592    1.446   .     S
C587   O615    1.298   .     A
C588   C591    1.446   .     S
C588   O616    1.298   .     A
C588   O614    1.302   .     A
C589   Cl617   1.777   .     S
C589   C591    1.395   .     A
C589   C599    1.418   .     A
C590   Cl618   1.777   .     S
C590   C592    1.395   .     A
C590   C600    1.418   .     A
C591   C593    1.390   .     A
C592   C594    1.390   .     A
C593   C595    1.409   .     A
C593   Cl619   1.777   .     S
C594   C596    1.409   .     A
C594   Cl620   1.777   .     S
C595   C601    1.416   .     A
C595   C597    1.421   .     A
C596   C598    1.421   .     A
C596   C602    1.416   .     A
C597   C599    1.424   .     A
C597   C656    1.410   .     S
C598   C600    1.424   .     A
C598   C655    1.410   1_455 S
C601   C621    1.488   .     S
C601   C641    1.410   .     S
C602   C625    1.488   .     S
C602   C642    1.410   1_455 S
Cu603  Cu604   2.718   .     S
Cu603  O612    1.959   .     S
Cu603  O609    1.967   .     S
Cu603  O616    1.958   .     S
Cu603  O613    1.955   .     S
Cu603  N608    2.042   .     S
Cu604  N607    2.042   .     S
Cu604  O611    1.959   .     S
Cu604  O615    1.958   .     S
Cu604  O610    1.967   .     S
Cu604  O614    1.955   .     S
H605   C353    1.087   1_565 S
N608   N955    1.299   .     S
N608   Cl986   1.726   .     S
C621   O622    1.224   .     D
O623   H624    1.014   .     S
O623   C389    1.397   1_565 S
C625   O626    1.224   .     D
C625   O395    1.397   1_565 S
O627   H628    1.014   .     S
C629   O630    1.220   .     D
O631   H632    1.014   .     S
O631   C397    1.397   1_565 S
C633   O634    1.220   .     D
C633   O403    1.397   1_565 S
O635   H636    1.014   .     S
Cl637  N955    1.726   .     S
C639   O669    1.295   .     A
C639   C643    1.433   .     S
C639   O667    1.303   .     A
C640   C644    1.433   .     S
C640   O668    1.303   .     A
C640   O670    1.295   .     A
C641   C687    1.478   .     S
C641   C658    1.420   .     A
C642   C691    1.478   .     S
C642   C657    1.420   .     A
C642   C602    1.410   1_655 S
C644   C411    1.328   1_565 S
C644   H432    1.087   1_565 S
C645   O671    1.302   .     A
C645   C650    1.446   .     S
C645   O673    1.298   .     A
C646   C649    1.446   .     S
C646   O674    1.298   .     A
C646   O672    1.302   .     A
C647   Cl675   1.777   .     S
C647   C649    1.395   .     A
C647   C657    1.418   .     A
C648   Cl676   1.777   .     S
C648   C650    1.395   .     A
C648   C658    1.418   .     A
C649   C651    1.390   .     A
C650   C652    1.390   .     A
C651   C653    1.409   .     A
C651   Cl677   1.777   .     S
C652   C654    1.409   .     A
C652   Cl678   1.777   .     S
C653   C659    1.416   .     A
C653   C655    1.421   .     A
C654   C656    1.421   .     A
C654   C660    1.416   .     A
C655   C657    1.424   .     A
C655   C598    1.410   1_655 S
C656   C658    1.424   .     A
C659   C679    1.488   .     S
C659   C583    1.410   1_655 S
C660   C683    1.488   .     S
Cu661  Cu662   2.718   .     S
Cu661  O670    1.959   .     S
Cu661  O667    1.967   .     S
Cu661  O674    1.958   .     S
Cu661  O671    1.955   .     S
Cu661  N666    2.042   .     S
Cu662  N665    2.042   .     S
Cu662  O669    1.959   .     S
Cu662  O673    1.958   .     S
Cu662  O668    1.967   .     S
Cu662  O672    1.955   .     S
H663   C411    1.087   1_565 S
N666   N1013   1.299   .     S
N666   Cl1044  1.726   .     S
C679   O680    1.224   .     D
O681   H682    1.014   .     S
O681   C447    1.397   1_565 S
C683   O684    1.224   .     D
C683   O453    1.397   1_565 S
O685   H686    1.014   .     S
C687   O688    1.220   .     D
O689   H690    1.014   .     S
O689   C455    1.397   1_565 S
C691   O692    1.220   .     D
C691   O461    1.397   1_565 S
O693   H694    1.014   .     S
Cl695  N1013   1.726   .     S
C697   O727    1.295   .     A
C697   C701    1.433   .     S
C697   O725    1.303   .     A
C698   C702    1.433   .     S
C698   O726    1.303   .     A
C698   O728    1.295   .     A
C699   C745    1.478   .     S
C699   C716    1.420   .     A
C699   C775    1.410   1_455 S
C700   C749    1.478   .     S
C700   C715    1.420   .     A
C700   C776    1.410   .     S
C701   C934    1.328   1_545 S
C701   H953    1.087   1_545 S
C702   C817    1.328   .     S
C702   H838    1.087   .     S
C703   O729    1.302   .     A
C703   C708    1.446   .     S
C703   O731    1.298   .     A
C704   C707    1.446   .     S
C704   O732    1.298   .     A
C704   O730    1.302   .     A
C705   Cl733   1.777   .     S
C705   C707    1.395   .     A
C705   C715    1.418   .     A
C706   Cl734   1.777   .     S
C706   C708    1.395   .     A
C706   C716    1.418   .     A
C707   C709    1.390   .     A
C708   C710    1.390   .     A
C709   C711    1.409   .     A
C709   Cl735   1.777   .     S
C710   C712    1.409   .     A
C710   Cl736   1.777   .     S
C711   C717    1.416   .     A
C711   C713    1.421   .     A
C712   C714    1.421   .     A
C712   C718    1.416   .     A
C713   C715    1.424   .     A
C713   C772    1.410   .     S
C714   C716    1.424   .     A
C714   C771    1.410   1_455 S
C717   C737    1.488   .     S
C717   C757    1.410   .     S
C718   C741    1.488   .     S
C718   C758    1.410   1_455 S
Cu719  Cu720   2.718   .     S
Cu719  O728    1.959   .     S
Cu719  O725    1.967   .     S
Cu719  O732    1.958   .     S
Cu719  O729    1.955   .     S
Cu719  N724    2.042   .     S
Cu720  N723    2.042   .     S
Cu720  O727    1.959   .     S
Cu720  O731    1.958   .     S
Cu720  O726    1.967   .     S
Cu720  O730    1.955   .     S
H721   C817    1.087   .     S
H722   C934    1.087   1_545 S
N724   N27     1.299   1_556 S
N724   Cl58    1.726   1_556 S
C737   O738    1.224   .     D
C737   O971    1.397   1_545 S
O739   H740    1.014   .     S
O739   C853    1.397   .     S
C741   O742    1.224   .     D
C741   O859    1.397   .     S
O743   H744    1.014   .     S
O743   C973    1.397   1_545 S
C745   O746    1.220   .     D
C745   O979    1.397   1_545 S
O747   H748    1.014   .     S
O747   C861    1.397   .     S
C749   O750    1.220   .     D
C749   O867    1.397   .     S
O751   H752    1.014   .     S
O751   C981    1.397   1_545 S
Cl753  N27     1.726   1_556 S
C755   O785    1.295   .     A
C755   C759    1.433   .     S
C755   O783    1.303   .     A
C756   C760    1.433   .     S
C756   O784    1.303   .     A
C756   O786    1.295   .     A
C757   C803    1.478   .     S
C757   C774    1.420   .     A
C758   C807    1.478   .     S
C758   C773    1.420   .     A
C758   C718    1.410   1_655 S
C759   C992    1.328   1_545 S
C759   H1011   1.087   1_545 S
C760   C875    1.328   .     S
C760   H896    1.087   .     S
C761   O787    1.302   .     A
C761   C766    1.446   .     S
C761   O789    1.298   .     A
C762   C765    1.446   .     S
C762   O790    1.298   .     A
C762   O788    1.302   .     A
C763   Cl791   1.777   .     S
C763   C765    1.395   .     A
C763   C773    1.418   .     A
C764   Cl792   1.777   .     S
C764   C766    1.395   .     A
C764   C774    1.418   .     A
C765   C767    1.390   .     A
C766   C768    1.390   .     A
C767   C769    1.409   .     A
C767   Cl793   1.777   .     S
C768   C770    1.409   .     A
C768   Cl794   1.777   .     S
C769   C775    1.416   .     A
C769   C771    1.421   .     A
C770   C772    1.421   .     A
C770   C776    1.416   .     A
C771   C773    1.424   .     A
C771   C714    1.410   1_655 S
C772   C774    1.424   .     A
C775   C795    1.488   .     S
C775   C699    1.410   1_655 S
C776   C799    1.488   .     S
Cu777  Cu778   2.718   .     S
Cu777  O786    1.959   .     S
Cu777  O783    1.967   .     S
Cu777  O790    1.958   .     S
Cu777  O787    1.955   .     S
Cu777  N782    2.042   .     S
Cu778  N781    2.042   .     S
Cu778  O785    1.959   .     S
Cu778  O789    1.958   .     S
Cu778  O784    1.967   .     S
Cu778  O788    1.955   .     S
H779   C875    1.087   .     S
H780   C992    1.087   1_545 S
N782   N85     1.299   1_556 S
N782   Cl116   1.726   1_556 S
C795   O796    1.224   .     D
C795   O1029   1.397   1_545 S
O797   H798    1.014   .     S
O797   C911    1.397   .     S
C799   O800    1.224   .     D
C799   O917    1.397   .     S
O801   H802    1.014   .     S
O801   C1031   1.397   1_545 S
C803   O804    1.220   .     D
C803   O1037   1.397   1_545 S
O805   H806    1.014   .     S
O805   C919    1.397   .     S
C807   O808    1.220   .     D
C807   O925    1.397   .     S
O809   H810    1.014   .     S
O809   C1039   1.397   1_545 S
Cl811  N85     1.726   1_556 S
C813   O843    1.295   .     A
C813   C817    1.433   .     S
C813   O841    1.303   .     A
C814   C818    1.433   .     S
C814   O842    1.303   .     A
C814   O844    1.295   .     A
C815   C861    1.478   .     S
C815   C832    1.420   .     A
C815   C891    1.410   1_455 S
C816   C865    1.478   .     S
C816   C831    1.420   .     A
C816   C892    1.410   .     S
C818   C933    1.328   .     S
C818   H954    1.087   .     S
C819   O845    1.302   .     A
C819   C824    1.446   .     S
C819   O847    1.298   .     A
C820   C823    1.446   .     S
C820   O848    1.298   .     A
C820   O846    1.302   .     A
C821   Cl849   1.777   .     S
C821   C823    1.395   .     A
C821   C831    1.418   .     A
C822   Cl850   1.777   .     S
C822   C824    1.395   .     A
C822   C832    1.418   .     A
C823   C825    1.390   .     A
C824   C826    1.390   .     A
C825   C827    1.409   .     A
C825   Cl851   1.777   .     S
C826   C828    1.409   .     A
C826   Cl852   1.777   .     S
C827   C833    1.416   .     A
C827   C829    1.421   .     A
C828   C830    1.421   .     A
C828   C834    1.416   .     A
C829   C831    1.424   .     A
C829   C888    1.410   .     S
C830   C832    1.424   .     A
C830   C887    1.410   1_455 S
C833   C853    1.488   .     S
C833   C873    1.410   .     S
C834   C857    1.488   .     S
C834   C874    1.410   1_455 S
Cu835  Cu836   2.718   .     S
Cu835  O844    1.959   .     S
Cu835  O841    1.967   .     S
Cu835  O848    1.958   .     S
Cu835  O845    1.955   .     S
Cu835  N840    2.042   .     S
Cu836  N839    2.042   .     S
Cu836  O843    1.959   .     S
Cu836  O847    1.958   .     S
Cu836  O842    1.967   .     S
Cu836  O846    1.955   .     S
H837   C933    1.087   .     S
N840   N143    1.299   1_556 S
N840   Cl174   1.726   1_556 S
C853   O854    1.224   .     D
O855   H856    1.014   .     S
O855   C969    1.397   .     S
C857   O858    1.224   .     D
C857   O975    1.397   .     S
O859   H860    1.014   .     S
C861   O862    1.220   .     D
O863   H864    1.014   .     S
O863   C977    1.397   .     S
C865   O866    1.220   .     D
C865   O983    1.397   .     S
O867   H868    1.014   .     S
Cl869  N143    1.726   1_556 S
C871   O901    1.295   .     A
C871   C875    1.433   .     S
C871   O899    1.303   .     A
C872   C876    1.433   .     S
C872   O900    1.303   .     A
C872   O902    1.295   .     A
C873   C919    1.478   .     S
C873   C890    1.420   .     A
C874   C923    1.478   .     S
C874   C889    1.420   .     A
C874   C834    1.410   1_655 S
C876   C991    1.328   .     S
C876   H1012   1.087   .     S
C877   O903    1.302   .     A
C877   C882    1.446   .     S
C877   O905    1.298   .     A
C878   C881    1.446   .     S
C878   O906    1.298   .     A
C878   O904    1.302   .     A
C879   Cl907   1.777   .     S
C879   C881    1.395   .     A
C879   C889    1.418   .     A
C880   Cl908   1.777   .     S
C880   C882    1.395   .     A
C880   C890    1.418   .     A
C881   C883    1.390   .     A
C882   C884    1.390   .     A
C883   C885    1.409   .     A
C883   Cl909   1.777   .     S
C884   C886    1.409   .     A
C884   Cl910   1.777   .     S
C885   C891    1.416   .     A
C885   C887    1.421   .     A
C886   C888    1.421   .     A
C886   C892    1.416   .     A
C887   C889    1.424   .     A
C887   C830    1.410   1_655 S
C888   C890    1.424   .     A
C891   C911    1.488   .     S
C891   C815    1.410   1_655 S
C892   C915    1.488   .     S
Cu893  Cu894   2.718   .     S
Cu893  O902    1.959   .     S
Cu893  O899    1.967   .     S
Cu893  O906    1.958   .     S
Cu893  O903    1.955   .     S
Cu893  N898    2.042   .     S
Cu894  N897    2.042   .     S
Cu894  O901    1.959   .     S
Cu894  O905    1.958   .     S
Cu894  O900    1.967   .     S
Cu894  O904    1.955   .     S
H895   C991    1.087   .     S
N898   N201    1.299   1_556 S
N898   Cl232   1.726   1_556 S
C911   O912    1.224   .     D
O913   H914    1.014   .     S
O913   C1027   1.397   .     S
C915   O916    1.224   .     D
C915   O1033   1.397   .     S
O917   H918    1.014   .     S
C919   O920    1.220   .     D
O921   H922    1.014   .     S
O921   C1035   1.397   .     S
C923   O924    1.220   .     D
C923   O1041   1.397   .     S
O925   H926    1.014   .     S
Cl927  N201    1.726   1_556 S
C929   O959    1.295   .     A
C929   C933    1.433   .     S
C929   O957    1.303   .     A
C930   C934    1.433   .     S
C930   O958    1.303   .     A
C930   O960    1.295   .     A
C931   C977    1.478   .     S
C931   C948    1.420   .     A
C931   C1007   1.410   1_455 S
C932   C981    1.478   .     S
C932   C947    1.420   .     A
C932   C1008   1.410   .     S
C934   C701    1.328   1_565 S
C934   H722    1.087   1_565 S
C935   O961    1.302   .     A
C935   C940    1.446   .     S
C935   O963    1.298   .     A
C936   C939    1.446   .     S
C936   O964    1.298   .     A
C936   O962    1.302   .     A
C937   Cl965   1.777   .     S
C937   C939    1.395   .     A
C937   C947    1.418   .     A
C938   Cl966   1.777   .     S
C938   C940    1.395   .     A
C938   C948    1.418   .     A
C939   C941    1.390   .     A
C940   C942    1.390   .     A
C941   C943    1.409   .     A
C941   Cl967   1.777   .     S
C942   C944    1.409   .     A
C942   Cl968   1.777   .     S
C943   C949    1.416   .     A
C943   C945    1.421   .     A
C944   C946    1.421   .     A
C944   C950    1.416   .     A
C945   C947    1.424   .     A
C945   C1004   1.410   .     S
C946   C948    1.424   .     A
C946   C1003   1.410   1_455 S
C949   C969    1.488   .     S
C949   C989    1.410   .     S
C950   C973    1.488   .     S
C950   C990    1.410   1_455 S
Cu951  Cu952   2.718   .     S
Cu951  O960    1.959   .     S
Cu951  O957    1.967   .     S
Cu951  O964    1.958   .     S
Cu951  O961    1.955   .     S
Cu951  N956    2.042   .     S
Cu952  N955    2.042   .     S
Cu952  O959    1.959   .     S
Cu952  O963    1.958   .     S
Cu952  O958    1.967   .     S
Cu952  O962    1.955   .     S
H953   C701    1.087   1_565 S
N956   N259    1.299   1_556 S
N956   Cl290   1.726   1_556 S
C969   O970    1.224   .     D
O971   H972    1.014   .     S
O971   C737    1.397   1_565 S
C973   O974    1.224   .     D
C973   O743    1.397   1_565 S
O975   H976    1.014   .     S
C977   O978    1.220   .     D
O979   H980    1.014   .     S
O979   C745    1.397   1_565 S
C981   O982    1.220   .     D
C981   O751    1.397   1_565 S
O983   H984    1.014   .     S
Cl985  N259    1.726   1_556 S
C987   O1017   1.295   .     A
C987   C991    1.433   .     S
C987   O1015   1.303   .     A
C988   C992    1.433   .     S
C988   O1016   1.303   .     A
C988   O1018   1.295   .     A
C989   C1035   1.478   .     S
C989   C1006   1.420   .     A
C990   C1039   1.478   .     S
C990   C1005   1.420   .     A
C990   C950    1.410   1_655 S
C992   C759    1.328   1_565 S
C992   H780    1.087   1_565 S
C993   O1019   1.302   .     A
C993   C998    1.446   .     S
C993   O1021   1.298   .     A
C994   C997    1.446   .     S
C994   O1022   1.298   .     A
C994   O1020   1.302   .     A
C995   Cl1023  1.777   .     S
C995   C997    1.395   .     A
C995   C1005   1.418   .     A
C996   Cl1024  1.777   .     S
C996   C998    1.395   .     A
C996   C1006   1.418   .     A
C997   C999    1.390   .     A
C998   C1000   1.390   .     A
C999   C1001   1.409   .     A
C999   Cl1025  1.777   .     S
C1000  C1002   1.409   .     A
C1000  Cl1026  1.777   .     S
C1001  C1007   1.416   .     A
C1001  C1003   1.421   .     A
C1002  C1004   1.421   .     A
C1002  C1008   1.416   .     A
C1003  C1005   1.424   .     A
C1003  C946    1.410   1_655 S
C1004  C1006   1.424   .     A
C1007  C1027   1.488   .     S
C1007  C931    1.410   1_655 S
C1008  C1031   1.488   .     S
Cu1009 Cu1010  2.718   .     S
Cu1009 O1018   1.959   .     S
Cu1009 O1015   1.967   .     S
Cu1009 O1022   1.958   .     S
Cu1009 O1019   1.955   .     S
Cu1009 N1014   2.042   .     S
Cu1010 N1013   2.042   .     S
Cu1010 O1017   1.959   .     S
Cu1010 O1021   1.958   .     S
Cu1010 O1016   1.967   .     S
Cu1010 O1020   1.955   .     S
H1011  C759    1.087   1_565 S
N1014  N317    1.299   1_556 S
N1014  Cl348   1.726   1_556 S
C1027  O1028   1.224   .     D
O1029  H1030   1.014   .     S
O1029  C795    1.397   1_565 S
C1031  O1032   1.224   .     D
C1031  O801    1.397   1_565 S
O1033  H1034   1.014   .     S
C1035  O1036   1.220   .     D
O1037  H1038   1.014   .     S
O1037  C803    1.397   1_565 S
C1039  O1040   1.220   .     D
C1039  O809    1.397   1_565 S
O1041  H1042   1.014   .     S
Cl1043 N317    1.726   1_556 S
