data_str_m2_o1_o16_pcu_sym.123
_audit_creation_date              2020-01-03
_audit_creation_method            'Materials Studio'
_symmetry_space_group_name_H-M    'P1'
_symmetry_Int_Tables_number       1
_symmetry_cell_setting            triclinic
loop_
_symmetry_equiv_pos_as_xyz
  x,y,z
_cell_length_a                    28.7690
_cell_length_b                    32.4837
_cell_length_c                    26.9248
_cell_angle_alpha                 90.2565
_cell_angle_beta                  73.5030
_cell_angle_gamma                 89.9832
loop_
_atom_site_label
_atom_site_type_symbol
_atom_site_fract_x
_atom_site_fract_y
_atom_site_fract_z
_atom_site_U_iso_or_equiv
_atom_site_adp_type
_atom_site_occupancy
C1     C     0.16663   0.24590   0.25015   0.00000  Uiso   1.00
C2     C     0.14658   0.18806   0.48884   0.00000  Uiso   1.00
C3     C     0.16125   0.18796   0.43390   0.00000  Uiso   1.00
C4     C     0.18217   0.18369   0.01558   0.00000  Uiso   1.00
C5     C     0.23148   0.18186   0.48690   0.00000  Uiso   1.00
C6     C     0.24534   0.19153   0.43451   0.00000  Uiso   1.00
C7     C     0.21036   0.19649   0.40886   0.00000  Uiso   1.00
C8     C     0.17030   0.17792   0.06932   0.00000  Uiso   1.00
C9     C     0.25437   0.16500   0.06416   0.00000  Uiso   1.00
C10    C     0.12649   0.17878   0.40665   0.00000  Uiso   1.00
C11    C     0.20895   0.31203   0.24981   0.00000  Uiso   1.00
C12    C     0.14104   0.17027   0.34983   0.00000  Uiso   1.00
C13    C     0.20896   0.02129   0.24977   0.00000  Uiso   1.00
C14    C     0.16655   0.04278   0.25039   0.00000  Uiso   1.00
C15    C     0.12409   0.02131   0.25126   0.00000  Uiso   1.00
C16    C     0.12409   0.31205   0.25126   0.00000  Uiso   1.00
C17    C     0.16655   0.29056   0.25042   0.00000  Uiso   1.00
C18    C     0.30229   0.19730   0.27412   0.00000  Uiso   1.00
C19    C     0.01822   0.19707   0.27457   0.00000  Uiso   1.00
C20    C     0.03130   0.13636   0.22516   0.00000  Uiso   1.00
C21    C     0.31517   0.13630   0.22531   0.00000  Uiso   1.00
C22    C     0.16662   0.08743   0.25014   0.00000  Uiso   1.00
C23    C     0.19234   0.16686   0.15026   0.00000  Uiso   1.00
C24    C     0.26637   0.17036   0.01086   0.00000  Uiso   1.00
C25    C     0.20624   0.16984   0.09380   0.00000  Uiso   1.00
C26    C     0.07700   0.17629   0.43535   0.00000  Uiso   1.00
C27    C     0.06301   0.18701   0.48782   0.00000  Uiso   1.00
C28    C     0.09700   0.19157   0.01464   0.00000  Uiso   1.00
Cu29   Cu    0.11978   0.16666   0.25000   0.00000  Uiso   1.00
Cu30   Cu    0.21355   0.16667   0.25000   0.00000  Uiso   1.00
H31    H     0.28246   0.15689   0.08196   0.00000  Uiso   1.00
H32    H     0.24215   0.03728   0.24917   0.00000  Uiso   1.00
H33    H     0.09089   0.03733   0.25188   0.00000  Uiso   1.00
H34    H     0.09090   0.29606   0.25187   0.00000  Uiso   1.00
H35    H     0.27908   0.22233   0.29285   0.00000  Uiso   1.00
H36    H     0.03133   0.22149   0.29447   0.00000  Uiso   1.00
H37    H     0.05505   0.11204   0.20506   0.00000  Uiso   1.00
H38    H     0.30208   0.11193   0.20532   0.00000  Uiso   1.00
H39    H     0.28324   0.19483   0.41319   0.00000  Uiso   1.00
H40    H     0.30231   0.16413   0.48749   0.00000  Uiso   1.00
H41    H     0.13324   0.17899   0.09291   0.00000  Uiso   1.00
H42    H     0.08323   0.19778   0.05557   0.00000  Uiso   1.00
H43    H     0.02573   0.19021   0.00961   0.00000  Uiso   1.00
H44    H     0.22267   0.20745   0.36979   0.00000  Uiso   1.00
H45    H     0.24213   0.29602   0.24925   0.00000  Uiso   1.00
N46    N     0.04931   0.16666   0.24999   0.00000  Uiso   1.00
N47    N     0.28402   0.16669   0.24999   0.00000  Uiso   1.00
O48    O     0.12708   0.22678   0.25000   0.00000  Uiso   1.00
O49    O     0.20627   0.22679   0.25000   0.00000  Uiso   1.00
O50    O     0.10775   0.16665   0.32549   0.00000  Uiso   1.00
O51    O     0.18694   0.16666   0.32549   0.00000  Uiso   1.00
O52    O     0.12706   0.10654   0.24999   0.00000  Uiso   1.00
O53    O     0.20625   0.10655   0.24999   0.00000  Uiso   1.00
O54    O     0.14640   0.16667   0.17451   0.00000  Uiso   1.00
O55    O     0.22559   0.16668   0.17451   0.00000  Uiso   1.00
O56    O     0.04185   0.16424   0.41239   0.00000  Uiso   1.00
C57    C     0.03912   0.12072   0.41369   0.00000  Uiso   1.00
H58    H     0.02608   0.10956   0.45435   0.00000  Uiso   1.00
H59    H     0.07500   0.10629   0.39482   0.00000  Uiso   1.00
C60    C     0.00383   0.10627   0.38455   0.00000  Uiso   1.00
H61    H     0.01520   0.11794   0.34420   0.00000  Uiso   1.00
H62    H     0.00323   0.07211   0.38347   0.00000  Uiso   1.00
H63    H     0.30006   0.11752   0.40422   0.00000  Uiso   1.00
C64    C     0.49996   0.24590   0.25015   0.00000  Uiso   1.00
C65    C     0.47991   0.18806   0.48884   0.00000  Uiso   1.00
C66    C     0.49458   0.18796   0.43390   0.00000  Uiso   1.00
C67    C     0.51551   0.18369   0.01558   0.00000  Uiso   1.00
C68    C     0.56481   0.18186   0.48690   0.00000  Uiso   1.00
C69    C     0.57868   0.19153   0.43451   0.00000  Uiso   1.00
C70    C     0.54369   0.19649   0.40886   0.00000  Uiso   1.00
C71    C     0.50364   0.17792   0.06932   0.00000  Uiso   1.00
C72    C     0.58770   0.16500   0.06416   0.00000  Uiso   1.00
C73    C     0.45982   0.17878   0.40665   0.00000  Uiso   1.00
C74    C     0.54228   0.31203   0.24981   0.00000  Uiso   1.00
C75    C     0.47438   0.17027   0.34983   0.00000  Uiso   1.00
C76    C     0.54229   0.02129   0.24977   0.00000  Uiso   1.00
C77    C     0.49989   0.04278   0.25039   0.00000  Uiso   1.00
C78    C     0.45742   0.02131   0.25126   0.00000  Uiso   1.00
C79    C     0.45743   0.31205   0.25126   0.00000  Uiso   1.00
C80    C     0.49988   0.29056   0.25042   0.00000  Uiso   1.00
C81    C     0.63562   0.19730   0.27412   0.00000  Uiso   1.00
C82    C     0.35155   0.19707   0.27457   0.00000  Uiso   1.00
C83    C     0.36464   0.13636   0.22516   0.00000  Uiso   1.00
C84    C     0.64851   0.13630   0.22531   0.00000  Uiso   1.00
C85    C     0.49996   0.08743   0.25014   0.00000  Uiso   1.00
C86    C     0.52568   0.16686   0.15026   0.00000  Uiso   1.00
C87    C     0.59970   0.17036   0.01086   0.00000  Uiso   1.00
C88    C     0.53958   0.16984   0.09380   0.00000  Uiso   1.00
C89    C     0.41033   0.17629   0.43535   0.00000  Uiso   1.00
C90    C     0.39635   0.18701   0.48782   0.00000  Uiso   1.00
C91    C     0.43033   0.19157   0.01464   0.00000  Uiso   1.00
Cu92   Cu    0.45311   0.16666   0.25000   0.00000  Uiso   1.00
Cu93   Cu    0.54689   0.16667   0.25000   0.00000  Uiso   1.00
H94    H     0.61579   0.15689   0.08196   0.00000  Uiso   1.00
H95    H     0.57548   0.03728   0.24917   0.00000  Uiso   1.00
H96    H     0.42422   0.03733   0.25188   0.00000  Uiso   1.00
H97    H     0.42423   0.29606   0.25187   0.00000  Uiso   1.00
H98    H     0.61241   0.22233   0.29285   0.00000  Uiso   1.00
H99    H     0.36466   0.22149   0.29447   0.00000  Uiso   1.00
H100   H     0.38838   0.11204   0.20506   0.00000  Uiso   1.00
H101   H     0.63542   0.11193   0.20532   0.00000  Uiso   1.00
H102   H     0.61658   0.19483   0.41319   0.00000  Uiso   1.00
H103   H     0.63564   0.16413   0.48749   0.00000  Uiso   1.00
H104   H     0.46657   0.17899   0.09291   0.00000  Uiso   1.00
H105   H     0.41657   0.19778   0.05557   0.00000  Uiso   1.00
H106   H     0.35906   0.19021   0.00961   0.00000  Uiso   1.00
H107   H     0.55600   0.20745   0.36979   0.00000  Uiso   1.00
H108   H     0.57547   0.29602   0.24925   0.00000  Uiso   1.00
N109   N     0.38265   0.16666   0.24999   0.00000  Uiso   1.00
N110   N     0.61735   0.16669   0.24999   0.00000  Uiso   1.00
O111   O     0.46042   0.22678   0.25000   0.00000  Uiso   1.00
O112   O     0.53961   0.22679   0.25000   0.00000  Uiso   1.00
O113   O     0.44108   0.16665   0.32549   0.00000  Uiso   1.00
O114   O     0.52027   0.16666   0.32549   0.00000  Uiso   1.00
O115   O     0.46039   0.10654   0.24999   0.00000  Uiso   1.00
O116   O     0.53958   0.10655   0.24999   0.00000  Uiso   1.00
O117   O     0.47973   0.16667   0.17451   0.00000  Uiso   1.00
O118   O     0.55892   0.16668   0.17451   0.00000  Uiso   1.00
O119   O     0.37519   0.16424   0.41239   0.00000  Uiso   1.00
C120   C     0.37245   0.12072   0.41369   0.00000  Uiso   1.00
H121   H     0.35941   0.10956   0.45435   0.00000  Uiso   1.00
H122   H     0.40833   0.10629   0.39482   0.00000  Uiso   1.00
C123   C     0.33716   0.10627   0.38455   0.00000  Uiso   1.00
H124   H     0.34854   0.11794   0.34420   0.00000  Uiso   1.00
H125   H     0.33656   0.07211   0.38347   0.00000  Uiso   1.00
H126   H     0.63339   0.11752   0.40422   0.00000  Uiso   1.00
C127   C     0.83330   0.24590   0.25015   0.00000  Uiso   1.00
C128   C     0.81325   0.18806   0.48884   0.00000  Uiso   1.00
C129   C     0.82791   0.18796   0.43390   0.00000  Uiso   1.00
C130   C     0.84884   0.18369   0.01558   0.00000  Uiso   1.00
C131   C     0.89815   0.18186   0.48690   0.00000  Uiso   1.00
C132   C     0.91201   0.19153   0.43451   0.00000  Uiso   1.00
C133   C     0.87703   0.19649   0.40886   0.00000  Uiso   1.00
C134   C     0.83697   0.17792   0.06932   0.00000  Uiso   1.00
C135   C     0.92103   0.16500   0.06416   0.00000  Uiso   1.00
C136   C     0.79315   0.17878   0.40665   0.00000  Uiso   1.00
C137   C     0.87562   0.31203   0.24981   0.00000  Uiso   1.00
C138   C     0.80771   0.17027   0.34983   0.00000  Uiso   1.00
C139   C     0.87562   0.02129   0.24977   0.00000  Uiso   1.00
C140   C     0.83322   0.04278   0.25039   0.00000  Uiso   1.00
C141   C     0.79076   0.02131   0.25126   0.00000  Uiso   1.00
C142   C     0.79076   0.31205   0.25126   0.00000  Uiso   1.00
C143   C     0.83322   0.29056   0.25042   0.00000  Uiso   1.00
C144   C     0.96895   0.19730   0.27412   0.00000  Uiso   1.00
C145   C     0.68488   0.19707   0.27457   0.00000  Uiso   1.00
C146   C     0.69797   0.13636   0.22516   0.00000  Uiso   1.00
C147   C     0.98184   0.13630   0.22531   0.00000  Uiso   1.00
C148   C     0.83329   0.08743   0.25014   0.00000  Uiso   1.00
C149   C     0.85901   0.16686   0.15026   0.00000  Uiso   1.00
C150   C     0.93303   0.17036   0.01086   0.00000  Uiso   1.00
C151   C     0.87291   0.16984   0.09380   0.00000  Uiso   1.00
C152   C     0.74366   0.17629   0.43535   0.00000  Uiso   1.00
C153   C     0.72968   0.18701   0.48782   0.00000  Uiso   1.00
C154   C     0.76367   0.19157   0.01464   0.00000  Uiso   1.00
Cu155  Cu    0.78645   0.16666   0.25000   0.00000  Uiso   1.00
Cu156  Cu    0.88022   0.16667   0.25000   0.00000  Uiso   1.00
H157   H     0.94912   0.15689   0.08196   0.00000  Uiso   1.00
H158   H     0.90882   0.03728   0.24917   0.00000  Uiso   1.00
H159   H     0.75756   0.03733   0.25188   0.00000  Uiso   1.00
H160   H     0.75757   0.29606   0.25187   0.00000  Uiso   1.00
H161   H     0.94575   0.22233   0.29285   0.00000  Uiso   1.00
H162   H     0.69800   0.22149   0.29447   0.00000  Uiso   1.00
H163   H     0.72171   0.11204   0.20506   0.00000  Uiso   1.00
H164   H     0.96875   0.11193   0.20532   0.00000  Uiso   1.00
H165   H     0.94991   0.19483   0.41319   0.00000  Uiso   1.00
H166   H     0.96898   0.16413   0.48749   0.00000  Uiso   1.00
H167   H     0.79991   0.17899   0.09291   0.00000  Uiso   1.00
H168   H     0.74990   0.19778   0.05557   0.00000  Uiso   1.00
H169   H     0.69240   0.19021   0.00961   0.00000  Uiso   1.00
H170   H     0.88934   0.20745   0.36979   0.00000  Uiso   1.00
H171   H     0.90880   0.29602   0.24925   0.00000  Uiso   1.00
N172   N     0.71598   0.16666   0.24999   0.00000  Uiso   1.00
N173   N     0.95069   0.16669   0.24999   0.00000  Uiso   1.00
O174   O     0.79375   0.22678   0.25000   0.00000  Uiso   1.00
O175   O     0.87294   0.22679   0.25000   0.00000  Uiso   1.00
O176   O     0.77441   0.16665   0.32549   0.00000  Uiso   1.00
O177   O     0.85360   0.16666   0.32549   0.00000  Uiso   1.00
O178   O     0.79373   0.10654   0.24999   0.00000  Uiso   1.00
O179   O     0.87292   0.10655   0.24999   0.00000  Uiso   1.00
O180   O     0.81306   0.16667   0.17451   0.00000  Uiso   1.00
O181   O     0.89225   0.16668   0.17451   0.00000  Uiso   1.00
O182   O     0.70852   0.16424   0.41239   0.00000  Uiso   1.00
C183   C     0.70579   0.12072   0.41369   0.00000  Uiso   1.00
H184   H     0.69275   0.10956   0.45435   0.00000  Uiso   1.00
H185   H     0.74167   0.10629   0.39482   0.00000  Uiso   1.00
C186   C     0.67050   0.10627   0.38455   0.00000  Uiso   1.00
H187   H     0.68187   0.11794   0.34420   0.00000  Uiso   1.00
H188   H     0.66990   0.07211   0.38347   0.00000  Uiso   1.00
H189   H     0.96672   0.11752   0.40422   0.00000  Uiso   1.00
C190   C     0.16663   0.57924   0.25015   0.00000  Uiso   1.00
C191   C     0.14658   0.52140   0.48884   0.00000  Uiso   1.00
C192   C     0.16125   0.52130   0.43390   0.00000  Uiso   1.00
C193   C     0.18217   0.51702   0.01558   0.00000  Uiso   1.00
C194   C     0.23148   0.51519   0.48690   0.00000  Uiso   1.00
C195   C     0.24534   0.52486   0.43451   0.00000  Uiso   1.00
C196   C     0.21036   0.52983   0.40886   0.00000  Uiso   1.00
C197   C     0.17030   0.51125   0.06932   0.00000  Uiso   1.00
C198   C     0.25437   0.49833   0.06416   0.00000  Uiso   1.00
C199   C     0.12649   0.51211   0.40665   0.00000  Uiso   1.00
C200   C     0.20895   0.64536   0.24981   0.00000  Uiso   1.00
C201   C     0.14104   0.50360   0.34983   0.00000  Uiso   1.00
C202   C     0.20896   0.35462   0.24977   0.00000  Uiso   1.00
C203   C     0.16655   0.37611   0.25039   0.00000  Uiso   1.00
C204   C     0.12409   0.35465   0.25126   0.00000  Uiso   1.00
C205   C     0.12409   0.64539   0.25126   0.00000  Uiso   1.00
C206   C     0.16655   0.62390   0.25042   0.00000  Uiso   1.00
C207   C     0.30229   0.53064   0.27412   0.00000  Uiso   1.00
C208   C     0.01822   0.53041   0.27457   0.00000  Uiso   1.00
C209   C     0.03130   0.46969   0.22516   0.00000  Uiso   1.00
C210   C     0.31517   0.46964   0.22531   0.00000  Uiso   1.00
C211   C     0.16662   0.42077   0.25014   0.00000  Uiso   1.00
C212   C     0.19234   0.50020   0.15026   0.00000  Uiso   1.00
C213   C     0.26637   0.50369   0.01086   0.00000  Uiso   1.00
C214   C     0.20624   0.50317   0.09380   0.00000  Uiso   1.00
C215   C     0.07700   0.50962   0.43535   0.00000  Uiso   1.00
C216   C     0.06301   0.52035   0.48782   0.00000  Uiso   1.00
C217   C     0.09700   0.52490   0.01464   0.00000  Uiso   1.00
Cu218  Cu    0.11978   0.49999   0.25000   0.00000  Uiso   1.00
Cu219  Cu    0.21355   0.50001   0.25000   0.00000  Uiso   1.00
H220   H     0.28246   0.49022   0.08196   0.00000  Uiso   1.00
H221   H     0.24215   0.37061   0.24917   0.00000  Uiso   1.00
H222   H     0.09089   0.37066   0.25188   0.00000  Uiso   1.00
H223   H     0.09090   0.62939   0.25187   0.00000  Uiso   1.00
H224   H     0.27908   0.55567   0.29285   0.00000  Uiso   1.00
H225   H     0.03133   0.55482   0.29447   0.00000  Uiso   1.00
H226   H     0.05505   0.44537   0.20506   0.00000  Uiso   1.00
H227   H     0.30208   0.44527   0.20532   0.00000  Uiso   1.00
H228   H     0.28324   0.52816   0.41319   0.00000  Uiso   1.00
H229   H     0.30231   0.49747   0.48749   0.00000  Uiso   1.00
H230   H     0.13324   0.51233   0.09291   0.00000  Uiso   1.00
H231   H     0.08323   0.53112   0.05557   0.00000  Uiso   1.00
H232   H     0.02573   0.52354   0.00961   0.00000  Uiso   1.00
H233   H     0.22267   0.54078   0.36979   0.00000  Uiso   1.00
H234   H     0.24213   0.62935   0.24925   0.00000  Uiso   1.00
N235   N     0.04931   0.49999   0.24999   0.00000  Uiso   1.00
N236   N     0.28402   0.50002   0.24999   0.00000  Uiso   1.00
O237   O     0.12708   0.56011   0.25000   0.00000  Uiso   1.00
O238   O     0.20627   0.56012   0.25000   0.00000  Uiso   1.00
O239   O     0.10775   0.49998   0.32549   0.00000  Uiso   1.00
O240   O     0.18694   0.49999   0.32549   0.00000  Uiso   1.00
O241   O     0.12706   0.43988   0.24999   0.00000  Uiso   1.00
O242   O     0.20625   0.43989   0.24999   0.00000  Uiso   1.00
O243   O     0.14640   0.50001   0.17451   0.00000  Uiso   1.00
O244   O     0.22559   0.50002   0.17451   0.00000  Uiso   1.00
O245   O     0.04185   0.49758   0.41239   0.00000  Uiso   1.00
C246   C     0.03912   0.45405   0.41369   0.00000  Uiso   1.00
H247   H     0.02608   0.44289   0.45435   0.00000  Uiso   1.00
H248   H     0.07500   0.43962   0.39482   0.00000  Uiso   1.00
C249   C     0.00383   0.43960   0.38455   0.00000  Uiso   1.00
H250   H     0.01520   0.45127   0.34420   0.00000  Uiso   1.00
H251   H     0.00323   0.40544   0.38347   0.00000  Uiso   1.00
H252   H     0.30006   0.45085   0.40422   0.00000  Uiso   1.00
C253   C     0.49996   0.57924   0.25015   0.00000  Uiso   1.00
C254   C     0.47991   0.52140   0.48884   0.00000  Uiso   1.00
C255   C     0.49458   0.52130   0.43390   0.00000  Uiso   1.00
C256   C     0.51551   0.51702   0.01558   0.00000  Uiso   1.00
C257   C     0.56481   0.51519   0.48690   0.00000  Uiso   1.00
C258   C     0.57868   0.52486   0.43451   0.00000  Uiso   1.00
C259   C     0.54369   0.52983   0.40886   0.00000  Uiso   1.00
C260   C     0.50364   0.51125   0.06932   0.00000  Uiso   1.00
C261   C     0.58770   0.49833   0.06416   0.00000  Uiso   1.00
C262   C     0.45982   0.51211   0.40665   0.00000  Uiso   1.00
C263   C     0.54228   0.64536   0.24981   0.00000  Uiso   1.00
C264   C     0.47438   0.50360   0.34983   0.00000  Uiso   1.00
C265   C     0.54229   0.35462   0.24977   0.00000  Uiso   1.00
C266   C     0.49989   0.37611   0.25039   0.00000  Uiso   1.00
C267   C     0.45742   0.35465   0.25126   0.00000  Uiso   1.00
C268   C     0.45743   0.64539   0.25126   0.00000  Uiso   1.00
C269   C     0.49988   0.62390   0.25042   0.00000  Uiso   1.00
C270   C     0.63562   0.53064   0.27412   0.00000  Uiso   1.00
C271   C     0.35155   0.53041   0.27457   0.00000  Uiso   1.00
C272   C     0.36464   0.46969   0.22516   0.00000  Uiso   1.00
C273   C     0.64851   0.46964   0.22531   0.00000  Uiso   1.00
C274   C     0.49996   0.42077   0.25014   0.00000  Uiso   1.00
C275   C     0.52568   0.50020   0.15026   0.00000  Uiso   1.00
C276   C     0.59970   0.50369   0.01086   0.00000  Uiso   1.00
C277   C     0.53958   0.50317   0.09380   0.00000  Uiso   1.00
C278   C     0.41033   0.50962   0.43535   0.00000  Uiso   1.00
C279   C     0.39635   0.52035   0.48782   0.00000  Uiso   1.00
C280   C     0.43033   0.52490   0.01464   0.00000  Uiso   1.00
Cu281  Cu    0.45311   0.49999   0.25000   0.00000  Uiso   1.00
Cu282  Cu    0.54689   0.50001   0.25000   0.00000  Uiso   1.00
H283   H     0.61579   0.49022   0.08196   0.00000  Uiso   1.00
H284   H     0.57548   0.37061   0.24917   0.00000  Uiso   1.00
H285   H     0.42422   0.37066   0.25188   0.00000  Uiso   1.00
H286   H     0.42423   0.62939   0.25187   0.00000  Uiso   1.00
H287   H     0.61241   0.55567   0.29285   0.00000  Uiso   1.00
H288   H     0.36466   0.55482   0.29447   0.00000  Uiso   1.00
H289   H     0.38838   0.44537   0.20506   0.00000  Uiso   1.00
H290   H     0.63542   0.44527   0.20532   0.00000  Uiso   1.00
H291   H     0.61658   0.52816   0.41319   0.00000  Uiso   1.00
H292   H     0.63564   0.49747   0.48749   0.00000  Uiso   1.00
H293   H     0.46657   0.51233   0.09291   0.00000  Uiso   1.00
H294   H     0.41657   0.53112   0.05557   0.00000  Uiso   1.00
H295   H     0.35906   0.52354   0.00961   0.00000  Uiso   1.00
H296   H     0.55600   0.54078   0.36979   0.00000  Uiso   1.00
H297   H     0.57547   0.62935   0.24925   0.00000  Uiso   1.00
N298   N     0.38265   0.49999   0.24999   0.00000  Uiso   1.00
N299   N     0.61735   0.50002   0.24999   0.00000  Uiso   1.00
O300   O     0.46042   0.56011   0.25000   0.00000  Uiso   1.00
O301   O     0.53961   0.56012   0.25000   0.00000  Uiso   1.00
O302   O     0.44108   0.49998   0.32549   0.00000  Uiso   1.00
O303   O     0.52027   0.49999   0.32549   0.00000  Uiso   1.00
O304   O     0.46039   0.43988   0.24999   0.00000  Uiso   1.00
O305   O     0.53958   0.43989   0.24999   0.00000  Uiso   1.00
O306   O     0.47973   0.50001   0.17451   0.00000  Uiso   1.00
O307   O     0.55892   0.50002   0.17451   0.00000  Uiso   1.00
O308   O     0.37519   0.49758   0.41239   0.00000  Uiso   1.00
C309   C     0.37245   0.45405   0.41369   0.00000  Uiso   1.00
H310   H     0.35941   0.44289   0.45435   0.00000  Uiso   1.00
H311   H     0.40833   0.43962   0.39482   0.00000  Uiso   1.00
C312   C     0.33716   0.43960   0.38455   0.00000  Uiso   1.00
H313   H     0.34854   0.45127   0.34420   0.00000  Uiso   1.00
H314   H     0.33656   0.40544   0.38347   0.00000  Uiso   1.00
H315   H     0.63339   0.45085   0.40422   0.00000  Uiso   1.00
C316   C     0.83330   0.57924   0.25015   0.00000  Uiso   1.00
C317   C     0.81325   0.52140   0.48884   0.00000  Uiso   1.00
C318   C     0.82791   0.52130   0.43390   0.00000  Uiso   1.00
C319   C     0.84884   0.51702   0.01558   0.00000  Uiso   1.00
C320   C     0.89815   0.51519   0.48690   0.00000  Uiso   1.00
C321   C     0.91201   0.52486   0.43451   0.00000  Uiso   1.00
C322   C     0.87703   0.52983   0.40886   0.00000  Uiso   1.00
C323   C     0.83697   0.51125   0.06932   0.00000  Uiso   1.00
C324   C     0.92103   0.49833   0.06416   0.00000  Uiso   1.00
C325   C     0.79315   0.51211   0.40665   0.00000  Uiso   1.00
C326   C     0.87562   0.64536   0.24981   0.00000  Uiso   1.00
C327   C     0.80771   0.50360   0.34983   0.00000  Uiso   1.00
C328   C     0.87562   0.35462   0.24977   0.00000  Uiso   1.00
C329   C     0.83322   0.37611   0.25039   0.00000  Uiso   1.00
C330   C     0.79076   0.35465   0.25126   0.00000  Uiso   1.00
C331   C     0.79076   0.64539   0.25126   0.00000  Uiso   1.00
C332   C     0.83322   0.62390   0.25042   0.00000  Uiso   1.00
C333   C     0.96895   0.53064   0.27412   0.00000  Uiso   1.00
C334   C     0.68488   0.53041   0.27457   0.00000  Uiso   1.00
C335   C     0.69797   0.46969   0.22516   0.00000  Uiso   1.00
C336   C     0.98184   0.46964   0.22531   0.00000  Uiso   1.00
C337   C     0.83329   0.42077   0.25014   0.00000  Uiso   1.00
C338   C     0.85901   0.50020   0.15026   0.00000  Uiso   1.00
C339   C     0.93303   0.50369   0.01086   0.00000  Uiso   1.00
C340   C     0.87291   0.50317   0.09380   0.00000  Uiso   1.00
C341   C     0.74366   0.50962   0.43535   0.00000  Uiso   1.00
C342   C     0.72968   0.52035   0.48782   0.00000  Uiso   1.00
C343   C     0.76367   0.52490   0.01464   0.00000  Uiso   1.00
Cu344  Cu    0.78645   0.49999   0.25000   0.00000  Uiso   1.00
Cu345  Cu    0.88022   0.50001   0.25000   0.00000  Uiso   1.00
H346   H     0.94912   0.49022   0.08196   0.00000  Uiso   1.00
H347   H     0.90882   0.37061   0.24917   0.00000  Uiso   1.00
H348   H     0.75756   0.37066   0.25188   0.00000  Uiso   1.00
H349   H     0.75757   0.62939   0.25187   0.00000  Uiso   1.00
H350   H     0.94575   0.55567   0.29285   0.00000  Uiso   1.00
H351   H     0.69800   0.55482   0.29447   0.00000  Uiso   1.00
H352   H     0.72171   0.44537   0.20506   0.00000  Uiso   1.00
H353   H     0.96875   0.44527   0.20532   0.00000  Uiso   1.00
H354   H     0.94991   0.52816   0.41319   0.00000  Uiso   1.00
H355   H     0.96898   0.49747   0.48749   0.00000  Uiso   1.00
H356   H     0.79991   0.51233   0.09291   0.00000  Uiso   1.00
H357   H     0.74990   0.53112   0.05557   0.00000  Uiso   1.00
H358   H     0.69240   0.52354   0.00961   0.00000  Uiso   1.00
H359   H     0.88934   0.54078   0.36979   0.00000  Uiso   1.00
H360   H     0.90880   0.62935   0.24925   0.00000  Uiso   1.00
N361   N     0.71598   0.49999   0.24999   0.00000  Uiso   1.00
N362   N     0.95069   0.50002   0.24999   0.00000  Uiso   1.00
O363   O     0.79375   0.56011   0.25000   0.00000  Uiso   1.00
O364   O     0.87294   0.56012   0.25000   0.00000  Uiso   1.00
O365   O     0.77441   0.49998   0.32549   0.00000  Uiso   1.00
O366   O     0.85360   0.49999   0.32549   0.00000  Uiso   1.00
O367   O     0.79373   0.43988   0.24999   0.00000  Uiso   1.00
O368   O     0.87292   0.43989   0.24999   0.00000  Uiso   1.00
O369   O     0.81306   0.50001   0.17451   0.00000  Uiso   1.00
O370   O     0.89225   0.50002   0.17451   0.00000  Uiso   1.00
O371   O     0.70852   0.49758   0.41239   0.00000  Uiso   1.00
C372   C     0.70579   0.45405   0.41369   0.00000  Uiso   1.00
H373   H     0.69275   0.44289   0.45435   0.00000  Uiso   1.00
H374   H     0.74167   0.43962   0.39482   0.00000  Uiso   1.00
C375   C     0.67050   0.43960   0.38455   0.00000  Uiso   1.00
H376   H     0.68187   0.45127   0.34420   0.00000  Uiso   1.00
H377   H     0.66990   0.40544   0.38347   0.00000  Uiso   1.00
H378   H     0.96672   0.45085   0.40422   0.00000  Uiso   1.00
C379   C     0.16663   0.91257   0.25015   0.00000  Uiso   1.00
C380   C     0.14658   0.85473   0.48884   0.00000  Uiso   1.00
C381   C     0.16125   0.85463   0.43390   0.00000  Uiso   1.00
C382   C     0.18217   0.85036   0.01558   0.00000  Uiso   1.00
C383   C     0.23148   0.84852   0.48690   0.00000  Uiso   1.00
C384   C     0.24534   0.85819   0.43451   0.00000  Uiso   1.00
C385   C     0.21036   0.86316   0.40886   0.00000  Uiso   1.00
C386   C     0.17030   0.84459   0.06932   0.00000  Uiso   1.00
C387   C     0.25437   0.83166   0.06416   0.00000  Uiso   1.00
C388   C     0.12649   0.84545   0.40665   0.00000  Uiso   1.00
C389   C     0.20895   0.97870   0.24981   0.00000  Uiso   1.00
C390   C     0.14104   0.83693   0.34983   0.00000  Uiso   1.00
C391   C     0.20896   0.68795   0.24977   0.00000  Uiso   1.00
C392   C     0.16655   0.70945   0.25039   0.00000  Uiso   1.00
C393   C     0.12409   0.68798   0.25126   0.00000  Uiso   1.00
C394   C     0.12409   0.97872   0.25126   0.00000  Uiso   1.00
C395   C     0.16655   0.95723   0.25042   0.00000  Uiso   1.00
C396   C     0.30229   0.86397   0.27412   0.00000  Uiso   1.00
C397   C     0.01822   0.86374   0.27457   0.00000  Uiso   1.00
C398   C     0.03130   0.80303   0.22516   0.00000  Uiso   1.00
C399   C     0.31517   0.80297   0.22531   0.00000  Uiso   1.00
C400   C     0.16662   0.75410   0.25014   0.00000  Uiso   1.00
C401   C     0.19234   0.83353   0.15026   0.00000  Uiso   1.00
C402   C     0.26637   0.83702   0.01086   0.00000  Uiso   1.00
C403   C     0.20624   0.83651   0.09380   0.00000  Uiso   1.00
C404   C     0.07700   0.84296   0.43535   0.00000  Uiso   1.00
C405   C     0.06301   0.85368   0.48782   0.00000  Uiso   1.00
C406   C     0.09700   0.85823   0.01464   0.00000  Uiso   1.00
Cu407  Cu    0.11978   0.83333   0.25000   0.00000  Uiso   1.00
Cu408  Cu    0.21355   0.83334   0.25000   0.00000  Uiso   1.00
H409   H     0.28246   0.82356   0.08196   0.00000  Uiso   1.00
H410   H     0.24215   0.70395   0.24917   0.00000  Uiso   1.00
H411   H     0.09089   0.70400   0.25188   0.00000  Uiso   1.00
H412   H     0.09090   0.96273   0.25187   0.00000  Uiso   1.00
H413   H     0.27908   0.88900   0.29285   0.00000  Uiso   1.00
H414   H     0.03133   0.88816   0.29447   0.00000  Uiso   1.00
H415   H     0.05505   0.77871   0.20506   0.00000  Uiso   1.00
H416   H     0.30208   0.77860   0.20532   0.00000  Uiso   1.00
H417   H     0.28324   0.86150   0.41319   0.00000  Uiso   1.00
H418   H     0.30231   0.83080   0.48749   0.00000  Uiso   1.00
H419   H     0.13324   0.84566   0.09291   0.00000  Uiso   1.00
H420   H     0.08323   0.86445   0.05557   0.00000  Uiso   1.00
H421   H     0.02573   0.85687   0.00961   0.00000  Uiso   1.00
H422   H     0.22267   0.87412   0.36979   0.00000  Uiso   1.00
H423   H     0.24213   0.96269   0.24925   0.00000  Uiso   1.00
N424   N     0.04931   0.83332   0.24999   0.00000  Uiso   1.00
N425   N     0.28402   0.83335   0.24999   0.00000  Uiso   1.00
O426   O     0.12708   0.89345   0.25000   0.00000  Uiso   1.00
O427   O     0.20627   0.89346   0.25000   0.00000  Uiso   1.00
O428   O     0.10775   0.83332   0.32549   0.00000  Uiso   1.00
O429   O     0.18694   0.83333   0.32549   0.00000  Uiso   1.00
O430   O     0.12706   0.77321   0.24999   0.00000  Uiso   1.00
O431   O     0.20625   0.77322   0.24999   0.00000  Uiso   1.00
O432   O     0.14640   0.83334   0.17451   0.00000  Uiso   1.00
O433   O     0.22559   0.83335   0.17451   0.00000  Uiso   1.00
O434   O     0.04185   0.83091   0.41239   0.00000  Uiso   1.00
C435   C     0.03912   0.78738   0.41369   0.00000  Uiso   1.00
H436   H     0.02608   0.77623   0.45435   0.00000  Uiso   1.00
H437   H     0.07500   0.77296   0.39482   0.00000  Uiso   1.00
C438   C     0.00383   0.77294   0.38455   0.00000  Uiso   1.00
H439   H     0.01520   0.78461   0.34420   0.00000  Uiso   1.00
H440   H     0.00323   0.73877   0.38347   0.00000  Uiso   1.00
H441   H     0.30006   0.78419   0.40422   0.00000  Uiso   1.00
C442   C     0.49996   0.91257   0.25015   0.00000  Uiso   1.00
C443   C     0.47991   0.85473   0.48884   0.00000  Uiso   1.00
C444   C     0.49458   0.85463   0.43390   0.00000  Uiso   1.00
C445   C     0.51551   0.85036   0.01558   0.00000  Uiso   1.00
C446   C     0.56481   0.84852   0.48690   0.00000  Uiso   1.00
C447   C     0.57868   0.85819   0.43451   0.00000  Uiso   1.00
C448   C     0.54369   0.86316   0.40886   0.00000  Uiso   1.00
C449   C     0.50364   0.84459   0.06932   0.00000  Uiso   1.00
C450   C     0.58770   0.83166   0.06416   0.00000  Uiso   1.00
C451   C     0.45982   0.84545   0.40665   0.00000  Uiso   1.00
C452   C     0.54228   0.97870   0.24981   0.00000  Uiso   1.00
C453   C     0.47438   0.83693   0.34983   0.00000  Uiso   1.00
C454   C     0.54229   0.68795   0.24977   0.00000  Uiso   1.00
C455   C     0.49989   0.70945   0.25039   0.00000  Uiso   1.00
C456   C     0.45742   0.68798   0.25126   0.00000  Uiso   1.00
C457   C     0.45743   0.97872   0.25126   0.00000  Uiso   1.00
C458   C     0.49988   0.95723   0.25042   0.00000  Uiso   1.00
C459   C     0.63562   0.86397   0.27412   0.00000  Uiso   1.00
C460   C     0.35155   0.86374   0.27457   0.00000  Uiso   1.00
C461   C     0.36464   0.80303   0.22516   0.00000  Uiso   1.00
C462   C     0.64851   0.80297   0.22531   0.00000  Uiso   1.00
C463   C     0.49996   0.75410   0.25014   0.00000  Uiso   1.00
C464   C     0.52568   0.83353   0.15026   0.00000  Uiso   1.00
C465   C     0.59970   0.83702   0.01086   0.00000  Uiso   1.00
C466   C     0.53958   0.83651   0.09380   0.00000  Uiso   1.00
C467   C     0.41033   0.84296   0.43535   0.00000  Uiso   1.00
C468   C     0.39635   0.85368   0.48782   0.00000  Uiso   1.00
C469   C     0.43033   0.85823   0.01464   0.00000  Uiso   1.00
Cu470  Cu    0.45311   0.83333   0.25000   0.00000  Uiso   1.00
Cu471  Cu    0.54689   0.83334   0.25000   0.00000  Uiso   1.00
H472   H     0.61579   0.82356   0.08196   0.00000  Uiso   1.00
H473   H     0.57548   0.70395   0.24917   0.00000  Uiso   1.00
H474   H     0.42422   0.70400   0.25188   0.00000  Uiso   1.00
H475   H     0.42423   0.96273   0.25187   0.00000  Uiso   1.00
H476   H     0.61241   0.88900   0.29285   0.00000  Uiso   1.00
H477   H     0.36466   0.88816   0.29447   0.00000  Uiso   1.00
H478   H     0.38838   0.77871   0.20506   0.00000  Uiso   1.00
H479   H     0.63542   0.77860   0.20532   0.00000  Uiso   1.00
H480   H     0.61658   0.86150   0.41319   0.00000  Uiso   1.00
H481   H     0.63564   0.83080   0.48749   0.00000  Uiso   1.00
H482   H     0.46657   0.84566   0.09291   0.00000  Uiso   1.00
H483   H     0.41657   0.86445   0.05557   0.00000  Uiso   1.00
H484   H     0.35906   0.85687   0.00961   0.00000  Uiso   1.00
H485   H     0.55600   0.87412   0.36979   0.00000  Uiso   1.00
H486   H     0.57547   0.96269   0.24925   0.00000  Uiso   1.00
N487   N     0.38265   0.83332   0.24999   0.00000  Uiso   1.00
N488   N     0.61735   0.83335   0.24999   0.00000  Uiso   1.00
O489   O     0.46042   0.89345   0.25000   0.00000  Uiso   1.00
O490   O     0.53961   0.89346   0.25000   0.00000  Uiso   1.00
O491   O     0.44108   0.83332   0.32549   0.00000  Uiso   1.00
O492   O     0.52027   0.83333   0.32549   0.00000  Uiso   1.00
O493   O     0.46039   0.77321   0.24999   0.00000  Uiso   1.00
O494   O     0.53958   0.77322   0.24999   0.00000  Uiso   1.00
O495   O     0.47973   0.83334   0.17451   0.00000  Uiso   1.00
O496   O     0.55892   0.83335   0.17451   0.00000  Uiso   1.00
O497   O     0.37519   0.83091   0.41239   0.00000  Uiso   1.00
C498   C     0.37245   0.78738   0.41369   0.00000  Uiso   1.00
H499   H     0.35941   0.77623   0.45435   0.00000  Uiso   1.00
H500   H     0.40833   0.77296   0.39482   0.00000  Uiso   1.00
C501   C     0.33716   0.77294   0.38455   0.00000  Uiso   1.00
H502   H     0.34854   0.78461   0.34420   0.00000  Uiso   1.00
H503   H     0.33656   0.73877   0.38347   0.00000  Uiso   1.00
H504   H     0.63339   0.78419   0.40422   0.00000  Uiso   1.00
C505   C     0.83330   0.91257   0.25015   0.00000  Uiso   1.00
C506   C     0.81325   0.85473   0.48884   0.00000  Uiso   1.00
C507   C     0.82791   0.85463   0.43390   0.00000  Uiso   1.00
C508   C     0.84884   0.85036   0.01558   0.00000  Uiso   1.00
C509   C     0.89815   0.84852   0.48690   0.00000  Uiso   1.00
C510   C     0.91201   0.85819   0.43451   0.00000  Uiso   1.00
C511   C     0.87703   0.86316   0.40886   0.00000  Uiso   1.00
C512   C     0.83697   0.84459   0.06932   0.00000  Uiso   1.00
C513   C     0.92103   0.83166   0.06416   0.00000  Uiso   1.00
C514   C     0.79315   0.84545   0.40665   0.00000  Uiso   1.00
C515   C     0.87562   0.97870   0.24981   0.00000  Uiso   1.00
C516   C     0.80771   0.83693   0.34983   0.00000  Uiso   1.00
C517   C     0.87562   0.68795   0.24977   0.00000  Uiso   1.00
C518   C     0.83322   0.70945   0.25039   0.00000  Uiso   1.00
C519   C     0.79076   0.68798   0.25126   0.00000  Uiso   1.00
C520   C     0.79076   0.97872   0.25126   0.00000  Uiso   1.00
C521   C     0.83322   0.95723   0.25042   0.00000  Uiso   1.00
C522   C     0.96895   0.86397   0.27412   0.00000  Uiso   1.00
C523   C     0.68488   0.86374   0.27457   0.00000  Uiso   1.00
C524   C     0.69797   0.80303   0.22516   0.00000  Uiso   1.00
C525   C     0.98184   0.80297   0.22531   0.00000  Uiso   1.00
C526   C     0.83329   0.75410   0.25014   0.00000  Uiso   1.00
C527   C     0.85901   0.83353   0.15026   0.00000  Uiso   1.00
C528   C     0.93303   0.83702   0.01086   0.00000  Uiso   1.00
C529   C     0.87291   0.83651   0.09380   0.00000  Uiso   1.00
C530   C     0.74366   0.84296   0.43535   0.00000  Uiso   1.00
C531   C     0.72968   0.85368   0.48782   0.00000  Uiso   1.00
C532   C     0.76367   0.85823   0.01464   0.00000  Uiso   1.00
Cu533  Cu    0.78645   0.83333   0.25000   0.00000  Uiso   1.00
Cu534  Cu    0.88022   0.83334   0.25000   0.00000  Uiso   1.00
H535   H     0.94912   0.82356   0.08196   0.00000  Uiso   1.00
H536   H     0.90882   0.70395   0.24917   0.00000  Uiso   1.00
H537   H     0.75756   0.70400   0.25188   0.00000  Uiso   1.00
H538   H     0.75757   0.96273   0.25187   0.00000  Uiso   1.00
H539   H     0.94575   0.88900   0.29285   0.00000  Uiso   1.00
H540   H     0.69800   0.88816   0.29447   0.00000  Uiso   1.00
H541   H     0.72171   0.77871   0.20506   0.00000  Uiso   1.00
H542   H     0.96875   0.77860   0.20532   0.00000  Uiso   1.00
H543   H     0.94991   0.86150   0.41319   0.00000  Uiso   1.00
H544   H     0.96898   0.83080   0.48749   0.00000  Uiso   1.00
H545   H     0.79991   0.84566   0.09291   0.00000  Uiso   1.00
H546   H     0.74990   0.86445   0.05557   0.00000  Uiso   1.00
H547   H     0.69240   0.85687   0.00961   0.00000  Uiso   1.00
H548   H     0.88934   0.87412   0.36979   0.00000  Uiso   1.00
H549   H     0.90880   0.96269   0.24925   0.00000  Uiso   1.00
N550   N     0.71598   0.83332   0.24999   0.00000  Uiso   1.00
N551   N     0.95069   0.83335   0.24999   0.00000  Uiso   1.00
O552   O     0.79375   0.89345   0.25000   0.00000  Uiso   1.00
O553   O     0.87294   0.89346   0.25000   0.00000  Uiso   1.00
O554   O     0.77441   0.83332   0.32549   0.00000  Uiso   1.00
O555   O     0.85360   0.83333   0.32549   0.00000  Uiso   1.00
O556   O     0.79373   0.77321   0.24999   0.00000  Uiso   1.00
O557   O     0.87292   0.77322   0.24999   0.00000  Uiso   1.00
O558   O     0.81306   0.83334   0.17451   0.00000  Uiso   1.00
O559   O     0.89225   0.83335   0.17451   0.00000  Uiso   1.00
O560   O     0.70852   0.83091   0.41239   0.00000  Uiso   1.00
C561   C     0.70579   0.78738   0.41369   0.00000  Uiso   1.00
H562   H     0.69275   0.77623   0.45435   0.00000  Uiso   1.00
H563   H     0.74167   0.77296   0.39482   0.00000  Uiso   1.00
C564   C     0.67050   0.77294   0.38455   0.00000  Uiso   1.00
H565   H     0.68187   0.78461   0.34420   0.00000  Uiso   1.00
H566   H     0.66990   0.73877   0.38347   0.00000  Uiso   1.00
H567   H     0.96672   0.78419   0.40422   0.00000  Uiso   1.00
C568   C     0.16663   0.24590   0.75015   0.00000  Uiso   1.00
C569   C     0.14658   0.18806   0.98884   0.00000  Uiso   1.00
C570   C     0.16125   0.18796   0.93390   0.00000  Uiso   1.00
C571   C     0.18217   0.18369   0.51558   0.00000  Uiso   1.00
C572   C     0.23148   0.18186   0.98690   0.00000  Uiso   1.00
C573   C     0.24534   0.19153   0.93451   0.00000  Uiso   1.00
C574   C     0.21036   0.19649   0.90886   0.00000  Uiso   1.00
C575   C     0.17030   0.17792   0.56932   0.00000  Uiso   1.00
C576   C     0.25437   0.16500   0.56416   0.00000  Uiso   1.00
C577   C     0.12649   0.17878   0.90665   0.00000  Uiso   1.00
C578   C     0.20895   0.31203   0.74981   0.00000  Uiso   1.00
C579   C     0.14104   0.17027   0.84983   0.00000  Uiso   1.00
C580   C     0.20896   0.02129   0.74977   0.00000  Uiso   1.00
C581   C     0.16655   0.04278   0.75039   0.00000  Uiso   1.00
C582   C     0.12409   0.02131   0.75126   0.00000  Uiso   1.00
C583   C     0.12409   0.31205   0.75126   0.00000  Uiso   1.00
C584   C     0.16655   0.29056   0.75042   0.00000  Uiso   1.00
C585   C     0.30229   0.19730   0.77412   0.00000  Uiso   1.00
C586   C     0.01822   0.19707   0.77457   0.00000  Uiso   1.00
C587   C     0.03130   0.13636   0.72516   0.00000  Uiso   1.00
C588   C     0.31517   0.13630   0.72531   0.00000  Uiso   1.00
C589   C     0.16662   0.08743   0.75014   0.00000  Uiso   1.00
C590   C     0.19234   0.16686   0.65026   0.00000  Uiso   1.00
C591   C     0.26637   0.17036   0.51086   0.00000  Uiso   1.00
C592   C     0.20624   0.16984   0.59380   0.00000  Uiso   1.00
C593   C     0.07700   0.17629   0.93535   0.00000  Uiso   1.00
C594   C     0.06301   0.18701   0.98782   0.00000  Uiso   1.00
C595   C     0.09700   0.19157   0.51464   0.00000  Uiso   1.00
Cu596  Cu    0.11978   0.16666   0.75000   0.00000  Uiso   1.00
Cu597  Cu    0.21355   0.16667   0.75000   0.00000  Uiso   1.00
H598   H     0.28246   0.15689   0.58196   0.00000  Uiso   1.00
H599   H     0.24215   0.03728   0.74917   0.00000  Uiso   1.00
H600   H     0.09089   0.03733   0.75188   0.00000  Uiso   1.00
H601   H     0.09090   0.29606   0.75187   0.00000  Uiso   1.00
H602   H     0.27908   0.22233   0.79285   0.00000  Uiso   1.00
H603   H     0.03133   0.22149   0.79447   0.00000  Uiso   1.00
H604   H     0.05505   0.11204   0.70506   0.00000  Uiso   1.00
H605   H     0.30208   0.11193   0.70532   0.00000  Uiso   1.00
H606   H     0.28324   0.19483   0.91319   0.00000  Uiso   1.00
H607   H     0.30231   0.16413   0.98749   0.00000  Uiso   1.00
H608   H     0.13324   0.17899   0.59291   0.00000  Uiso   1.00
H609   H     0.08323   0.19778   0.55557   0.00000  Uiso   1.00
H610   H     0.02573   0.19021   0.50961   0.00000  Uiso   1.00
H611   H     0.22267   0.20745   0.86979   0.00000  Uiso   1.00
H612   H     0.24213   0.29602   0.74925   0.00000  Uiso   1.00
N613   N     0.04931   0.16666   0.74999   0.00000  Uiso   1.00
N614   N     0.28402   0.16669   0.74999   0.00000  Uiso   1.00
O615   O     0.12708   0.22678   0.75000   0.00000  Uiso   1.00
O616   O     0.20627   0.22679   0.75000   0.00000  Uiso   1.00
O617   O     0.10775   0.16665   0.82549   0.00000  Uiso   1.00
O618   O     0.18694   0.16666   0.82549   0.00000  Uiso   1.00
O619   O     0.12706   0.10654   0.74999   0.00000  Uiso   1.00
O620   O     0.20625   0.10655   0.74999   0.00000  Uiso   1.00
O621   O     0.14640   0.16667   0.67451   0.00000  Uiso   1.00
O622   O     0.22559   0.16668   0.67451   0.00000  Uiso   1.00
O623   O     0.04185   0.16424   0.91239   0.00000  Uiso   1.00
C624   C     0.03912   0.12072   0.91369   0.00000  Uiso   1.00
H625   H     0.02608   0.10956   0.95435   0.00000  Uiso   1.00
H626   H     0.07500   0.10629   0.89482   0.00000  Uiso   1.00
C627   C     0.00383   0.10627   0.88455   0.00000  Uiso   1.00
H628   H     0.01520   0.11794   0.84420   0.00000  Uiso   1.00
H629   H     0.00323   0.07211   0.88347   0.00000  Uiso   1.00
H630   H     0.30006   0.11752   0.90422   0.00000  Uiso   1.00
C631   C     0.49996   0.24590   0.75015   0.00000  Uiso   1.00
C632   C     0.47991   0.18806   0.98884   0.00000  Uiso   1.00
C633   C     0.49458   0.18796   0.93390   0.00000  Uiso   1.00
C634   C     0.51551   0.18369   0.51558   0.00000  Uiso   1.00
C635   C     0.56481   0.18186   0.98690   0.00000  Uiso   1.00
C636   C     0.57868   0.19153   0.93451   0.00000  Uiso   1.00
C637   C     0.54369   0.19649   0.90886   0.00000  Uiso   1.00
C638   C     0.50364   0.17792   0.56932   0.00000  Uiso   1.00
C639   C     0.58770   0.16500   0.56416   0.00000  Uiso   1.00
C640   C     0.45982   0.17878   0.90665   0.00000  Uiso   1.00
C641   C     0.54228   0.31203   0.74981   0.00000  Uiso   1.00
C642   C     0.47438   0.17027   0.84983   0.00000  Uiso   1.00
C643   C     0.54229   0.02129   0.74977   0.00000  Uiso   1.00
C644   C     0.49989   0.04278   0.75039   0.00000  Uiso   1.00
C645   C     0.45742   0.02131   0.75126   0.00000  Uiso   1.00
C646   C     0.45743   0.31205   0.75126   0.00000  Uiso   1.00
C647   C     0.49988   0.29056   0.75042   0.00000  Uiso   1.00
C648   C     0.63562   0.19730   0.77412   0.00000  Uiso   1.00
C649   C     0.35155   0.19707   0.77457   0.00000  Uiso   1.00
C650   C     0.36464   0.13636   0.72516   0.00000  Uiso   1.00
C651   C     0.64851   0.13630   0.72531   0.00000  Uiso   1.00
C652   C     0.49996   0.08743   0.75014   0.00000  Uiso   1.00
C653   C     0.52568   0.16686   0.65026   0.00000  Uiso   1.00
C654   C     0.59970   0.17036   0.51086   0.00000  Uiso   1.00
C655   C     0.53958   0.16984   0.59380   0.00000  Uiso   1.00
C656   C     0.41033   0.17629   0.93535   0.00000  Uiso   1.00
C657   C     0.39635   0.18701   0.98782   0.00000  Uiso   1.00
C658   C     0.43033   0.19157   0.51464   0.00000  Uiso   1.00
Cu659  Cu    0.45311   0.16666   0.75000   0.00000  Uiso   1.00
Cu660  Cu    0.54689   0.16667   0.75000   0.00000  Uiso   1.00
H661   H     0.61579   0.15689   0.58196   0.00000  Uiso   1.00
H662   H     0.57548   0.03728   0.74917   0.00000  Uiso   1.00
H663   H     0.42422   0.03733   0.75188   0.00000  Uiso   1.00
H664   H     0.42423   0.29606   0.75187   0.00000  Uiso   1.00
H665   H     0.61241   0.22233   0.79285   0.00000  Uiso   1.00
H666   H     0.36466   0.22149   0.79447   0.00000  Uiso   1.00
H667   H     0.38838   0.11204   0.70506   0.00000  Uiso   1.00
H668   H     0.63542   0.11193   0.70532   0.00000  Uiso   1.00
H669   H     0.61658   0.19483   0.91319   0.00000  Uiso   1.00
H670   H     0.63564   0.16413   0.98749   0.00000  Uiso   1.00
H671   H     0.46657   0.17899   0.59291   0.00000  Uiso   1.00
H672   H     0.41657   0.19778   0.55557   0.00000  Uiso   1.00
H673   H     0.35906   0.19021   0.50961   0.00000  Uiso   1.00
H674   H     0.55600   0.20745   0.86979   0.00000  Uiso   1.00
H675   H     0.57547   0.29602   0.74925   0.00000  Uiso   1.00
N676   N     0.38265   0.16666   0.74999   0.00000  Uiso   1.00
N677   N     0.61735   0.16669   0.74999   0.00000  Uiso   1.00
O678   O     0.46042   0.22678   0.75000   0.00000  Uiso   1.00
O679   O     0.53961   0.22679   0.75000   0.00000  Uiso   1.00
O680   O     0.44108   0.16665   0.82549   0.00000  Uiso   1.00
O681   O     0.52027   0.16666   0.82549   0.00000  Uiso   1.00
O682   O     0.46039   0.10654   0.74999   0.00000  Uiso   1.00
O683   O     0.53958   0.10655   0.74999   0.00000  Uiso   1.00
O684   O     0.47973   0.16667   0.67451   0.00000  Uiso   1.00
O685   O     0.55892   0.16668   0.67451   0.00000  Uiso   1.00
O686   O     0.37519   0.16424   0.91239   0.00000  Uiso   1.00
C687   C     0.37245   0.12072   0.91369   0.00000  Uiso   1.00
H688   H     0.35941   0.10956   0.95435   0.00000  Uiso   1.00
H689   H     0.40833   0.10629   0.89482   0.00000  Uiso   1.00
C690   C     0.33716   0.10627   0.88455   0.00000  Uiso   1.00
H691   H     0.34854   0.11794   0.84420   0.00000  Uiso   1.00
H692   H     0.33656   0.07211   0.88347   0.00000  Uiso   1.00
H693   H     0.63339   0.11752   0.90422   0.00000  Uiso   1.00
C694   C     0.83330   0.24590   0.75015   0.00000  Uiso   1.00
C695   C     0.81325   0.18806   0.98884   0.00000  Uiso   1.00
C696   C     0.82791   0.18796   0.93390   0.00000  Uiso   1.00
C697   C     0.84884   0.18369   0.51558   0.00000  Uiso   1.00
C698   C     0.89815   0.18186   0.98690   0.00000  Uiso   1.00
C699   C     0.91201   0.19153   0.93451   0.00000  Uiso   1.00
C700   C     0.87703   0.19649   0.90886   0.00000  Uiso   1.00
C701   C     0.83697   0.17792   0.56932   0.00000  Uiso   1.00
C702   C     0.92103   0.16500   0.56416   0.00000  Uiso   1.00
C703   C     0.79315   0.17878   0.90665   0.00000  Uiso   1.00
C704   C     0.87562   0.31203   0.74981   0.00000  Uiso   1.00
C705   C     0.80771   0.17027   0.84983   0.00000  Uiso   1.00
C706   C     0.87562   0.02129   0.74977   0.00000  Uiso   1.00
C707   C     0.83322   0.04278   0.75039   0.00000  Uiso   1.00
C708   C     0.79076   0.02131   0.75126   0.00000  Uiso   1.00
C709   C     0.79076   0.31205   0.75126   0.00000  Uiso   1.00
C710   C     0.83322   0.29056   0.75042   0.00000  Uiso   1.00
C711   C     0.96895   0.19730   0.77412   0.00000  Uiso   1.00
C712   C     0.68488   0.19707   0.77457   0.00000  Uiso   1.00
C713   C     0.69797   0.13636   0.72516   0.00000  Uiso   1.00
C714   C     0.98184   0.13630   0.72531   0.00000  Uiso   1.00
C715   C     0.83329   0.08743   0.75014   0.00000  Uiso   1.00
C716   C     0.85901   0.16686   0.65026   0.00000  Uiso   1.00
C717   C     0.93303   0.17036   0.51086   0.00000  Uiso   1.00
C718   C     0.87291   0.16984   0.59380   0.00000  Uiso   1.00
C719   C     0.74366   0.17629   0.93535   0.00000  Uiso   1.00
C720   C     0.72968   0.18701   0.98782   0.00000  Uiso   1.00
C721   C     0.76367   0.19157   0.51464   0.00000  Uiso   1.00
Cu722  Cu    0.78645   0.16666   0.75000   0.00000  Uiso   1.00
Cu723  Cu    0.88022   0.16667   0.75000   0.00000  Uiso   1.00
H724   H     0.94912   0.15689   0.58196   0.00000  Uiso   1.00
H725   H     0.90882   0.03728   0.74917   0.00000  Uiso   1.00
H726   H     0.75756   0.03733   0.75188   0.00000  Uiso   1.00
H727   H     0.75757   0.29606   0.75187   0.00000  Uiso   1.00
H728   H     0.94575   0.22233   0.79285   0.00000  Uiso   1.00
H729   H     0.69800   0.22149   0.79447   0.00000  Uiso   1.00
H730   H     0.72171   0.11204   0.70506   0.00000  Uiso   1.00
H731   H     0.96875   0.11193   0.70532   0.00000  Uiso   1.00
H732   H     0.94991   0.19483   0.91319   0.00000  Uiso   1.00
H733   H     0.96898   0.16413   0.98749   0.00000  Uiso   1.00
H734   H     0.79991   0.17899   0.59291   0.00000  Uiso   1.00
H735   H     0.74990   0.19778   0.55557   0.00000  Uiso   1.00
H736   H     0.69240   0.19021   0.50961   0.00000  Uiso   1.00
H737   H     0.88934   0.20745   0.86979   0.00000  Uiso   1.00
H738   H     0.90880   0.29602   0.74925   0.00000  Uiso   1.00
N739   N     0.71598   0.16666   0.74999   0.00000  Uiso   1.00
N740   N     0.95069   0.16669   0.74999   0.00000  Uiso   1.00
O741   O     0.79375   0.22678   0.75000   0.00000  Uiso   1.00
O742   O     0.87294   0.22679   0.75000   0.00000  Uiso   1.00
O743   O     0.77441   0.16665   0.82549   0.00000  Uiso   1.00
O744   O     0.85360   0.16666   0.82549   0.00000  Uiso   1.00
O745   O     0.79373   0.10654   0.74999   0.00000  Uiso   1.00
O746   O     0.87292   0.10655   0.74999   0.00000  Uiso   1.00
O747   O     0.81306   0.16667   0.67451   0.00000  Uiso   1.00
O748   O     0.89225   0.16668   0.67451   0.00000  Uiso   1.00
O749   O     0.70852   0.16424   0.91239   0.00000  Uiso   1.00
C750   C     0.70579   0.12072   0.91369   0.00000  Uiso   1.00
H751   H     0.69275   0.10956   0.95435   0.00000  Uiso   1.00
H752   H     0.74167   0.10629   0.89482   0.00000  Uiso   1.00
C753   C     0.67050   0.10627   0.88455   0.00000  Uiso   1.00
H754   H     0.68187   0.11794   0.84420   0.00000  Uiso   1.00
H755   H     0.66990   0.07211   0.88347   0.00000  Uiso   1.00
H756   H     0.96672   0.11752   0.90422   0.00000  Uiso   1.00
C757   C     0.16663   0.57924   0.75015   0.00000  Uiso   1.00
C758   C     0.14658   0.52140   0.98884   0.00000  Uiso   1.00
C759   C     0.16125   0.52130   0.93390   0.00000  Uiso   1.00
C760   C     0.18217   0.51702   0.51558   0.00000  Uiso   1.00
C761   C     0.23148   0.51519   0.98690   0.00000  Uiso   1.00
C762   C     0.24534   0.52486   0.93451   0.00000  Uiso   1.00
C763   C     0.21036   0.52983   0.90886   0.00000  Uiso   1.00
C764   C     0.17030   0.51125   0.56932   0.00000  Uiso   1.00
C765   C     0.25437   0.49833   0.56416   0.00000  Uiso   1.00
C766   C     0.12649   0.51211   0.90665   0.00000  Uiso   1.00
C767   C     0.20895   0.64536   0.74981   0.00000  Uiso   1.00
C768   C     0.14104   0.50360   0.84983   0.00000  Uiso   1.00
C769   C     0.20896   0.35462   0.74977   0.00000  Uiso   1.00
C770   C     0.16655   0.37611   0.75039   0.00000  Uiso   1.00
C771   C     0.12409   0.35465   0.75126   0.00000  Uiso   1.00
C772   C     0.12409   0.64539   0.75126   0.00000  Uiso   1.00
C773   C     0.16655   0.62390   0.75042   0.00000  Uiso   1.00
C774   C     0.30229   0.53064   0.77412   0.00000  Uiso   1.00
C775   C     0.01822   0.53041   0.77457   0.00000  Uiso   1.00
C776   C     0.03130   0.46969   0.72516   0.00000  Uiso   1.00
C777   C     0.31517   0.46964   0.72531   0.00000  Uiso   1.00
C778   C     0.16662   0.42077   0.75014   0.00000  Uiso   1.00
C779   C     0.19234   0.50020   0.65026   0.00000  Uiso   1.00
C780   C     0.26637   0.50369   0.51086   0.00000  Uiso   1.00
C781   C     0.20624   0.50317   0.59380   0.00000  Uiso   1.00
C782   C     0.07700   0.50962   0.93535   0.00000  Uiso   1.00
C783   C     0.06301   0.52035   0.98782   0.00000  Uiso   1.00
C784   C     0.09700   0.52490   0.51464   0.00000  Uiso   1.00
Cu785  Cu    0.11978   0.49999   0.75000   0.00000  Uiso   1.00
Cu786  Cu    0.21355   0.50001   0.75000   0.00000  Uiso   1.00
H787   H     0.28246   0.49022   0.58196   0.00000  Uiso   1.00
H788   H     0.24215   0.37061   0.74917   0.00000  Uiso   1.00
H789   H     0.09089   0.37066   0.75188   0.00000  Uiso   1.00
H790   H     0.09090   0.62939   0.75187   0.00000  Uiso   1.00
H791   H     0.27908   0.55567   0.79285   0.00000  Uiso   1.00
H792   H     0.03133   0.55482   0.79447   0.00000  Uiso   1.00
H793   H     0.05505   0.44537   0.70506   0.00000  Uiso   1.00
H794   H     0.30208   0.44527   0.70532   0.00000  Uiso   1.00
H795   H     0.28324   0.52816   0.91319   0.00000  Uiso   1.00
H796   H     0.30231   0.49747   0.98749   0.00000  Uiso   1.00
H797   H     0.13324   0.51233   0.59291   0.00000  Uiso   1.00
H798   H     0.08323   0.53112   0.55557   0.00000  Uiso   1.00
H799   H     0.02573   0.52354   0.50961   0.00000  Uiso   1.00
H800   H     0.22267   0.54078   0.86979   0.00000  Uiso   1.00
H801   H     0.24213   0.62935   0.74925   0.00000  Uiso   1.00
N802   N     0.04931   0.49999   0.74999   0.00000  Uiso   1.00
N803   N     0.28402   0.50002   0.74999   0.00000  Uiso   1.00
O804   O     0.12708   0.56011   0.75000   0.00000  Uiso   1.00
O805   O     0.20627   0.56012   0.75000   0.00000  Uiso   1.00
O806   O     0.10775   0.49998   0.82549   0.00000  Uiso   1.00
O807   O     0.18694   0.49999   0.82549   0.00000  Uiso   1.00
O808   O     0.12706   0.43988   0.74999   0.00000  Uiso   1.00
O809   O     0.20625   0.43989   0.74999   0.00000  Uiso   1.00
O810   O     0.14640   0.50001   0.67451   0.00000  Uiso   1.00
O811   O     0.22559   0.50002   0.67451   0.00000  Uiso   1.00
O812   O     0.04185   0.49758   0.91239   0.00000  Uiso   1.00
C813   C     0.03912   0.45405   0.91369   0.00000  Uiso   1.00
H814   H     0.02608   0.44289   0.95435   0.00000  Uiso   1.00
H815   H     0.07500   0.43962   0.89482   0.00000  Uiso   1.00
C816   C     0.00383   0.43960   0.88455   0.00000  Uiso   1.00
H817   H     0.01520   0.45127   0.84420   0.00000  Uiso   1.00
H818   H     0.00323   0.40544   0.88347   0.00000  Uiso   1.00
H819   H     0.30006   0.45085   0.90422   0.00000  Uiso   1.00
C820   C     0.49996   0.57924   0.75015   0.00000  Uiso   1.00
C821   C     0.47991   0.52140   0.98884   0.00000  Uiso   1.00
C822   C     0.49458   0.52130   0.93390   0.00000  Uiso   1.00
C823   C     0.51551   0.51702   0.51558   0.00000  Uiso   1.00
C824   C     0.56481   0.51519   0.98690   0.00000  Uiso   1.00
C825   C     0.57868   0.52486   0.93451   0.00000  Uiso   1.00
C826   C     0.54369   0.52983   0.90886   0.00000  Uiso   1.00
C827   C     0.50364   0.51125   0.56932   0.00000  Uiso   1.00
C828   C     0.58770   0.49833   0.56416   0.00000  Uiso   1.00
C829   C     0.45982   0.51211   0.90665   0.00000  Uiso   1.00
C830   C     0.54228   0.64536   0.74981   0.00000  Uiso   1.00
C831   C     0.47438   0.50360   0.84983   0.00000  Uiso   1.00
C832   C     0.54229   0.35462   0.74977   0.00000  Uiso   1.00
C833   C     0.49989   0.37611   0.75039   0.00000  Uiso   1.00
C834   C     0.45742   0.35465   0.75126   0.00000  Uiso   1.00
C835   C     0.45743   0.64539   0.75126   0.00000  Uiso   1.00
C836   C     0.49988   0.62390   0.75042   0.00000  Uiso   1.00
C837   C     0.63562   0.53064   0.77412   0.00000  Uiso   1.00
C838   C     0.35155   0.53041   0.77457   0.00000  Uiso   1.00
C839   C     0.36464   0.46969   0.72516   0.00000  Uiso   1.00
C840   C     0.64851   0.46964   0.72531   0.00000  Uiso   1.00
C841   C     0.49996   0.42077   0.75014   0.00000  Uiso   1.00
C842   C     0.52568   0.50020   0.65026   0.00000  Uiso   1.00
C843   C     0.59970   0.50369   0.51086   0.00000  Uiso   1.00
C844   C     0.53958   0.50317   0.59380   0.00000  Uiso   1.00
C845   C     0.41033   0.50962   0.93535   0.00000  Uiso   1.00
C846   C     0.39635   0.52035   0.98782   0.00000  Uiso   1.00
C847   C     0.43033   0.52490   0.51464   0.00000  Uiso   1.00
Cu848  Cu    0.45311   0.49999   0.75000   0.00000  Uiso   1.00
Cu849  Cu    0.54689   0.50001   0.75000   0.00000  Uiso   1.00
H850   H     0.61579   0.49022   0.58196   0.00000  Uiso   1.00
H851   H     0.57548   0.37061   0.74917   0.00000  Uiso   1.00
H852   H     0.42422   0.37066   0.75188   0.00000  Uiso   1.00
H853   H     0.42423   0.62939   0.75187   0.00000  Uiso   1.00
H854   H     0.61241   0.55567   0.79285   0.00000  Uiso   1.00
H855   H     0.36466   0.55482   0.79447   0.00000  Uiso   1.00
H856   H     0.38838   0.44537   0.70506   0.00000  Uiso   1.00
H857   H     0.63542   0.44527   0.70532   0.00000  Uiso   1.00
H858   H     0.61658   0.52816   0.91319   0.00000  Uiso   1.00
H859   H     0.63564   0.49747   0.98749   0.00000  Uiso   1.00
H860   H     0.46657   0.51233   0.59291   0.00000  Uiso   1.00
H861   H     0.41657   0.53112   0.55557   0.00000  Uiso   1.00
H862   H     0.35906   0.52354   0.50961   0.00000  Uiso   1.00
H863   H     0.55600   0.54078   0.86979   0.00000  Uiso   1.00
H864   H     0.57547   0.62935   0.74925   0.00000  Uiso   1.00
N865   N     0.38265   0.49999   0.74999   0.00000  Uiso   1.00
N866   N     0.61735   0.50002   0.74999   0.00000  Uiso   1.00
O867   O     0.46042   0.56011   0.75000   0.00000  Uiso   1.00
O868   O     0.53961   0.56012   0.75000   0.00000  Uiso   1.00
O869   O     0.44108   0.49998   0.82549   0.00000  Uiso   1.00
O870   O     0.52027   0.49999   0.82549   0.00000  Uiso   1.00
O871   O     0.46039   0.43988   0.74999   0.00000  Uiso   1.00
O872   O     0.53958   0.43989   0.74999   0.00000  Uiso   1.00
O873   O     0.47973   0.50001   0.67451   0.00000  Uiso   1.00
O874   O     0.55892   0.50002   0.67451   0.00000  Uiso   1.00
O875   O     0.37519   0.49758   0.91239   0.00000  Uiso   1.00
C876   C     0.37245   0.45405   0.91369   0.00000  Uiso   1.00
H877   H     0.35941   0.44289   0.95435   0.00000  Uiso   1.00
H878   H     0.40833   0.43962   0.89482   0.00000  Uiso   1.00
C879   C     0.33716   0.43960   0.88455   0.00000  Uiso   1.00
H880   H     0.34854   0.45127   0.84420   0.00000  Uiso   1.00
H881   H     0.33656   0.40544   0.88347   0.00000  Uiso   1.00
H882   H     0.63339   0.45085   0.90422   0.00000  Uiso   1.00
C883   C     0.83330   0.57924   0.75015   0.00000  Uiso   1.00
C884   C     0.81325   0.52140   0.98884   0.00000  Uiso   1.00
C885   C     0.82791   0.52130   0.93390   0.00000  Uiso   1.00
C886   C     0.84884   0.51702   0.51558   0.00000  Uiso   1.00
C887   C     0.89815   0.51519   0.98690   0.00000  Uiso   1.00
C888   C     0.91201   0.52486   0.93451   0.00000  Uiso   1.00
C889   C     0.87703   0.52983   0.90886   0.00000  Uiso   1.00
C890   C     0.83697   0.51125   0.56932   0.00000  Uiso   1.00
C891   C     0.92103   0.49833   0.56416   0.00000  Uiso   1.00
C892   C     0.79315   0.51211   0.90665   0.00000  Uiso   1.00
C893   C     0.87562   0.64536   0.74981   0.00000  Uiso   1.00
C894   C     0.80771   0.50360   0.84983   0.00000  Uiso   1.00
C895   C     0.87562   0.35462   0.74977   0.00000  Uiso   1.00
C896   C     0.83322   0.37611   0.75039   0.00000  Uiso   1.00
C897   C     0.79076   0.35465   0.75126   0.00000  Uiso   1.00
C898   C     0.79076   0.64539   0.75126   0.00000  Uiso   1.00
C899   C     0.83322   0.62390   0.75042   0.00000  Uiso   1.00
C900   C     0.96895   0.53064   0.77412   0.00000  Uiso   1.00
C901   C     0.68488   0.53041   0.77457   0.00000  Uiso   1.00
C902   C     0.69797   0.46969   0.72516   0.00000  Uiso   1.00
C903   C     0.98184   0.46964   0.72531   0.00000  Uiso   1.00
C904   C     0.83329   0.42077   0.75014   0.00000  Uiso   1.00
C905   C     0.85901   0.50020   0.65026   0.00000  Uiso   1.00
C906   C     0.93303   0.50369   0.51086   0.00000  Uiso   1.00
C907   C     0.87291   0.50317   0.59380   0.00000  Uiso   1.00
C908   C     0.74366   0.50962   0.93535   0.00000  Uiso   1.00
C909   C     0.72968   0.52035   0.98782   0.00000  Uiso   1.00
C910   C     0.76367   0.52490   0.51464   0.00000  Uiso   1.00
Cu911  Cu    0.78645   0.49999   0.75000   0.00000  Uiso   1.00
Cu912  Cu    0.88022   0.50001   0.75000   0.00000  Uiso   1.00
H913   H     0.94912   0.49022   0.58196   0.00000  Uiso   1.00
H914   H     0.90882   0.37061   0.74917   0.00000  Uiso   1.00
H915   H     0.75756   0.37066   0.75188   0.00000  Uiso   1.00
H916   H     0.75757   0.62939   0.75187   0.00000  Uiso   1.00
H917   H     0.94575   0.55567   0.79285   0.00000  Uiso   1.00
H918   H     0.69800   0.55482   0.79447   0.00000  Uiso   1.00
H919   H     0.72171   0.44537   0.70506   0.00000  Uiso   1.00
H920   H     0.96875   0.44527   0.70532   0.00000  Uiso   1.00
H921   H     0.94991   0.52816   0.91319   0.00000  Uiso   1.00
H922   H     0.96898   0.49747   0.98749   0.00000  Uiso   1.00
H923   H     0.79991   0.51233   0.59291   0.00000  Uiso   1.00
H924   H     0.74990   0.53112   0.55557   0.00000  Uiso   1.00
H925   H     0.69240   0.52354   0.50961   0.00000  Uiso   1.00
H926   H     0.88934   0.54078   0.86979   0.00000  Uiso   1.00
H927   H     0.90880   0.62935   0.74925   0.00000  Uiso   1.00
N928   N     0.71598   0.49999   0.74999   0.00000  Uiso   1.00
N929   N     0.95069   0.50002   0.74999   0.00000  Uiso   1.00
O930   O     0.79375   0.56011   0.75000   0.00000  Uiso   1.00
O931   O     0.87294   0.56012   0.75000   0.00000  Uiso   1.00
O932   O     0.77441   0.49998   0.82549   0.00000  Uiso   1.00
O933   O     0.85360   0.49999   0.82549   0.00000  Uiso   1.00
O934   O     0.79373   0.43988   0.74999   0.00000  Uiso   1.00
O935   O     0.87292   0.43989   0.74999   0.00000  Uiso   1.00
O936   O     0.81306   0.50001   0.67451   0.00000  Uiso   1.00
O937   O     0.89225   0.50002   0.67451   0.00000  Uiso   1.00
O938   O     0.70852   0.49758   0.91239   0.00000  Uiso   1.00
C939   C     0.70579   0.45405   0.91369   0.00000  Uiso   1.00
H940   H     0.69275   0.44289   0.95435   0.00000  Uiso   1.00
H941   H     0.74167   0.43962   0.89482   0.00000  Uiso   1.00
C942   C     0.67050   0.43960   0.88455   0.00000  Uiso   1.00
H943   H     0.68187   0.45127   0.84420   0.00000  Uiso   1.00
H944   H     0.66990   0.40544   0.88347   0.00000  Uiso   1.00
H945   H     0.96672   0.45085   0.90422   0.00000  Uiso   1.00
C946   C     0.16663   0.91257   0.75015   0.00000  Uiso   1.00
C947   C     0.14658   0.85473   0.98884   0.00000  Uiso   1.00
C948   C     0.16125   0.85463   0.93390   0.00000  Uiso   1.00
C949   C     0.18217   0.85036   0.51558   0.00000  Uiso   1.00
C950   C     0.23148   0.84852   0.98690   0.00000  Uiso   1.00
C951   C     0.24534   0.85819   0.93451   0.00000  Uiso   1.00
C952   C     0.21036   0.86316   0.90886   0.00000  Uiso   1.00
C953   C     0.17030   0.84459   0.56932   0.00000  Uiso   1.00
C954   C     0.25437   0.83166   0.56416   0.00000  Uiso   1.00
C955   C     0.12649   0.84545   0.90665   0.00000  Uiso   1.00
C956   C     0.20895   0.97870   0.74981   0.00000  Uiso   1.00
C957   C     0.14104   0.83693   0.84983   0.00000  Uiso   1.00
C958   C     0.20896   0.68795   0.74977   0.00000  Uiso   1.00
C959   C     0.16655   0.70945   0.75039   0.00000  Uiso   1.00
C960   C     0.12409   0.68798   0.75126   0.00000  Uiso   1.00
C961   C     0.12409   0.97872   0.75126   0.00000  Uiso   1.00
C962   C     0.16655   0.95723   0.75042   0.00000  Uiso   1.00
C963   C     0.30229   0.86397   0.77412   0.00000  Uiso   1.00
C964   C     0.01822   0.86374   0.77457   0.00000  Uiso   1.00
C965   C     0.03130   0.80303   0.72516   0.00000  Uiso   1.00
C966   C     0.31517   0.80297   0.72531   0.00000  Uiso   1.00
C967   C     0.16662   0.75410   0.75014   0.00000  Uiso   1.00
C968   C     0.19234   0.83353   0.65026   0.00000  Uiso   1.00
C969   C     0.26637   0.83702   0.51086   0.00000  Uiso   1.00
C970   C     0.20624   0.83651   0.59380   0.00000  Uiso   1.00
C971   C     0.07700   0.84296   0.93535   0.00000  Uiso   1.00
C972   C     0.06301   0.85368   0.98782   0.00000  Uiso   1.00
C973   C     0.09700   0.85823   0.51464   0.00000  Uiso   1.00
Cu974  Cu    0.11978   0.83333   0.75000   0.00000  Uiso   1.00
Cu975  Cu    0.21355   0.83334   0.75000   0.00000  Uiso   1.00
H976   H     0.28246   0.82356   0.58196   0.00000  Uiso   1.00
H977   H     0.24215   0.70395   0.74917   0.00000  Uiso   1.00
H978   H     0.09089   0.70400   0.75188   0.00000  Uiso   1.00
H979   H     0.09090   0.96273   0.75187   0.00000  Uiso   1.00
H980   H     0.27908   0.88900   0.79285   0.00000  Uiso   1.00
H981   H     0.03133   0.88816   0.79447   0.00000  Uiso   1.00
H982   H     0.05505   0.77871   0.70506   0.00000  Uiso   1.00
H983   H     0.30208   0.77860   0.70532   0.00000  Uiso   1.00
H984   H     0.28324   0.86150   0.91319   0.00000  Uiso   1.00
H985   H     0.30231   0.83080   0.98749   0.00000  Uiso   1.00
H986   H     0.13324   0.84566   0.59291   0.00000  Uiso   1.00
H987   H     0.08323   0.86445   0.55557   0.00000  Uiso   1.00
H988   H     0.02573   0.85687   0.50961   0.00000  Uiso   1.00
H989   H     0.22267   0.87412   0.86979   0.00000  Uiso   1.00
H990   H     0.24213   0.96269   0.74925   0.00000  Uiso   1.00
N991   N     0.04931   0.83332   0.74999   0.00000  Uiso   1.00
N992   N     0.28402   0.83335   0.74999   0.00000  Uiso   1.00
O993   O     0.12708   0.89345   0.75000   0.00000  Uiso   1.00
O994   O     0.20627   0.89346   0.75000   0.00000  Uiso   1.00
O995   O     0.10775   0.83332   0.82549   0.00000  Uiso   1.00
O996   O     0.18694   0.83333   0.82549   0.00000  Uiso   1.00
O997   O     0.12706   0.77321   0.74999   0.00000  Uiso   1.00
O998   O     0.20625   0.77322   0.74999   0.00000  Uiso   1.00
O999   O     0.14640   0.83334   0.67451   0.00000  Uiso   1.00
O1000  O     0.22559   0.83335   0.67451   0.00000  Uiso   1.00
O1001  O     0.04185   0.83091   0.91239   0.00000  Uiso   1.00
C1002  C     0.03912   0.78738   0.91369   0.00000  Uiso   1.00
H1003  H     0.02608   0.77623   0.95435   0.00000  Uiso   1.00
H1004  H     0.07500   0.77296   0.89482   0.00000  Uiso   1.00
C1005  C     0.00383   0.77294   0.88455   0.00000  Uiso   1.00
H1006  H     0.01520   0.78461   0.84420   0.00000  Uiso   1.00
H1007  H     0.00323   0.73877   0.88347   0.00000  Uiso   1.00
H1008  H     0.30006   0.78419   0.90422   0.00000  Uiso   1.00
C1009  C     0.49996   0.91257   0.75015   0.00000  Uiso   1.00
C1010  C     0.47991   0.85473   0.98884   0.00000  Uiso   1.00
C1011  C     0.49458   0.85463   0.93390   0.00000  Uiso   1.00
C1012  C     0.51551   0.85036   0.51558   0.00000  Uiso   1.00
C1013  C     0.56481   0.84852   0.98690   0.00000  Uiso   1.00
C1014  C     0.57868   0.85819   0.93451   0.00000  Uiso   1.00
C1015  C     0.54369   0.86316   0.90886   0.00000  Uiso   1.00
C1016  C     0.50364   0.84459   0.56932   0.00000  Uiso   1.00
C1017  C     0.58770   0.83166   0.56416   0.00000  Uiso   1.00
C1018  C     0.45982   0.84545   0.90665   0.00000  Uiso   1.00
C1019  C     0.54228   0.97870   0.74981   0.00000  Uiso   1.00
C1020  C     0.47438   0.83693   0.84983   0.00000  Uiso   1.00
C1021  C     0.54229   0.68795   0.74977   0.00000  Uiso   1.00
C1022  C     0.49989   0.70945   0.75039   0.00000  Uiso   1.00
C1023  C     0.45742   0.68798   0.75126   0.00000  Uiso   1.00
C1024  C     0.45743   0.97872   0.75126   0.00000  Uiso   1.00
C1025  C     0.49988   0.95723   0.75042   0.00000  Uiso   1.00
C1026  C     0.63562   0.86397   0.77412   0.00000  Uiso   1.00
C1027  C     0.35155   0.86374   0.77457   0.00000  Uiso   1.00
C1028  C     0.36464   0.80303   0.72516   0.00000  Uiso   1.00
C1029  C     0.64851   0.80297   0.72531   0.00000  Uiso   1.00
C1030  C     0.49996   0.75410   0.75014   0.00000  Uiso   1.00
C1031  C     0.52568   0.83353   0.65026   0.00000  Uiso   1.00
C1032  C     0.59970   0.83702   0.51086   0.00000  Uiso   1.00
C1033  C     0.53958   0.83651   0.59380   0.00000  Uiso   1.00
C1034  C     0.41033   0.84296   0.93535   0.00000  Uiso   1.00
C1035  C     0.39635   0.85368   0.98782   0.00000  Uiso   1.00
C1036  C     0.43033   0.85823   0.51464   0.00000  Uiso   1.00
Cu1037 Cu    0.45311   0.83333   0.75000   0.00000  Uiso   1.00
Cu1038 Cu    0.54689   0.83334   0.75000   0.00000  Uiso   1.00
H1039  H     0.61579   0.82356   0.58196   0.00000  Uiso   1.00
H1040  H     0.57548   0.70395   0.74917   0.00000  Uiso   1.00
H1041  H     0.42422   0.70400   0.75188   0.00000  Uiso   1.00
H1042  H     0.42423   0.96273   0.75187   0.00000  Uiso   1.00
H1043  H     0.61241   0.88900   0.79285   0.00000  Uiso   1.00
H1044  H     0.36466   0.88816   0.79447   0.00000  Uiso   1.00
H1045  H     0.38838   0.77871   0.70506   0.00000  Uiso   1.00
H1046  H     0.63542   0.77860   0.70532   0.00000  Uiso   1.00
H1047  H     0.61658   0.86150   0.91319   0.00000  Uiso   1.00
H1048  H     0.63564   0.83080   0.98749   0.00000  Uiso   1.00
H1049  H     0.46657   0.84566   0.59291   0.00000  Uiso   1.00
H1050  H     0.41657   0.86445   0.55557   0.00000  Uiso   1.00
H1051  H     0.35906   0.85687   0.50961   0.00000  Uiso   1.00
H1052  H     0.55600   0.87412   0.86979   0.00000  Uiso   1.00
H1053  H     0.57547   0.96269   0.74925   0.00000  Uiso   1.00
N1054  N     0.38265   0.83332   0.74999   0.00000  Uiso   1.00
N1055  N     0.61735   0.83335   0.74999   0.00000  Uiso   1.00
O1056  O     0.46042   0.89345   0.75000   0.00000  Uiso   1.00
O1057  O     0.53961   0.89346   0.75000   0.00000  Uiso   1.00
O1058  O     0.44108   0.83332   0.82549   0.00000  Uiso   1.00
O1059  O     0.52027   0.83333   0.82549   0.00000  Uiso   1.00
O1060  O     0.46039   0.77321   0.74999   0.00000  Uiso   1.00
O1061  O     0.53958   0.77322   0.74999   0.00000  Uiso   1.00
O1062  O     0.47973   0.83334   0.67451   0.00000  Uiso   1.00
O1063  O     0.55892   0.83335   0.67451   0.00000  Uiso   1.00
O1064  O     0.37519   0.83091   0.91239   0.00000  Uiso   1.00
C1065  C     0.37245   0.78738   0.91369   0.00000  Uiso   1.00
H1066  H     0.35941   0.77623   0.95435   0.00000  Uiso   1.00
H1067  H     0.40833   0.77296   0.89482   0.00000  Uiso   1.00
C1068  C     0.33716   0.77294   0.88455   0.00000  Uiso   1.00
H1069  H     0.34854   0.78461   0.84420   0.00000  Uiso   1.00
H1070  H     0.33656   0.73877   0.88347   0.00000  Uiso   1.00
H1071  H     0.63339   0.78419   0.90422   0.00000  Uiso   1.00
C1072  C     0.83330   0.91257   0.75015   0.00000  Uiso   1.00
C1073  C     0.81325   0.85473   0.98884   0.00000  Uiso   1.00
C1074  C     0.82791   0.85463   0.93390   0.00000  Uiso   1.00
C1075  C     0.84884   0.85036   0.51558   0.00000  Uiso   1.00
C1076  C     0.89815   0.84852   0.98690   0.00000  Uiso   1.00
C1077  C     0.91201   0.85819   0.93451   0.00000  Uiso   1.00
C1078  C     0.87703   0.86316   0.90886   0.00000  Uiso   1.00
C1079  C     0.83697   0.84459   0.56932   0.00000  Uiso   1.00
C1080  C     0.92103   0.83166   0.56416   0.00000  Uiso   1.00
C1081  C     0.79315   0.84545   0.90665   0.00000  Uiso   1.00
C1082  C     0.87562   0.97870   0.74981   0.00000  Uiso   1.00
C1083  C     0.80771   0.83693   0.84983   0.00000  Uiso   1.00
C1084  C     0.87562   0.68795   0.74977   0.00000  Uiso   1.00
C1085  C     0.83322   0.70945   0.75039   0.00000  Uiso   1.00
C1086  C     0.79076   0.68798   0.75126   0.00000  Uiso   1.00
C1087  C     0.79076   0.97872   0.75126   0.00000  Uiso   1.00
C1088  C     0.83322   0.95723   0.75042   0.00000  Uiso   1.00
C1089  C     0.96895   0.86397   0.77412   0.00000  Uiso   1.00
C1090  C     0.68488   0.86374   0.77457   0.00000  Uiso   1.00
C1091  C     0.69797   0.80303   0.72516   0.00000  Uiso   1.00
C1092  C     0.98184   0.80297   0.72531   0.00000  Uiso   1.00
C1093  C     0.83329   0.75410   0.75014   0.00000  Uiso   1.00
C1094  C     0.85901   0.83353   0.65026   0.00000  Uiso   1.00
C1095  C     0.93303   0.83702   0.51086   0.00000  Uiso   1.00
C1096  C     0.87291   0.83651   0.59380   0.00000  Uiso   1.00
C1097  C     0.74366   0.84296   0.93535   0.00000  Uiso   1.00
C1098  C     0.72968   0.85368   0.98782   0.00000  Uiso   1.00
C1099  C     0.76367   0.85823   0.51464   0.00000  Uiso   1.00
Cu1100 Cu    0.78645   0.83333   0.75000   0.00000  Uiso   1.00
Cu1101 Cu    0.88022   0.83334   0.75000   0.00000  Uiso   1.00
H1102  H     0.94912   0.82356   0.58196   0.00000  Uiso   1.00
H1103  H     0.90882   0.70395   0.74917   0.00000  Uiso   1.00
H1104  H     0.75756   0.70400   0.75188   0.00000  Uiso   1.00
H1105  H     0.75757   0.96273   0.75187   0.00000  Uiso   1.00
H1106  H     0.94575   0.88900   0.79285   0.00000  Uiso   1.00
H1107  H     0.69800   0.88816   0.79447   0.00000  Uiso   1.00
H1108  H     0.72171   0.77871   0.70506   0.00000  Uiso   1.00
H1109  H     0.96875   0.77860   0.70532   0.00000  Uiso   1.00
H1110  H     0.94991   0.86150   0.91319   0.00000  Uiso   1.00
H1111  H     0.96898   0.83080   0.98749   0.00000  Uiso   1.00
H1112  H     0.79991   0.84566   0.59291   0.00000  Uiso   1.00
H1113  H     0.74990   0.86445   0.55557   0.00000  Uiso   1.00
H1114  H     0.69240   0.85687   0.50961   0.00000  Uiso   1.00
H1115  H     0.88934   0.87412   0.86979   0.00000  Uiso   1.00
H1116  H     0.90880   0.96269   0.74925   0.00000  Uiso   1.00
N1117  N     0.71598   0.83332   0.74999   0.00000  Uiso   1.00
N1118  N     0.95069   0.83335   0.74999   0.00000  Uiso   1.00
O1119  O     0.79375   0.89345   0.75000   0.00000  Uiso   1.00
O1120  O     0.87294   0.89346   0.75000   0.00000  Uiso   1.00
O1121  O     0.77441   0.83332   0.82549   0.00000  Uiso   1.00
O1122  O     0.85360   0.83333   0.82549   0.00000  Uiso   1.00
O1123  O     0.79373   0.77321   0.74999   0.00000  Uiso   1.00
O1124  O     0.87292   0.77322   0.74999   0.00000  Uiso   1.00
O1125  O     0.81306   0.83334   0.67451   0.00000  Uiso   1.00
O1126  O     0.89225   0.83335   0.67451   0.00000  Uiso   1.00
O1127  O     0.70852   0.83091   0.91239   0.00000  Uiso   1.00
C1128  C     0.70579   0.78738   0.91369   0.00000  Uiso   1.00
H1129  H     0.69275   0.77623   0.95435   0.00000  Uiso   1.00
H1130  H     0.74167   0.77296   0.89482   0.00000  Uiso   1.00
C1131  C     0.67050   0.77294   0.88455   0.00000  Uiso   1.00
H1132  H     0.68187   0.78461   0.84420   0.00000  Uiso   1.00
H1133  H     0.66990   0.73877   0.88347   0.00000  Uiso   1.00
H1134  H     0.96672   0.78419   0.90422   0.00000  Uiso   1.00
loop_
_geom_bond_atom_site_label_1
_geom_bond_atom_site_label_2
_geom_bond_distance
_geom_bond_site_symmetry_2
_ccdc_geom_bond_type
C1     O48     1.297   .     A
C1     C17     1.451   .     S
C1     O49     1.297   .     A
C2     C3      1.418   .     A
C2     C571    1.417   .     S
C2     C595    1.402   .     S
C3     C10     1.429   .     A
C3     C7      1.410   .     A
C4     C8      1.403   .     A
C4     C569    1.417   1_554 S
C4     C572    1.410   1_554 S
C5     C6      1.390   .     A
C5     C571    1.410   .     S
C5     C591    1.390   .     S
C6     C7      1.383   .     A
C6     H39     1.084   .     S
C7     H44     1.073   .     S
C8     H41     1.075   .     S
C8     C25     1.400   .     A
C9     C25     1.396   .     A
C9     C24     1.389   .     A
C9     H31     1.083   .     S
C10    C26     1.417   .     A
C10    C12     1.492   .     S
C11    H45     1.083   .     S
C11    C17     1.401   .     A
C11    C202    1.384   .     S
C12    O50     1.310   .     A
C12    O51     1.302   .     A
C13    H32     1.083   .     S
C13    C14     1.401   .     A
C13    C389    1.384   1_545 S
C14    C15     1.401   .     A
C14    C22     1.451   .     S
C15    H33     1.083   .     S
C15    C394    1.384   1_545 S
C16    H34     1.083   .     S
C16    C17     1.401   .     A
C16    C204    1.384   .     S
C18    H35     1.080   .     S
C18    N47     1.369   .     A
C18    C82     1.421   .     S
C19    N46     1.368   .     A
C19    H36     1.082   .     S
C19    C144    1.421   1_455 S
C20    H37     1.081   .     S
C20    N46     1.369   .     A
C20    C147    1.422   1_455 S
C21    H38     1.081   .     S
C21    N47     1.369   .     A
C21    C83     1.422   .     S
C22    O52     1.297   .     A
C22    O53     1.297   .     A
C23    O55     1.302   .     A
C23    C25     1.462   .     S
C23    O54     1.298   .     A
C24    C572    1.390   1_554 S
C24    H607    1.066   1_554 S
C26    C27     1.397   .     A
C26    O56     1.382   .     S
C27    C595    1.378   .     S
C27    H610    1.071   .     S
C28    H42     1.078   .     S
C28    C594    1.378   1_554 S
C28    C569    1.402   1_554 S
Cu29   N46     2.027   .     S
Cu29   Cu30    2.698   .     S
Cu29   O50     1.963   .     S
Cu29   O54     1.958   .     S
Cu29   O48     1.964   .     S
Cu29   O52     1.964   .     S
Cu30   O51     1.958   .     S
Cu30   O49     1.964   .     S
Cu30   O53     1.964   .     S
Cu30   N47     2.027   .     S
Cu30   O55     1.963   .     S
H40    C591    1.066   .     S
H43    C594    1.071   1_554 S
O56    C57     1.416   .     S
C57    H58     1.114   .     S
C57    H59     1.115   .     S
C57    C60     1.522   .     S
C60    H62     1.110   .     S
C60    H61     1.110   .     S
C60    H189    1.109   1_455 S
H63    C123    1.109   .     S
C64    O111    1.297   .     A
C64    C80     1.451   .     S
C64    O112    1.297   .     A
C65    C66     1.418   .     A
C65    C634    1.417   .     S
C65    C658    1.402   .     S
C66    C73     1.429   .     A
C66    C70     1.410   .     A
C67    C71     1.403   .     A
C67    C632    1.417   1_554 S
C67    C635    1.410   1_554 S
C68    C69     1.390   .     A
C68    C634    1.410   .     S
C68    C654    1.390   .     S
C69    C70     1.383   .     A
C69    H102    1.084   .     S
C70    H107    1.073   .     S
C71    H104    1.075   .     S
C71    C88     1.400   .     A
C72    C88     1.396   .     A
C72    C87     1.389   .     A
C72    H94     1.083   .     S
C73    C89     1.417   .     A
C73    C75     1.492   .     S
C74    H108    1.083   .     S
C74    C80     1.401   .     A
C74    C265    1.384   .     S
C75    O113    1.310   .     A
C75    O114    1.302   .     A
C76    H95     1.083   .     S
C76    C77     1.401   .     A
C76    C452    1.384   1_545 S
C77    C78     1.401   .     A
C77    C85     1.451   .     S
C78    H96     1.083   .     S
C78    C457    1.384   1_545 S
C79    H97     1.083   .     S
C79    C80     1.401   .     A
C79    C267    1.384   .     S
C81    H98     1.080   .     S
C81    N110    1.369   .     A
C81    C145    1.421   .     S
C82    N109    1.368   .     A
C82    H99     1.082   .     S
C83    H100    1.081   .     S
C83    N109    1.369   .     A
C84    H101    1.081   .     S
C84    N110    1.369   .     A
C84    C146    1.422   .     S
C85    O115    1.297   .     A
C85    O116    1.297   .     A
C86    O118    1.302   .     A
C86    C88     1.462   .     S
C86    O117    1.298   .     A
C87    C635    1.390   1_554 S
C87    H670    1.066   1_554 S
C89    C90     1.397   .     A
C89    O119    1.382   .     S
C90    C658    1.378   .     S
C90    H673    1.071   .     S
C91    H105    1.078   .     S
C91    C657    1.378   1_554 S
C91    C632    1.402   1_554 S
Cu92   N109    2.027   .     S
Cu92   Cu93    2.698   .     S
Cu92   O113    1.963   .     S
Cu92   O117    1.958   .     S
Cu92   O111    1.964   .     S
Cu92   O115    1.964   .     S
Cu93   O114    1.958   .     S
Cu93   O112    1.964   .     S
Cu93   O116    1.964   .     S
Cu93   N110    2.027   .     S
Cu93   O118    1.963   .     S
H103   C654    1.066   .     S
H106   C657    1.071   1_554 S
O119   C120    1.416   .     S
C120   H121    1.114   .     S
C120   H122    1.115   .     S
C120   C123    1.522   .     S
C123   H125    1.110   .     S
C123   H124    1.110   .     S
H126   C186    1.109   .     S
C127   O174    1.297   .     A
C127   C143    1.451   .     S
C127   O175    1.297   .     A
C128   C129    1.418   .     A
C128   C697    1.417   .     S
C128   C721    1.402   .     S
C129   C136    1.429   .     A
C129   C133    1.410   .     A
C130   C134    1.403   .     A
C130   C695    1.417   1_554 S
C130   C698    1.410   1_554 S
C131   C132    1.390   .     A
C131   C697    1.410   .     S
C131   C717    1.390   .     S
C132   C133    1.383   .     A
C132   H165    1.084   .     S
C133   H170    1.073   .     S
C134   H167    1.075   .     S
C134   C151    1.400   .     A
C135   C151    1.396   .     A
C135   C150    1.389   .     A
C135   H157    1.083   .     S
C136   C152    1.417   .     A
C136   C138    1.492   .     S
C137   H171    1.083   .     S
C137   C143    1.401   .     A
C137   C328    1.384   .     S
C138   O176    1.310   .     A
C138   O177    1.302   .     A
C139   H158    1.083   .     S
C139   C140    1.401   .     A
C139   C515    1.384   1_545 S
C140   C141    1.401   .     A
C140   C148    1.451   .     S
C141   H159    1.083   .     S
C141   C520    1.384   1_545 S
C142   H160    1.083   .     S
C142   C143    1.401   .     A
C142   C330    1.384   .     S
C144   H161    1.080   .     S
C144   N173    1.369   .     A
C144   C19     1.421   1_655 S
C145   N172    1.368   .     A
C145   H162    1.082   .     S
C146   H163    1.081   .     S
C146   N172    1.369   .     A
C147   H164    1.081   .     S
C147   N173    1.369   .     A
C147   C20     1.422   1_655 S
C148   O178    1.297   .     A
C148   O179    1.297   .     A
C149   O181    1.302   .     A
C149   C151    1.462   .     S
C149   O180    1.298   .     A
C150   C698    1.390   1_554 S
C150   H733    1.066   1_554 S
C152   C153    1.397   .     A
C152   O182    1.382   .     S
C153   C721    1.378   .     S
C153   H736    1.071   .     S
C154   H168    1.078   .     S
C154   C720    1.378   1_554 S
C154   C695    1.402   1_554 S
Cu155  N172    2.027   .     S
Cu155  Cu156   2.698   .     S
Cu155  O176    1.963   .     S
Cu155  O180    1.958   .     S
Cu155  O174    1.964   .     S
Cu155  O178    1.964   .     S
Cu156  O177    1.958   .     S
Cu156  O175    1.964   .     S
Cu156  O179    1.964   .     S
Cu156  N173    2.027   .     S
Cu156  O181    1.963   .     S
H166   C717    1.066   .     S
H169   C720    1.071   1_554 S
O182   C183    1.416   .     S
C183   H184    1.114   .     S
C183   H185    1.115   .     S
C183   C186    1.522   .     S
C186   H188    1.110   .     S
C186   H187    1.110   .     S
H189   C60     1.109   1_655 S
C190   O237    1.297   .     A
C190   C206    1.451   .     S
C190   O238    1.297   .     A
C191   C192    1.418   .     A
C191   C760    1.417   .     S
C191   C784    1.402   .     S
C192   C199    1.429   .     A
C192   C196    1.410   .     A
C193   C197    1.403   .     A
C193   C758    1.417   1_554 S
C193   C761    1.410   1_554 S
C194   C195    1.390   .     A
C194   C760    1.410   .     S
C194   C780    1.390   .     S
C195   C196    1.383   .     A
C195   H228    1.084   .     S
C196   H233    1.073   .     S
C197   H230    1.075   .     S
C197   C214    1.400   .     A
C198   C214    1.396   .     A
C198   C213    1.389   .     A
C198   H220    1.083   .     S
C199   C215    1.417   .     A
C199   C201    1.492   .     S
C200   H234    1.083   .     S
C200   C206    1.401   .     A
C200   C391    1.384   .     S
C201   O239    1.310   .     A
C201   O240    1.302   .     A
C202   H221    1.083   .     S
C202   C203    1.401   .     A
C203   C204    1.401   .     A
C203   C211    1.451   .     S
C204   H222    1.083   .     S
C205   H223    1.083   .     S
C205   C206    1.401   .     A
C205   C393    1.384   .     S
C207   H224    1.080   .     S
C207   N236    1.369   .     A
C207   C271    1.421   .     S
C208   N235    1.368   .     A
C208   H225    1.082   .     S
C208   C333    1.421   1_455 S
C209   H226    1.081   .     S
C209   N235    1.369   .     A
C209   C336    1.422   1_455 S
C210   H227    1.081   .     S
C210   N236    1.369   .     A
C210   C272    1.422   .     S
C211   O241    1.297   .     A
C211   O242    1.297   .     A
C212   O244    1.302   .     A
C212   C214    1.462   .     S
C212   O243    1.298   .     A
C213   C761    1.390   1_554 S
C213   H796    1.066   1_554 S
C215   C216    1.397   .     A
C215   O245    1.382   .     S
C216   C784    1.378   .     S
C216   H799    1.071   .     S
C217   H231    1.078   .     S
C217   C783    1.378   1_554 S
C217   C758    1.402   1_554 S
Cu218  N235    2.027   .     S
Cu218  Cu219   2.698   .     S
Cu218  O239    1.963   .     S
Cu218  O243    1.958   .     S
Cu218  O237    1.964   .     S
Cu218  O241    1.964   .     S
Cu219  O240    1.958   .     S
Cu219  O238    1.964   .     S
Cu219  O242    1.964   .     S
Cu219  N236    2.027   .     S
Cu219  O244    1.963   .     S
H229   C780    1.066   .     S
H232   C783    1.071   1_554 S
O245   C246    1.416   .     S
C246   H247    1.114   .     S
C246   H248    1.115   .     S
C246   C249    1.522   .     S
C249   H251    1.110   .     S
C249   H250    1.110   .     S
C249   H378    1.109   1_455 S
H252   C312    1.109   .     S
C253   O300    1.297   .     A
C253   C269    1.451   .     S
C253   O301    1.297   .     A
C254   C255    1.418   .     A
C254   C823    1.417   .     S
C254   C847    1.402   .     S
C255   C262    1.429   .     A
C255   C259    1.410   .     A
C256   C260    1.403   .     A
C256   C821    1.417   1_554 S
C256   C824    1.410   1_554 S
C257   C258    1.390   .     A
C257   C823    1.410   .     S
C257   C843    1.390   .     S
C258   C259    1.383   .     A
C258   H291    1.084   .     S
C259   H296    1.073   .     S
C260   H293    1.075   .     S
C260   C277    1.400   .     A
C261   C277    1.396   .     A
C261   C276    1.389   .     A
C261   H283    1.083   .     S
C262   C278    1.417   .     A
C262   C264    1.492   .     S
C263   H297    1.083   .     S
C263   C269    1.401   .     A
C263   C454    1.384   .     S
C264   O302    1.310   .     A
C264   O303    1.302   .     A
C265   H284    1.083   .     S
C265   C266    1.401   .     A
C266   C267    1.401   .     A
C266   C274    1.451   .     S
C267   H285    1.083   .     S
C268   H286    1.083   .     S
C268   C269    1.401   .     A
C268   C456    1.384   .     S
C270   H287    1.080   .     S
C270   N299    1.369   .     A
C270   C334    1.421   .     S
C271   N298    1.368   .     A
C271   H288    1.082   .     S
C272   H289    1.081   .     S
C272   N298    1.369   .     A
C273   H290    1.081   .     S
C273   N299    1.369   .     A
C273   C335    1.422   .     S
C274   O304    1.297   .     A
C274   O305    1.297   .     A
C275   O307    1.302   .     A
C275   C277    1.462   .     S
C275   O306    1.298   .     A
C276   C824    1.390   1_554 S
C276   H859    1.066   1_554 S
C278   C279    1.397   .     A
C278   O308    1.382   .     S
C279   C847    1.378   .     S
C279   H862    1.071   .     S
C280   H294    1.078   .     S
C280   C846    1.378   1_554 S
C280   C821    1.402   1_554 S
Cu281  N298    2.027   .     S
Cu281  Cu282   2.698   .     S
Cu281  O302    1.963   .     S
Cu281  O306    1.958   .     S
Cu281  O300    1.964   .     S
Cu281  O304    1.964   .     S
Cu282  O303    1.958   .     S
Cu282  O301    1.964   .     S
Cu282  O305    1.964   .     S
Cu282  N299    2.027   .     S
Cu282  O307    1.963   .     S
H292   C843    1.066   .     S
H295   C846    1.071   1_554 S
O308   C309    1.416   .     S
C309   H310    1.114   .     S
C309   H311    1.115   .     S
C309   C312    1.522   .     S
C312   H314    1.110   .     S
C312   H313    1.110   .     S
H315   C375    1.109   .     S
C316   O363    1.297   .     A
C316   C332    1.451   .     S
C316   O364    1.297   .     A
C317   C318    1.418   .     A
C317   C886    1.417   .     S
C317   C910    1.402   .     S
C318   C325    1.429   .     A
C318   C322    1.410   .     A
C319   C323    1.403   .     A
C319   C884    1.417   1_554 S
C319   C887    1.410   1_554 S
C320   C321    1.390   .     A
C320   C886    1.410   .     S
C320   C906    1.390   .     S
C321   C322    1.383   .     A
C321   H354    1.084   .     S
C322   H359    1.073   .     S
C323   H356    1.075   .     S
C323   C340    1.400   .     A
C324   C340    1.396   .     A
C324   C339    1.389   .     A
C324   H346    1.083   .     S
C325   C341    1.417   .     A
C325   C327    1.492   .     S
C326   H360    1.083   .     S
C326   C332    1.401   .     A
C326   C517    1.384   .     S
C327   O365    1.310   .     A
C327   O366    1.302   .     A
C328   H347    1.083   .     S
C328   C329    1.401   .     A
C329   C330    1.401   .     A
C329   C337    1.451   .     S
C330   H348    1.083   .     S
C331   H349    1.083   .     S
C331   C332    1.401   .     A
C331   C519    1.384   .     S
C333   H350    1.080   .     S
C333   N362    1.369   .     A
C333   C208    1.421   1_655 S
C334   N361    1.368   .     A
C334   H351    1.082   .     S
C335   H352    1.081   .     S
C335   N361    1.369   .     A
C336   H353    1.081   .     S
C336   N362    1.369   .     A
C336   C209    1.422   1_655 S
C337   O367    1.297   .     A
C337   O368    1.297   .     A
C338   O370    1.302   .     A
C338   C340    1.462   .     S
C338   O369    1.298   .     A
C339   C887    1.390   1_554 S
C339   H922    1.066   1_554 S
C341   C342    1.397   .     A
C341   O371    1.382   .     S
C342   C910    1.378   .     S
C342   H925    1.071   .     S
C343   H357    1.078   .     S
C343   C909    1.378   1_554 S
C343   C884    1.402   1_554 S
Cu344  N361    2.027   .     S
Cu344  Cu345   2.698   .     S
Cu344  O365    1.963   .     S
Cu344  O369    1.958   .     S
Cu344  O363    1.964   .     S
Cu344  O367    1.964   .     S
Cu345  O366    1.958   .     S
Cu345  O364    1.964   .     S
Cu345  O368    1.964   .     S
Cu345  N362    2.027   .     S
Cu345  O370    1.963   .     S
H355   C906    1.066   .     S
H358   C909    1.071   1_554 S
O371   C372    1.416   .     S
C372   H373    1.114   .     S
C372   H374    1.115   .     S
C372   C375    1.522   .     S
C375   H377    1.110   .     S
C375   H376    1.110   .     S
H378   C249    1.109   1_655 S
C379   O426    1.297   .     A
C379   C395    1.451   .     S
C379   O427    1.297   .     A
C380   C381    1.418   .     A
C380   C949    1.417   .     S
C380   C973    1.402   .     S
C381   C388    1.429   .     A
C381   C385    1.410   .     A
C382   C386    1.403   .     A
C382   C947    1.417   1_554 S
C382   C950    1.410   1_554 S
C383   C384    1.390   .     A
C383   C949    1.410   .     S
C383   C969    1.390   .     S
C384   C385    1.383   .     A
C384   H417    1.084   .     S
C385   H422    1.073   .     S
C386   H419    1.075   .     S
C386   C403    1.400   .     A
C387   C403    1.396   .     A
C387   C402    1.389   .     A
C387   H409    1.083   .     S
C388   C404    1.417   .     A
C388   C390    1.492   .     S
C389   H423    1.083   .     S
C389   C395    1.401   .     A
C389   C13     1.384   1_565 S
C390   O428    1.310   .     A
C390   O429    1.302   .     A
C391   H410    1.083   .     S
C391   C392    1.401   .     A
C392   C393    1.401   .     A
C392   C400    1.451   .     S
C393   H411    1.083   .     S
C394   H412    1.083   .     S
C394   C395    1.401   .     A
C394   C15     1.384   1_565 S
C396   H413    1.080   .     S
C396   N425    1.369   .     A
C396   C460    1.421   .     S
C397   N424    1.368   .     A
C397   H414    1.082   .     S
C397   C522    1.421   1_455 S
C398   H415    1.081   .     S
C398   N424    1.369   .     A
C398   C525    1.422   1_455 S
C399   H416    1.081   .     S
C399   N425    1.369   .     A
C399   C461    1.422   .     S
C400   O430    1.297   .     A
C400   O431    1.297   .     A
C401   O433    1.302   .     A
C401   C403    1.462   .     S
C401   O432    1.298   .     A
C402   C950    1.390   1_554 S
C402   H985    1.066   1_554 S
C404   C405    1.397   .     A
C404   O434    1.382   .     S
C405   C973    1.378   .     S
C405   H988    1.071   .     S
C406   H420    1.078   .     S
C406   C972    1.378   1_554 S
C406   C947    1.402   1_554 S
Cu407  N424    2.027   .     S
Cu407  Cu408   2.698   .     S
Cu407  O428    1.963   .     S
Cu407  O432    1.958   .     S
Cu407  O426    1.964   .     S
Cu407  O430    1.964   .     S
Cu408  O429    1.958   .     S
Cu408  O427    1.964   .     S
Cu408  O431    1.964   .     S
Cu408  N425    2.027   .     S
Cu408  O433    1.963   .     S
H418   C969    1.066   .     S
H421   C972    1.071   1_554 S
O434   C435    1.416   .     S
C435   H436    1.114   .     S
C435   H437    1.115   .     S
C435   C438    1.522   .     S
C438   H440    1.110   .     S
C438   H439    1.110   .     S
C438   H567    1.109   1_455 S
H441   C501    1.109   .     S
C442   O489    1.297   .     A
C442   C458    1.451   .     S
C442   O490    1.297   .     A
C443   C444    1.418   .     A
C443   C1012   1.417   .     S
C443   C1036   1.402   .     S
C444   C451    1.429   .     A
C444   C448    1.410   .     A
C445   C449    1.403   .     A
C445   C1010   1.417   1_554 S
C445   C1013   1.410   1_554 S
C446   C447    1.390   .     A
C446   C1012   1.410   .     S
C446   C1032   1.390   .     S
C447   C448    1.383   .     A
C447   H480    1.084   .     S
C448   H485    1.073   .     S
C449   H482    1.075   .     S
C449   C466    1.400   .     A
C450   C466    1.396   .     A
C450   C465    1.389   .     A
C450   H472    1.083   .     S
C451   C467    1.417   .     A
C451   C453    1.492   .     S
C452   H486    1.083   .     S
C452   C458    1.401   .     A
C452   C76     1.384   1_565 S
C453   O491    1.310   .     A
C453   O492    1.302   .     A
C454   H473    1.083   .     S
C454   C455    1.401   .     A
C455   C456    1.401   .     A
C455   C463    1.451   .     S
C456   H474    1.083   .     S
C457   H475    1.083   .     S
C457   C458    1.401   .     A
C457   C78     1.384   1_565 S
C459   H476    1.080   .     S
C459   N488    1.369   .     A
C459   C523    1.421   .     S
C460   N487    1.368   .     A
C460   H477    1.082   .     S
C461   H478    1.081   .     S
C461   N487    1.369   .     A
C462   H479    1.081   .     S
C462   N488    1.369   .     A
C462   C524    1.422   .     S
C463   O493    1.297   .     A
C463   O494    1.297   .     A
C464   O496    1.302   .     A
C464   C466    1.462   .     S
C464   O495    1.298   .     A
C465   C1013   1.390   1_554 S
C465   H1048   1.066   1_554 S
C467   C468    1.397   .     A
C467   O497    1.382   .     S
C468   C1036   1.378   .     S
C468   H1051   1.071   .     S
C469   H483    1.078   .     S
C469   C1035   1.378   1_554 S
C469   C1010   1.402   1_554 S
Cu470  N487    2.027   .     S
Cu470  Cu471   2.698   .     S
Cu470  O491    1.963   .     S
Cu470  O495    1.958   .     S
Cu470  O489    1.964   .     S
Cu470  O493    1.964   .     S
Cu471  O492    1.958   .     S
Cu471  O490    1.964   .     S
Cu471  O494    1.964   .     S
Cu471  N488    2.027   .     S
Cu471  O496    1.963   .     S
H481   C1032   1.066   .     S
H484   C1035   1.071   1_554 S
O497   C498    1.416   .     S
C498   H499    1.114   .     S
C498   H500    1.115   .     S
C498   C501    1.522   .     S
C501   H503    1.110   .     S
C501   H502    1.110   .     S
H504   C564    1.109   .     S
C505   O552    1.297   .     A
C505   C521    1.451   .     S
C505   O553    1.297   .     A
C506   C507    1.418   .     A
C506   C1075   1.417   .     S
C506   C1099   1.402   .     S
C507   C514    1.429   .     A
C507   C511    1.410   .     A
C508   C512    1.403   .     A
C508   C1073   1.417   1_554 S
C508   C1076   1.410   1_554 S
C509   C510    1.390   .     A
C509   C1075   1.410   .     S
C509   C1095   1.390   .     S
C510   C511    1.383   .     A
C510   H543    1.084   .     S
C511   H548    1.073   .     S
C512   H545    1.075   .     S
C512   C529    1.400   .     A
C513   C529    1.396   .     A
C513   C528    1.389   .     A
C513   H535    1.083   .     S
C514   C530    1.417   .     A
C514   C516    1.492   .     S
C515   H549    1.083   .     S
C515   C521    1.401   .     A
C515   C139    1.384   1_565 S
C516   O554    1.310   .     A
C516   O555    1.302   .     A
C517   H536    1.083   .     S
C517   C518    1.401   .     A
C518   C519    1.401   .     A
C518   C526    1.451   .     S
C519   H537    1.083   .     S
C520   H538    1.083   .     S
C520   C521    1.401   .     A
C520   C141    1.384   1_565 S
C522   H539    1.080   .     S
C522   N551    1.369   .     A
C522   C397    1.421   1_655 S
C523   N550    1.368   .     A
C523   H540    1.082   .     S
C524   H541    1.081   .     S
C524   N550    1.369   .     A
C525   H542    1.081   .     S
C525   N551    1.369   .     A
C525   C398    1.422   1_655 S
C526   O556    1.297   .     A
C526   O557    1.297   .     A
C527   O559    1.302   .     A
C527   C529    1.462   .     S
C527   O558    1.298   .     A
C528   C1076   1.390   1_554 S
C528   H1111   1.066   1_554 S
C530   C531    1.397   .     A
C530   O560    1.382   .     S
C531   C1099   1.378   .     S
C531   H1114   1.071   .     S
C532   H546    1.078   .     S
C532   C1098   1.378   1_554 S
C532   C1073   1.402   1_554 S
Cu533  N550    2.027   .     S
Cu533  Cu534   2.698   .     S
Cu533  O554    1.963   .     S
Cu533  O558    1.958   .     S
Cu533  O552    1.964   .     S
Cu533  O556    1.964   .     S
Cu534  O555    1.958   .     S
Cu534  O553    1.964   .     S
Cu534  O557    1.964   .     S
Cu534  N551    2.027   .     S
Cu534  O559    1.963   .     S
H544   C1095   1.066   .     S
H547   C1098   1.071   1_554 S
O560   C561    1.416   .     S
C561   H562    1.114   .     S
C561   H563    1.115   .     S
C561   C564    1.522   .     S
C564   H566    1.110   .     S
C564   H565    1.110   .     S
H567   C438    1.109   1_655 S
C568   O615    1.297   .     A
C568   C584    1.451   .     S
C568   O616    1.297   .     A
C569   C570    1.418   .     A
C569   C4      1.417   1_556 S
C569   C28     1.402   1_556 S
C570   C577    1.429   .     A
C570   C574    1.410   .     A
C571   C575    1.403   .     A
C572   C573    1.390   .     A
C572   C4      1.410   1_556 S
C572   C24     1.390   1_556 S
C573   C574    1.383   .     A
C573   H606    1.084   .     S
C574   H611    1.073   .     S
C575   H608    1.075   .     S
C575   C592    1.400   .     A
C576   C592    1.396   .     A
C576   C591    1.389   .     A
C576   H598    1.083   .     S
C577   C593    1.417   .     A
C577   C579    1.492   .     S
C578   H612    1.083   .     S
C578   C584    1.401   .     A
C578   C769    1.384   .     S
C579   O617    1.310   .     A
C579   O618    1.302   .     A
C580   H599    1.083   .     S
C580   C581    1.401   .     A
C580   C956    1.384   1_545 S
C581   C582    1.401   .     A
C581   C589    1.451   .     S
C582   H600    1.083   .     S
C582   C961    1.384   1_545 S
C583   H601    1.083   .     S
C583   C584    1.401   .     A
C583   C771    1.384   .     S
C585   H602    1.080   .     S
C585   N614    1.369   .     A
C585   C649    1.421   .     S
C586   N613    1.368   .     A
C586   H603    1.082   .     S
C586   C711    1.421   1_455 S
C587   H604    1.081   .     S
C587   N613    1.369   .     A
C587   C714    1.422   1_455 S
C588   H605    1.081   .     S
C588   N614    1.369   .     A
C588   C650    1.422   .     S
C589   O619    1.297   .     A
C589   O620    1.297   .     A
C590   O622    1.302   .     A
C590   C592    1.462   .     S
C590   O621    1.298   .     A
C593   C594    1.397   .     A
C593   O623    1.382   .     S
C594   C28     1.378   1_556 S
C594   H43     1.071   1_556 S
C595   H609    1.078   .     S
Cu596  N613    2.027   .     S
Cu596  Cu597   2.698   .     S
Cu596  O617    1.963   .     S
Cu596  O621    1.958   .     S
Cu596  O615    1.964   .     S
Cu596  O619    1.964   .     S
Cu597  O618    1.958   .     S
Cu597  O616    1.964   .     S
Cu597  O620    1.964   .     S
Cu597  N614    2.027   .     S
Cu597  O622    1.963   .     S
H607   C24     1.066   1_556 S
O623   C624    1.416   .     S
C624   H625    1.114   .     S
C624   H626    1.115   .     S
C624   C627    1.522   .     S
C627   H629    1.110   .     S
C627   H628    1.110   .     S
C627   H756    1.109   1_455 S
H630   C690    1.109   .     S
C631   O678    1.297   .     A
C631   C647    1.451   .     S
C631   O679    1.297   .     A
C632   C633    1.418   .     A
C632   C67     1.417   1_556 S
C632   C91     1.402   1_556 S
C633   C640    1.429   .     A
C633   C637    1.410   .     A
C634   C638    1.403   .     A
C635   C636    1.390   .     A
C635   C67     1.410   1_556 S
C635   C87     1.390   1_556 S
C636   C637    1.383   .     A
C636   H669    1.084   .     S
C637   H674    1.073   .     S
C638   H671    1.075   .     S
C638   C655    1.400   .     A
C639   C655    1.396   .     A
C639   C654    1.389   .     A
C639   H661    1.083   .     S
C640   C656    1.417   .     A
C640   C642    1.492   .     S
C641   H675    1.083   .     S
C641   C647    1.401   .     A
C641   C832    1.384   .     S
C642   O680    1.310   .     A
C642   O681    1.302   .     A
C643   H662    1.083   .     S
C643   C644    1.401   .     A
C643   C1019   1.384   1_545 S
C644   C645    1.401   .     A
C644   C652    1.451   .     S
C645   H663    1.083   .     S
C645   C1024   1.384   1_545 S
C646   H664    1.083   .     S
C646   C647    1.401   .     A
C646   C834    1.384   .     S
C648   H665    1.080   .     S
C648   N677    1.369   .     A
C648   C712    1.421   .     S
C649   N676    1.368   .     A
C649   H666    1.082   .     S
C650   H667    1.081   .     S
C650   N676    1.369   .     A
C651   H668    1.081   .     S
C651   N677    1.369   .     A
C651   C713    1.422   .     S
C652   O682    1.297   .     A
C652   O683    1.297   .     A
C653   O685    1.302   .     A
C653   C655    1.462   .     S
C653   O684    1.298   .     A
C656   C657    1.397   .     A
C656   O686    1.382   .     S
C657   C91     1.378   1_556 S
C657   H106    1.071   1_556 S
C658   H672    1.078   .     S
Cu659  N676    2.027   .     S
Cu659  Cu660   2.698   .     S
Cu659  O680    1.963   .     S
Cu659  O684    1.958   .     S
Cu659  O678    1.964   .     S
Cu659  O682    1.964   .     S
Cu660  O681    1.958   .     S
Cu660  O679    1.964   .     S
Cu660  O683    1.964   .     S
Cu660  N677    2.027   .     S
Cu660  O685    1.963   .     S
H670   C87     1.066   1_556 S
O686   C687    1.416   .     S
C687   H688    1.114   .     S
C687   H689    1.115   .     S
C687   C690    1.522   .     S
C690   H692    1.110   .     S
C690   H691    1.110   .     S
H693   C753    1.109   .     S
C694   O741    1.297   .     A
C694   C710    1.451   .     S
C694   O742    1.297   .     A
C695   C696    1.418   .     A
C695   C130    1.417   1_556 S
C695   C154    1.402   1_556 S
C696   C703    1.429   .     A
C696   C700    1.410   .     A
C697   C701    1.403   .     A
C698   C699    1.390   .     A
C698   C130    1.410   1_556 S
C698   C150    1.390   1_556 S
C699   C700    1.383   .     A
C699   H732    1.084   .     S
C700   H737    1.073   .     S
C701   H734    1.075   .     S
C701   C718    1.400   .     A
C702   C718    1.396   .     A
C702   C717    1.389   .     A
C702   H724    1.083   .     S
C703   C719    1.417   .     A
C703   C705    1.492   .     S
C704   H738    1.083   .     S
C704   C710    1.401   .     A
C704   C895    1.384   .     S
C705   O743    1.310   .     A
C705   O744    1.302   .     A
C706   H725    1.083   .     S
C706   C707    1.401   .     A
C706   C1082   1.384   1_545 S
C707   C708    1.401   .     A
C707   C715    1.451   .     S
C708   H726    1.083   .     S
C708   C1087   1.384   1_545 S
C709   H727    1.083   .     S
C709   C710    1.401   .     A
C709   C897    1.384   .     S
C711   H728    1.080   .     S
C711   N740    1.369   .     A
C711   C586    1.421   1_655 S
C712   N739    1.368   .     A
C712   H729    1.082   .     S
C713   H730    1.081   .     S
C713   N739    1.369   .     A
C714   H731    1.081   .     S
C714   N740    1.369   .     A
C714   C587    1.422   1_655 S
C715   O745    1.297   .     A
C715   O746    1.297   .     A
C716   O748    1.302   .     A
C716   C718    1.462   .     S
C716   O747    1.298   .     A
C719   C720    1.397   .     A
C719   O749    1.382   .     S
C720   C154    1.378   1_556 S
C720   H169    1.071   1_556 S
C721   H735    1.078   .     S
Cu722  N739    2.027   .     S
Cu722  Cu723   2.698   .     S
Cu722  O743    1.963   .     S
Cu722  O747    1.958   .     S
Cu722  O741    1.964   .     S
Cu722  O745    1.964   .     S
Cu723  O744    1.958   .     S
Cu723  O742    1.964   .     S
Cu723  O746    1.964   .     S
Cu723  N740    2.027   .     S
Cu723  O748    1.963   .     S
H733   C150    1.066   1_556 S
O749   C750    1.416   .     S
C750   H751    1.114   .     S
C750   H752    1.115   .     S
C750   C753    1.522   .     S
C753   H755    1.110   .     S
C753   H754    1.110   .     S
H756   C627    1.109   1_655 S
C757   O804    1.297   .     A
C757   C773    1.451   .     S
C757   O805    1.297   .     A
C758   C759    1.418   .     A
C758   C193    1.417   1_556 S
C758   C217    1.402   1_556 S
C759   C766    1.429   .     A
C759   C763    1.410   .     A
C760   C764    1.403   .     A
C761   C762    1.390   .     A
C761   C193    1.410   1_556 S
C761   C213    1.390   1_556 S
C762   C763    1.383   .     A
C762   H795    1.084   .     S
C763   H800    1.073   .     S
C764   H797    1.075   .     S
C764   C781    1.400   .     A
C765   C781    1.396   .     A
C765   C780    1.389   .     A
C765   H787    1.083   .     S
C766   C782    1.417   .     A
C766   C768    1.492   .     S
C767   H801    1.083   .     S
C767   C773    1.401   .     A
C767   C958    1.384   .     S
C768   O806    1.310   .     A
C768   O807    1.302   .     A
C769   H788    1.083   .     S
C769   C770    1.401   .     A
C770   C771    1.401   .     A
C770   C778    1.451   .     S
C771   H789    1.083   .     S
C772   H790    1.083   .     S
C772   C773    1.401   .     A
C772   C960    1.384   .     S
C774   H791    1.080   .     S
C774   N803    1.369   .     A
C774   C838    1.421   .     S
C775   N802    1.368   .     A
C775   H792    1.082   .     S
C775   C900    1.421   1_455 S
C776   H793    1.081   .     S
C776   N802    1.369   .     A
C776   C903    1.422   1_455 S
C777   H794    1.081   .     S
C777   N803    1.369   .     A
C777   C839    1.422   .     S
C778   O808    1.297   .     A
C778   O809    1.297   .     A
C779   O811    1.302   .     A
C779   C781    1.462   .     S
C779   O810    1.298   .     A
C782   C783    1.397   .     A
C782   O812    1.382   .     S
C783   C217    1.378   1_556 S
C783   H232    1.071   1_556 S
C784   H798    1.078   .     S
Cu785  N802    2.027   .     S
Cu785  Cu786   2.698   .     S
Cu785  O806    1.963   .     S
Cu785  O810    1.958   .     S
Cu785  O804    1.964   .     S
Cu785  O808    1.964   .     S
Cu786  O807    1.958   .     S
Cu786  O805    1.964   .     S
Cu786  O809    1.964   .     S
Cu786  N803    2.027   .     S
Cu786  O811    1.963   .     S
H796   C213    1.066   1_556 S
O812   C813    1.416   .     S
C813   H814    1.114   .     S
C813   H815    1.115   .     S
C813   C816    1.522   .     S
C816   H818    1.110   .     S
C816   H817    1.110   .     S
C816   H945    1.109   1_455 S
H819   C879    1.109   .     S
C820   O867    1.297   .     A
C820   C836    1.451   .     S
C820   O868    1.297   .     A
C821   C822    1.418   .     A
C821   C256    1.417   1_556 S
C821   C280    1.402   1_556 S
C822   C829    1.429   .     A
C822   C826    1.410   .     A
C823   C827    1.403   .     A
C824   C825    1.390   .     A
C824   C256    1.410   1_556 S
C824   C276    1.390   1_556 S
C825   C826    1.383   .     A
C825   H858    1.084   .     S
C826   H863    1.073   .     S
C827   H860    1.075   .     S
C827   C844    1.400   .     A
C828   C844    1.396   .     A
C828   C843    1.389   .     A
C828   H850    1.083   .     S
C829   C845    1.417   .     A
C829   C831    1.492   .     S
C830   H864    1.083   .     S
C830   C836    1.401   .     A
C830   C1021   1.384   .     S
C831   O869    1.310   .     A
C831   O870    1.302   .     A
C832   H851    1.083   .     S
C832   C833    1.401   .     A
C833   C834    1.401   .     A
C833   C841    1.451   .     S
C834   H852    1.083   .     S
C835   H853    1.083   .     S
C835   C836    1.401   .     A
C835   C1023   1.384   .     S
C837   H854    1.080   .     S
C837   N866    1.369   .     A
C837   C901    1.421   .     S
C838   N865    1.368   .     A
C838   H855    1.082   .     S
C839   H856    1.081   .     S
C839   N865    1.369   .     A
C840   H857    1.081   .     S
C840   N866    1.369   .     A
C840   C902    1.422   .     S
C841   O871    1.297   .     A
C841   O872    1.297   .     A
C842   O874    1.302   .     A
C842   C844    1.462   .     S
C842   O873    1.298   .     A
C845   C846    1.397   .     A
C845   O875    1.382   .     S
C846   C280    1.378   1_556 S
C846   H295    1.071   1_556 S
C847   H861    1.078   .     S
Cu848  N865    2.027   .     S
Cu848  Cu849   2.698   .     S
Cu848  O869    1.963   .     S
Cu848  O873    1.958   .     S
Cu848  O867    1.964   .     S
Cu848  O871    1.964   .     S
Cu849  O870    1.958   .     S
Cu849  O868    1.964   .     S
Cu849  O872    1.964   .     S
Cu849  N866    2.027   .     S
Cu849  O874    1.963   .     S
H859   C276    1.066   1_556 S
O875   C876    1.416   .     S
C876   H877    1.114   .     S
C876   H878    1.115   .     S
C876   C879    1.522   .     S
C879   H881    1.110   .     S
C879   H880    1.110   .     S
H882   C942    1.109   .     S
C883   O930    1.297   .     A
C883   C899    1.451   .     S
C883   O931    1.297   .     A
C884   C885    1.418   .     A
C884   C319    1.417   1_556 S
C884   C343    1.402   1_556 S
C885   C892    1.429   .     A
C885   C889    1.410   .     A
C886   C890    1.403   .     A
C887   C888    1.390   .     A
C887   C319    1.410   1_556 S
C887   C339    1.390   1_556 S
C888   C889    1.383   .     A
C888   H921    1.084   .     S
C889   H926    1.073   .     S
C890   H923    1.075   .     S
C890   C907    1.400   .     A
C891   C907    1.396   .     A
C891   C906    1.389   .     A
C891   H913    1.083   .     S
C892   C908    1.417   .     A
C892   C894    1.492   .     S
C893   H927    1.083   .     S
C893   C899    1.401   .     A
C893   C1084   1.384   .     S
C894   O932    1.310   .     A
C894   O933    1.302   .     A
C895   H914    1.083   .     S
C895   C896    1.401   .     A
C896   C897    1.401   .     A
C896   C904    1.451   .     S
C897   H915    1.083   .     S
C898   H916    1.083   .     S
C898   C899    1.401   .     A
C898   C1086   1.384   .     S
C900   H917    1.080   .     S
C900   N929    1.369   .     A
C900   C775    1.421   1_655 S
C901   N928    1.368   .     A
C901   H918    1.082   .     S
C902   H919    1.081   .     S
C902   N928    1.369   .     A
C903   H920    1.081   .     S
C903   N929    1.369   .     A
C903   C776    1.422   1_655 S
C904   O934    1.297   .     A
C904   O935    1.297   .     A
C905   O937    1.302   .     A
C905   C907    1.462   .     S
C905   O936    1.298   .     A
C908   C909    1.397   .     A
C908   O938    1.382   .     S
C909   C343    1.378   1_556 S
C909   H358    1.071   1_556 S
C910   H924    1.078   .     S
Cu911  N928    2.027   .     S
Cu911  Cu912   2.698   .     S
Cu911  O932    1.963   .     S
Cu911  O936    1.958   .     S
Cu911  O930    1.964   .     S
Cu911  O934    1.964   .     S
Cu912  O933    1.958   .     S
Cu912  O931    1.964   .     S
Cu912  O935    1.964   .     S
Cu912  N929    2.027   .     S
Cu912  O937    1.963   .     S
H922   C339    1.066   1_556 S
O938   C939    1.416   .     S
C939   H940    1.114   .     S
C939   H941    1.115   .     S
C939   C942    1.522   .     S
C942   H944    1.110   .     S
C942   H943    1.110   .     S
H945   C816    1.109   1_655 S
C946   O993    1.297   .     A
C946   C962    1.451   .     S
C946   O994    1.297   .     A
C947   C948    1.418   .     A
C947   C382    1.417   1_556 S
C947   C406    1.402   1_556 S
C948   C955    1.429   .     A
C948   C952    1.410   .     A
C949   C953    1.403   .     A
C950   C951    1.390   .     A
C950   C382    1.410   1_556 S
C950   C402    1.390   1_556 S
C951   C952    1.383   .     A
C951   H984    1.084   .     S
C952   H989    1.073   .     S
C953   H986    1.075   .     S
C953   C970    1.400   .     A
C954   C970    1.396   .     A
C954   C969    1.389   .     A
C954   H976    1.083   .     S
C955   C971    1.417   .     A
C955   C957    1.492   .     S
C956   H990    1.083   .     S
C956   C962    1.401   .     A
C956   C580    1.384   1_565 S
C957   O995    1.310   .     A
C957   O996    1.302   .     A
C958   H977    1.083   .     S
C958   C959    1.401   .     A
C959   C960    1.401   .     A
C959   C967    1.451   .     S
C960   H978    1.083   .     S
C961   H979    1.083   .     S
C961   C962    1.401   .     A
C961   C582    1.384   1_565 S
C963   H980    1.080   .     S
C963   N992    1.369   .     A
C963   C1027   1.421   .     S
C964   N991    1.368   .     A
C964   H981    1.082   .     S
C964   C1089   1.421   1_455 S
C965   H982    1.081   .     S
C965   N991    1.369   .     A
C965   C1092   1.422   1_455 S
C966   H983    1.081   .     S
C966   N992    1.369   .     A
C966   C1028   1.422   .     S
C967   O997    1.297   .     A
C967   O998    1.297   .     A
C968   O1000   1.302   .     A
C968   C970    1.462   .     S
C968   O999    1.298   .     A
C971   C972    1.397   .     A
C971   O1001   1.382   .     S
C972   C406    1.378   1_556 S
C972   H421    1.071   1_556 S
C973   H987    1.078   .     S
Cu974  N991    2.027   .     S
Cu974  Cu975   2.698   .     S
Cu974  O995    1.963   .     S
Cu974  O999    1.958   .     S
Cu974  O993    1.964   .     S
Cu974  O997    1.964   .     S
Cu975  O996    1.958   .     S
Cu975  O994    1.964   .     S
Cu975  O998    1.964   .     S
Cu975  N992    2.027   .     S
Cu975  O1000   1.963   .     S
H985   C402    1.066   1_556 S
O1001  C1002   1.416   .     S
C1002  H1003   1.114   .     S
C1002  H1004   1.115   .     S
C1002  C1005   1.522   .     S
C1005  H1007   1.110   .     S
C1005  H1006   1.110   .     S
C1005  H1134   1.109   1_455 S
H1008  C1068   1.109   .     S
C1009  O1056   1.297   .     A
C1009  C1025   1.451   .     S
C1009  O1057   1.297   .     A
C1010  C1011   1.418   .     A
C1010  C445    1.417   1_556 S
C1010  C469    1.402   1_556 S
C1011  C1018   1.429   .     A
C1011  C1015   1.410   .     A
C1012  C1016   1.403   .     A
C1013  C1014   1.390   .     A
C1013  C445    1.410   1_556 S
C1013  C465    1.390   1_556 S
C1014  C1015   1.383   .     A
C1014  H1047   1.084   .     S
C1015  H1052   1.073   .     S
C1016  H1049   1.075   .     S
C1016  C1033   1.400   .     A
C1017  C1033   1.396   .     A
C1017  C1032   1.389   .     A
C1017  H1039   1.083   .     S
C1018  C1034   1.417   .     A
C1018  C1020   1.492   .     S
C1019  H1053   1.083   .     S
C1019  C1025   1.401   .     A
C1019  C643    1.384   1_565 S
C1020  O1058   1.310   .     A
C1020  O1059   1.302   .     A
C1021  H1040   1.083   .     S
C1021  C1022   1.401   .     A
C1022  C1023   1.401   .     A
C1022  C1030   1.451   .     S
C1023  H1041   1.083   .     S
C1024  H1042   1.083   .     S
C1024  C1025   1.401   .     A
C1024  C645    1.384   1_565 S
C1026  H1043   1.080   .     S
C1026  N1055   1.369   .     A
C1026  C1090   1.421   .     S
C1027  N1054   1.368   .     A
C1027  H1044   1.082   .     S
C1028  H1045   1.081   .     S
C1028  N1054   1.369   .     A
C1029  H1046   1.081   .     S
C1029  N1055   1.369   .     A
C1029  C1091   1.422   .     S
C1030  O1060   1.297   .     A
C1030  O1061   1.297   .     A
C1031  O1063   1.302   .     A
C1031  C1033   1.462   .     S
C1031  O1062   1.298   .     A
C1034  C1035   1.397   .     A
C1034  O1064   1.382   .     S
C1035  C469    1.378   1_556 S
C1035  H484    1.071   1_556 S
C1036  H1050   1.078   .     S
Cu1037 N1054   2.027   .     S
Cu1037 Cu1038  2.698   .     S
Cu1037 O1058   1.963   .     S
Cu1037 O1062   1.958   .     S
Cu1037 O1056   1.964   .     S
Cu1037 O1060   1.964   .     S
Cu1038 O1059   1.958   .     S
Cu1038 O1057   1.964   .     S
Cu1038 O1061   1.964   .     S
Cu1038 N1055   2.027   .     S
Cu1038 O1063   1.963   .     S
H1048  C465    1.066   1_556 S
O1064  C1065   1.416   .     S
C1065  H1066   1.114   .     S
C1065  H1067   1.115   .     S
C1065  C1068   1.522   .     S
C1068  H1070   1.110   .     S
C1068  H1069   1.110   .     S
H1071  C1131   1.109   .     S
C1072  O1119   1.297   .     A
C1072  C1088   1.451   .     S
C1072  O1120   1.297   .     A
C1073  C1074   1.418   .     A
C1073  C508    1.417   1_556 S
C1073  C532    1.402   1_556 S
C1074  C1081   1.429   .     A
C1074  C1078   1.410   .     A
C1075  C1079   1.403   .     A
C1076  C1077   1.390   .     A
C1076  C508    1.410   1_556 S
C1076  C528    1.390   1_556 S
C1077  C1078   1.383   .     A
C1077  H1110   1.084   .     S
C1078  H1115   1.073   .     S
C1079  H1112   1.075   .     S
C1079  C1096   1.400   .     A
C1080  C1096   1.396   .     A
C1080  C1095   1.389   .     A
C1080  H1102   1.083   .     S
C1081  C1097   1.417   .     A
C1081  C1083   1.492   .     S
C1082  H1116   1.083   .     S
C1082  C1088   1.401   .     A
C1082  C706    1.384   1_565 S
C1083  O1121   1.310   .     A
C1083  O1122   1.302   .     A
C1084  H1103   1.083   .     S
C1084  C1085   1.401   .     A
C1085  C1086   1.401   .     A
C1085  C1093   1.451   .     S
C1086  H1104   1.083   .     S
C1087  H1105   1.083   .     S
C1087  C1088   1.401   .     A
C1087  C708    1.384   1_565 S
C1089  H1106   1.080   .     S
C1089  N1118   1.369   .     A
C1089  C964    1.421   1_655 S
C1090  N1117   1.368   .     A
C1090  H1107   1.082   .     S
C1091  H1108   1.081   .     S
C1091  N1117   1.369   .     A
C1092  H1109   1.081   .     S
C1092  N1118   1.369   .     A
C1092  C965    1.422   1_655 S
C1093  O1123   1.297   .     A
C1093  O1124   1.297   .     A
C1094  O1126   1.302   .     A
C1094  C1096   1.462   .     S
C1094  O1125   1.298   .     A
C1097  C1098   1.397   .     A
C1097  O1127   1.382   .     S
C1098  C532    1.378   1_556 S
C1098  H547    1.071   1_556 S
C1099  H1113   1.078   .     S
Cu1100 N1117   2.027   .     S
Cu1100 Cu1101  2.698   .     S
Cu1100 O1121   1.963   .     S
Cu1100 O1125   1.958   .     S
Cu1100 O1119   1.964   .     S
Cu1100 O1123   1.964   .     S
Cu1101 O1122   1.958   .     S
Cu1101 O1120   1.964   .     S
Cu1101 O1124   1.964   .     S
Cu1101 N1118   2.027   .     S
Cu1101 O1126   1.963   .     S
H1111  C528    1.066   1_556 S
O1127  C1128   1.416   .     S
C1128  H1129   1.114   .     S
C1128  H1130   1.115   .     S
C1128  C1131   1.522   .     S
C1131  H1133   1.110   .     S
C1131  H1132   1.110   .     S
H1134  C1005   1.109   1_655 S
