data_str_m2_o10_o17_pcu_sym.75
_audit_creation_date              2020-01-03
_audit_creation_method            'Materials Studio'
_symmetry_space_group_name_H-M    'P1'
_symmetry_Int_Tables_number       1
_symmetry_cell_setting            triclinic
loop_
_symmetry_equiv_pos_as_xyz
  x,y,z
_cell_length_a                    29.9994
_cell_length_b                    26.1886
_cell_length_c                    22.3327
_cell_angle_alpha                 102.2908
_cell_angle_beta                  93.9122
_cell_angle_gamma                 92.5717
loop_
_atom_site_label
_atom_site_type_symbol
_atom_site_fract_x
_atom_site_fract_y
_atom_site_fract_z
_atom_site_U_iso_or_equiv
_atom_site_adp_type
_atom_site_occupancy
C1     C     0.24732   0.06691   0.15173   0.00000  Uiso   1.00
C2     C     0.09055   0.12461   0.13569   0.00000  Uiso   1.00
C3     C     0.38345   0.16538   0.16377   0.00000  Uiso   1.00
C4     C     0.11655   0.16795   0.16956   0.00000  Uiso   1.00
C5     C     0.40329   0.12144   0.13082   0.00000  Uiso   1.00
C6     C     0.09671   0.21189   0.20251   0.00000  Uiso   1.00
C7     C     0.45030   0.12181   0.13142   0.00000  Uiso   1.00
C8     C     0.04970   0.21153   0.20192   0.00000  Uiso   1.00
C9     C     0.47651   0.16619   0.16581   0.00000  Uiso   1.00
C10    C     0.02350   0.16714   0.16752   0.00000  Uiso   1.00
C11    C     0.45580   0.20957   0.19884   0.00000  Uiso   1.00
C12    C     0.25268   0.26643   0.18160   0.00000  Uiso   1.00
C13    C     0.04420   0.12376   0.13450   0.00000  Uiso   1.00
C14    C     0.47190   0.07900   0.09902   0.00000  Uiso   1.00
C15    C     0.02810   0.25433   0.23431   0.00000  Uiso   1.00
C16    C     0.37537   0.07545   0.09980   0.00000  Uiso   1.00
C17    C     0.12463   0.25789   0.23352   0.00000  Uiso   1.00
C18    C     0.20559   0.31896   0.09874   0.00000  Uiso   1.00
C19    C     0.29443   0.01437   0.23459   0.00000  Uiso   1.00
C20    C     0.01834   0.08009   0.10056   0.00000  Uiso   1.00
C21    C     0.48166   0.25324   0.23278   0.00000  Uiso   1.00
C22    C     0.23988   0.01181   0.14584   0.00000  Uiso   1.00
C23    C     0.26012   0.32152   0.18750   0.00000  Uiso   1.00
C24    C     0.16463   0.16703   0.16764   0.00000  Uiso   1.00
C25    C     0.33537   0.16630   0.16570   0.00000  Uiso   1.00
C26    C     0.40945   0.20872   0.19765   0.00000  Uiso   1.00
Cu27   Cu    0.25501   0.17246   0.22813   0.00000  Uiso   1.00
Cu28   Cu    0.24500   0.16087   0.10521   0.00000  Uiso   1.00
H29    H     0.39332   0.24196   0.22306   0.00000  Uiso   1.00
H30    H     0.10668   0.09137   0.11028   0.00000  Uiso   1.00
H31    H     0.45315   0.04447   0.07215   0.00000  Uiso   1.00
H32    H     0.04686   0.28887   0.26118   0.00000  Uiso   1.00
H33    H     0.03408   0.04664   0.07510   0.00000  Uiso   1.00
H34    H     0.46592   0.28669   0.25824   0.00000  Uiso   1.00
H35    H     0.21530   0.12598   0.31632   0.00000  Uiso   1.00
H36    H     0.28470   0.20735   0.01701   0.00000  Uiso   1.00
N37    N     0.23745   0.15214   0.01284   0.00000  Uiso   1.00
N38    N     0.26256   0.18119   0.32049   0.00000  Uiso   1.00
N39    N     0.35307   0.03871   0.07541   0.00000  Uiso   1.00
N40    N     0.14693   0.29463   0.25790   0.00000  Uiso   1.00
N41    N     0.17821   0.29815   0.06143   0.00000  Uiso   1.00
N42    N     0.32181   0.03518   0.27188   0.00000  Uiso   1.00
O43    O     0.25326   0.09538   0.20659   0.00000  Uiso   1.00
O44    O     0.24675   0.23796   0.12674   0.00000  Uiso   1.00
O45    O     0.24480   0.08559   0.10279   0.00000  Uiso   1.00
O46    O     0.25520   0.24774   0.23055   0.00000  Uiso   1.00
O47    O     0.18936   0.17155   0.21857   0.00000  Uiso   1.00
O48    O     0.31065   0.16179   0.11476   0.00000  Uiso   1.00
O49    O     0.18090   0.16176   0.11477   0.00000  Uiso   1.00
O50    O     0.31910   0.17157   0.21857   0.00000  Uiso   1.00
C51    C     0.74732   0.06691   0.15173   0.00000  Uiso   1.00
C52    C     0.59055   0.12461   0.13569   0.00000  Uiso   1.00
C53    C     0.88345   0.16538   0.16377   0.00000  Uiso   1.00
C54    C     0.61655   0.16795   0.16956   0.00000  Uiso   1.00
C55    C     0.90329   0.12144   0.13082   0.00000  Uiso   1.00
C56    C     0.59671   0.21189   0.20251   0.00000  Uiso   1.00
C57    C     0.95030   0.12181   0.13142   0.00000  Uiso   1.00
C58    C     0.54970   0.21153   0.20192   0.00000  Uiso   1.00
C59    C     0.97651   0.16619   0.16581   0.00000  Uiso   1.00
C60    C     0.52350   0.16714   0.16752   0.00000  Uiso   1.00
C61    C     0.95580   0.20957   0.19884   0.00000  Uiso   1.00
C62    C     0.75268   0.26643   0.18160   0.00000  Uiso   1.00
C63    C     0.54420   0.12376   0.13450   0.00000  Uiso   1.00
C64    C     0.97190   0.07900   0.09902   0.00000  Uiso   1.00
C65    C     0.52810   0.25433   0.23431   0.00000  Uiso   1.00
C66    C     0.87537   0.07545   0.09980   0.00000  Uiso   1.00
C67    C     0.62463   0.25789   0.23352   0.00000  Uiso   1.00
C68    C     0.70559   0.31896   0.09874   0.00000  Uiso   1.00
C69    C     0.79443   0.01437   0.23459   0.00000  Uiso   1.00
C70    C     0.51834   0.08009   0.10056   0.00000  Uiso   1.00
C71    C     0.98166   0.25324   0.23278   0.00000  Uiso   1.00
C72    C     0.73988   0.01181   0.14584   0.00000  Uiso   1.00
C73    C     0.76012   0.32152   0.18750   0.00000  Uiso   1.00
C74    C     0.66463   0.16703   0.16764   0.00000  Uiso   1.00
C75    C     0.83537   0.16630   0.16570   0.00000  Uiso   1.00
C76    C     0.90945   0.20872   0.19765   0.00000  Uiso   1.00
Cu77   Cu    0.75501   0.17246   0.22813   0.00000  Uiso   1.00
Cu78   Cu    0.74500   0.16087   0.10521   0.00000  Uiso   1.00
H79    H     0.89332   0.24196   0.22306   0.00000  Uiso   1.00
H80    H     0.60668   0.09137   0.11028   0.00000  Uiso   1.00
H81    H     0.95315   0.04447   0.07215   0.00000  Uiso   1.00
H82    H     0.54686   0.28887   0.26118   0.00000  Uiso   1.00
H83    H     0.53408   0.04664   0.07510   0.00000  Uiso   1.00
H84    H     0.96592   0.28669   0.25824   0.00000  Uiso   1.00
H85    H     0.71530   0.12598   0.31632   0.00000  Uiso   1.00
H86    H     0.78470   0.20735   0.01701   0.00000  Uiso   1.00
N87    N     0.73745   0.15214   0.01284   0.00000  Uiso   1.00
N88    N     0.76256   0.18119   0.32049   0.00000  Uiso   1.00
N89    N     0.85307   0.03871   0.07541   0.00000  Uiso   1.00
N90    N     0.64693   0.29463   0.25790   0.00000  Uiso   1.00
N91    N     0.67821   0.29815   0.06143   0.00000  Uiso   1.00
N92    N     0.82181   0.03518   0.27188   0.00000  Uiso   1.00
O93    O     0.75326   0.09538   0.20659   0.00000  Uiso   1.00
O94    O     0.74675   0.23796   0.12674   0.00000  Uiso   1.00
O95    O     0.74480   0.08559   0.10279   0.00000  Uiso   1.00
O96    O     0.75520   0.24774   0.23055   0.00000  Uiso   1.00
O97    O     0.68936   0.17155   0.21857   0.00000  Uiso   1.00
O98    O     0.81065   0.16179   0.11476   0.00000  Uiso   1.00
O99    O     0.68090   0.16176   0.11477   0.00000  Uiso   1.00
O100   O     0.81910   0.17157   0.21857   0.00000  Uiso   1.00
C101   C     0.24732   0.40024   0.15173   0.00000  Uiso   1.00
C102   C     0.09055   0.45794   0.13569   0.00000  Uiso   1.00
C103   C     0.38345   0.49872   0.16377   0.00000  Uiso   1.00
C104   C     0.11655   0.50128   0.16956   0.00000  Uiso   1.00
C105   C     0.40329   0.45478   0.13082   0.00000  Uiso   1.00
C106   C     0.09671   0.54522   0.20251   0.00000  Uiso   1.00
C107   C     0.45030   0.45514   0.13142   0.00000  Uiso   1.00
C108   C     0.04970   0.54486   0.20192   0.00000  Uiso   1.00
C109   C     0.47651   0.49952   0.16581   0.00000  Uiso   1.00
C110   C     0.02350   0.50048   0.16752   0.00000  Uiso   1.00
C111   C     0.45580   0.54291   0.19884   0.00000  Uiso   1.00
C112   C     0.25268   0.59976   0.18160   0.00000  Uiso   1.00
C113   C     0.04420   0.45709   0.13450   0.00000  Uiso   1.00
C114   C     0.47190   0.41234   0.09902   0.00000  Uiso   1.00
C115   C     0.02810   0.58766   0.23431   0.00000  Uiso   1.00
C116   C     0.37537   0.40878   0.09980   0.00000  Uiso   1.00
C117   C     0.12463   0.59122   0.23352   0.00000  Uiso   1.00
C118   C     0.20559   0.65230   0.09874   0.00000  Uiso   1.00
C119   C     0.29443   0.34770   0.23459   0.00000  Uiso   1.00
C120   C     0.01834   0.41342   0.10056   0.00000  Uiso   1.00
C121   C     0.48166   0.58658   0.23278   0.00000  Uiso   1.00
C122   C     0.23988   0.34515   0.14584   0.00000  Uiso   1.00
C123   C     0.26012   0.65485   0.18750   0.00000  Uiso   1.00
C124   C     0.16463   0.50036   0.16764   0.00000  Uiso   1.00
C125   C     0.33537   0.49963   0.16570   0.00000  Uiso   1.00
C126   C     0.40945   0.54205   0.19765   0.00000  Uiso   1.00
Cu127  Cu    0.25501   0.50579   0.22813   0.00000  Uiso   1.00
Cu128  Cu    0.24500   0.49421   0.10521   0.00000  Uiso   1.00
H129   H     0.39332   0.57529   0.22306   0.00000  Uiso   1.00
H130   H     0.10668   0.42470   0.11028   0.00000  Uiso   1.00
H131   H     0.45315   0.37780   0.07215   0.00000  Uiso   1.00
H132   H     0.04686   0.62220   0.26118   0.00000  Uiso   1.00
H133   H     0.03408   0.37998   0.07510   0.00000  Uiso   1.00
H134   H     0.46592   0.62002   0.25824   0.00000  Uiso   1.00
H135   H     0.21530   0.45932   0.31632   0.00000  Uiso   1.00
H136   H     0.28470   0.54068   0.01701   0.00000  Uiso   1.00
N137   N     0.23745   0.48547   0.01284   0.00000  Uiso   1.00
N138   N     0.26256   0.51453   0.32049   0.00000  Uiso   1.00
N139   N     0.35307   0.37204   0.07541   0.00000  Uiso   1.00
N140   N     0.14693   0.62796   0.25790   0.00000  Uiso   1.00
N141   N     0.17821   0.63148   0.06143   0.00000  Uiso   1.00
N142   N     0.32181   0.36852   0.27188   0.00000  Uiso   1.00
O143   O     0.25326   0.42871   0.20659   0.00000  Uiso   1.00
O144   O     0.24675   0.57129   0.12674   0.00000  Uiso   1.00
O145   O     0.24480   0.41892   0.10279   0.00000  Uiso   1.00
O146   O     0.25520   0.58108   0.23055   0.00000  Uiso   1.00
O147   O     0.18936   0.50488   0.21857   0.00000  Uiso   1.00
O148   O     0.31065   0.49512   0.11476   0.00000  Uiso   1.00
O149   O     0.18090   0.49510   0.11477   0.00000  Uiso   1.00
O150   O     0.31910   0.50490   0.21857   0.00000  Uiso   1.00
C151   C     0.74732   0.40024   0.15173   0.00000  Uiso   1.00
C152   C     0.59055   0.45794   0.13569   0.00000  Uiso   1.00
C153   C     0.88345   0.49872   0.16377   0.00000  Uiso   1.00
C154   C     0.61655   0.50128   0.16956   0.00000  Uiso   1.00
C155   C     0.90329   0.45478   0.13082   0.00000  Uiso   1.00
C156   C     0.59671   0.54522   0.20251   0.00000  Uiso   1.00
C157   C     0.95030   0.45514   0.13142   0.00000  Uiso   1.00
C158   C     0.54970   0.54486   0.20192   0.00000  Uiso   1.00
C159   C     0.97651   0.49952   0.16581   0.00000  Uiso   1.00
C160   C     0.52350   0.50048   0.16752   0.00000  Uiso   1.00
C161   C     0.95580   0.54291   0.19884   0.00000  Uiso   1.00
C162   C     0.75268   0.59976   0.18160   0.00000  Uiso   1.00
C163   C     0.54420   0.45709   0.13450   0.00000  Uiso   1.00
C164   C     0.97190   0.41234   0.09902   0.00000  Uiso   1.00
C165   C     0.52810   0.58766   0.23431   0.00000  Uiso   1.00
C166   C     0.87537   0.40878   0.09980   0.00000  Uiso   1.00
C167   C     0.62463   0.59122   0.23352   0.00000  Uiso   1.00
C168   C     0.70559   0.65230   0.09874   0.00000  Uiso   1.00
C169   C     0.79443   0.34770   0.23459   0.00000  Uiso   1.00
C170   C     0.51834   0.41342   0.10056   0.00000  Uiso   1.00
C171   C     0.98166   0.58658   0.23278   0.00000  Uiso   1.00
C172   C     0.73988   0.34515   0.14584   0.00000  Uiso   1.00
C173   C     0.76012   0.65485   0.18750   0.00000  Uiso   1.00
C174   C     0.66463   0.50036   0.16764   0.00000  Uiso   1.00
C175   C     0.83537   0.49963   0.16570   0.00000  Uiso   1.00
C176   C     0.90945   0.54205   0.19765   0.00000  Uiso   1.00
Cu177  Cu    0.75501   0.50579   0.22813   0.00000  Uiso   1.00
Cu178  Cu    0.74500   0.49421   0.10521   0.00000  Uiso   1.00
H179   H     0.89332   0.57529   0.22306   0.00000  Uiso   1.00
H180   H     0.60668   0.42470   0.11028   0.00000  Uiso   1.00
H181   H     0.95315   0.37780   0.07215   0.00000  Uiso   1.00
H182   H     0.54686   0.62220   0.26118   0.00000  Uiso   1.00
H183   H     0.53408   0.37998   0.07510   0.00000  Uiso   1.00
H184   H     0.96592   0.62002   0.25824   0.00000  Uiso   1.00
H185   H     0.71530   0.45932   0.31632   0.00000  Uiso   1.00
H186   H     0.78470   0.54068   0.01701   0.00000  Uiso   1.00
N187   N     0.73745   0.48547   0.01284   0.00000  Uiso   1.00
N188   N     0.76256   0.51453   0.32049   0.00000  Uiso   1.00
N189   N     0.85307   0.37204   0.07541   0.00000  Uiso   1.00
N190   N     0.64693   0.62796   0.25790   0.00000  Uiso   1.00
N191   N     0.67821   0.63148   0.06143   0.00000  Uiso   1.00
N192   N     0.82181   0.36852   0.27188   0.00000  Uiso   1.00
O193   O     0.75326   0.42871   0.20659   0.00000  Uiso   1.00
O194   O     0.74675   0.57129   0.12674   0.00000  Uiso   1.00
O195   O     0.74480   0.41892   0.10279   0.00000  Uiso   1.00
O196   O     0.75520   0.58108   0.23055   0.00000  Uiso   1.00
O197   O     0.68936   0.50488   0.21857   0.00000  Uiso   1.00
O198   O     0.81065   0.49512   0.11476   0.00000  Uiso   1.00
O199   O     0.68090   0.49510   0.11477   0.00000  Uiso   1.00
O200   O     0.81910   0.50490   0.21857   0.00000  Uiso   1.00
C201   C     0.24732   0.73357   0.15173   0.00000  Uiso   1.00
C202   C     0.09055   0.79128   0.13569   0.00000  Uiso   1.00
C203   C     0.38345   0.83205   0.16377   0.00000  Uiso   1.00
C204   C     0.11655   0.83462   0.16956   0.00000  Uiso   1.00
C205   C     0.40329   0.78811   0.13082   0.00000  Uiso   1.00
C206   C     0.09671   0.87856   0.20251   0.00000  Uiso   1.00
C207   C     0.45030   0.78847   0.13142   0.00000  Uiso   1.00
C208   C     0.04970   0.87819   0.20192   0.00000  Uiso   1.00
C209   C     0.47651   0.83286   0.16581   0.00000  Uiso   1.00
C210   C     0.02350   0.83381   0.16752   0.00000  Uiso   1.00
C211   C     0.45580   0.87624   0.19884   0.00000  Uiso   1.00
C212   C     0.25268   0.93309   0.18160   0.00000  Uiso   1.00
C213   C     0.04420   0.79043   0.13450   0.00000  Uiso   1.00
C214   C     0.47190   0.74567   0.09902   0.00000  Uiso   1.00
C215   C     0.02810   0.92100   0.23431   0.00000  Uiso   1.00
C216   C     0.37537   0.74212   0.09980   0.00000  Uiso   1.00
C217   C     0.12463   0.92455   0.23352   0.00000  Uiso   1.00
C218   C     0.20559   0.98563   0.09874   0.00000  Uiso   1.00
C219   C     0.29443   0.68103   0.23459   0.00000  Uiso   1.00
C220   C     0.01834   0.74676   0.10056   0.00000  Uiso   1.00
C221   C     0.48166   0.91991   0.23278   0.00000  Uiso   1.00
C222   C     0.23988   0.67848   0.14584   0.00000  Uiso   1.00
C223   C     0.26012   0.98819   0.18750   0.00000  Uiso   1.00
C224   C     0.16463   0.83370   0.16764   0.00000  Uiso   1.00
C225   C     0.33537   0.83297   0.16570   0.00000  Uiso   1.00
C226   C     0.40945   0.87539   0.19765   0.00000  Uiso   1.00
Cu227  Cu    0.25501   0.83913   0.22813   0.00000  Uiso   1.00
Cu228  Cu    0.24500   0.82754   0.10521   0.00000  Uiso   1.00
H229   H     0.39332   0.90863   0.22306   0.00000  Uiso   1.00
H230   H     0.10668   0.75804   0.11028   0.00000  Uiso   1.00
H231   H     0.45315   0.71113   0.07215   0.00000  Uiso   1.00
H232   H     0.04686   0.95553   0.26118   0.00000  Uiso   1.00
H233   H     0.03408   0.71331   0.07510   0.00000  Uiso   1.00
H234   H     0.46592   0.95335   0.25824   0.00000  Uiso   1.00
H235   H     0.21530   0.79265   0.31632   0.00000  Uiso   1.00
H236   H     0.28470   0.87402   0.01701   0.00000  Uiso   1.00
N237   N     0.23745   0.81881   0.01284   0.00000  Uiso   1.00
N238   N     0.26256   0.84786   0.32049   0.00000  Uiso   1.00
N239   N     0.35307   0.70538   0.07541   0.00000  Uiso   1.00
N240   N     0.14693   0.96130   0.25790   0.00000  Uiso   1.00
N241   N     0.17821   0.96481   0.06143   0.00000  Uiso   1.00
N242   N     0.32181   0.70185   0.27188   0.00000  Uiso   1.00
O243   O     0.25326   0.76204   0.20659   0.00000  Uiso   1.00
O244   O     0.24675   0.90462   0.12674   0.00000  Uiso   1.00
O245   O     0.24480   0.75226   0.10279   0.00000  Uiso   1.00
O246   O     0.25520   0.91441   0.23055   0.00000  Uiso   1.00
O247   O     0.18936   0.83821   0.21857   0.00000  Uiso   1.00
O248   O     0.31065   0.82845   0.11476   0.00000  Uiso   1.00
O249   O     0.18090   0.82843   0.11477   0.00000  Uiso   1.00
O250   O     0.31910   0.83824   0.21857   0.00000  Uiso   1.00
C251   C     0.74732   0.73357   0.15173   0.00000  Uiso   1.00
C252   C     0.59055   0.79128   0.13569   0.00000  Uiso   1.00
C253   C     0.88345   0.83205   0.16377   0.00000  Uiso   1.00
C254   C     0.61655   0.83462   0.16956   0.00000  Uiso   1.00
C255   C     0.90329   0.78811   0.13082   0.00000  Uiso   1.00
C256   C     0.59671   0.87856   0.20251   0.00000  Uiso   1.00
C257   C     0.95030   0.78847   0.13142   0.00000  Uiso   1.00
C258   C     0.54970   0.87819   0.20192   0.00000  Uiso   1.00
C259   C     0.97651   0.83286   0.16581   0.00000  Uiso   1.00
C260   C     0.52350   0.83381   0.16752   0.00000  Uiso   1.00
C261   C     0.95580   0.87624   0.19884   0.00000  Uiso   1.00
C262   C     0.75268   0.93309   0.18160   0.00000  Uiso   1.00
C263   C     0.54420   0.79043   0.13450   0.00000  Uiso   1.00
C264   C     0.97190   0.74567   0.09902   0.00000  Uiso   1.00
C265   C     0.52810   0.92100   0.23431   0.00000  Uiso   1.00
C266   C     0.87537   0.74212   0.09980   0.00000  Uiso   1.00
C267   C     0.62463   0.92455   0.23352   0.00000  Uiso   1.00
C268   C     0.70559   0.98563   0.09874   0.00000  Uiso   1.00
C269   C     0.79443   0.68103   0.23459   0.00000  Uiso   1.00
C270   C     0.51834   0.74676   0.10056   0.00000  Uiso   1.00
C271   C     0.98166   0.91991   0.23278   0.00000  Uiso   1.00
C272   C     0.73988   0.67848   0.14584   0.00000  Uiso   1.00
C273   C     0.76012   0.98819   0.18750   0.00000  Uiso   1.00
C274   C     0.66463   0.83370   0.16764   0.00000  Uiso   1.00
C275   C     0.83537   0.83297   0.16570   0.00000  Uiso   1.00
C276   C     0.90945   0.87539   0.19765   0.00000  Uiso   1.00
Cu277  Cu    0.75501   0.83913   0.22813   0.00000  Uiso   1.00
Cu278  Cu    0.74500   0.82754   0.10521   0.00000  Uiso   1.00
H279   H     0.89332   0.90863   0.22306   0.00000  Uiso   1.00
H280   H     0.60668   0.75804   0.11028   0.00000  Uiso   1.00
H281   H     0.95315   0.71113   0.07215   0.00000  Uiso   1.00
H282   H     0.54686   0.95553   0.26118   0.00000  Uiso   1.00
H283   H     0.53408   0.71331   0.07510   0.00000  Uiso   1.00
H284   H     0.96592   0.95335   0.25824   0.00000  Uiso   1.00
H285   H     0.71530   0.79265   0.31632   0.00000  Uiso   1.00
H286   H     0.78470   0.87402   0.01701   0.00000  Uiso   1.00
N287   N     0.73745   0.81881   0.01284   0.00000  Uiso   1.00
N288   N     0.76256   0.84786   0.32049   0.00000  Uiso   1.00
N289   N     0.85307   0.70538   0.07541   0.00000  Uiso   1.00
N290   N     0.64693   0.96130   0.25790   0.00000  Uiso   1.00
N291   N     0.67821   0.96481   0.06143   0.00000  Uiso   1.00
N292   N     0.82181   0.70185   0.27188   0.00000  Uiso   1.00
O293   O     0.75326   0.76204   0.20659   0.00000  Uiso   1.00
O294   O     0.74675   0.90462   0.12674   0.00000  Uiso   1.00
O295   O     0.74480   0.75226   0.10279   0.00000  Uiso   1.00
O296   O     0.75520   0.91441   0.23055   0.00000  Uiso   1.00
O297   O     0.68936   0.83821   0.21857   0.00000  Uiso   1.00
O298   O     0.81065   0.82845   0.11476   0.00000  Uiso   1.00
O299   O     0.68090   0.82843   0.11477   0.00000  Uiso   1.00
O300   O     0.81910   0.83824   0.21857   0.00000  Uiso   1.00
C301   C     0.24732   0.06691   0.48507   0.00000  Uiso   1.00
C302   C     0.09055   0.12461   0.46902   0.00000  Uiso   1.00
C303   C     0.38345   0.16538   0.49710   0.00000  Uiso   1.00
C304   C     0.11655   0.16795   0.50290   0.00000  Uiso   1.00
C305   C     0.40329   0.12144   0.46415   0.00000  Uiso   1.00
C306   C     0.09671   0.21189   0.53585   0.00000  Uiso   1.00
C307   C     0.45030   0.12181   0.46475   0.00000  Uiso   1.00
C308   C     0.04970   0.21153   0.53525   0.00000  Uiso   1.00
C309   C     0.47651   0.16619   0.49915   0.00000  Uiso   1.00
C310   C     0.02350   0.16714   0.50086   0.00000  Uiso   1.00
C311   C     0.45580   0.20957   0.53217   0.00000  Uiso   1.00
C312   C     0.25268   0.26643   0.51493   0.00000  Uiso   1.00
C313   C     0.04420   0.12376   0.46783   0.00000  Uiso   1.00
C314   C     0.47190   0.07900   0.43235   0.00000  Uiso   1.00
C315   C     0.02810   0.25433   0.56765   0.00000  Uiso   1.00
C316   C     0.37537   0.07545   0.43313   0.00000  Uiso   1.00
C317   C     0.12463   0.25789   0.56686   0.00000  Uiso   1.00
C318   C     0.20559   0.31896   0.43207   0.00000  Uiso   1.00
C319   C     0.29443   0.01437   0.56792   0.00000  Uiso   1.00
C320   C     0.01834   0.08009   0.43390   0.00000  Uiso   1.00
C321   C     0.48166   0.25324   0.56611   0.00000  Uiso   1.00
C322   C     0.23988   0.01181   0.47917   0.00000  Uiso   1.00
C323   C     0.26012   0.32152   0.52083   0.00000  Uiso   1.00
C324   C     0.16463   0.16703   0.50097   0.00000  Uiso   1.00
C325   C     0.33537   0.16630   0.49903   0.00000  Uiso   1.00
C326   C     0.40945   0.20872   0.53098   0.00000  Uiso   1.00
Cu327  Cu    0.25501   0.17246   0.56146   0.00000  Uiso   1.00
Cu328  Cu    0.24500   0.16087   0.43854   0.00000  Uiso   1.00
H329   H     0.39332   0.24196   0.55639   0.00000  Uiso   1.00
H330   H     0.10668   0.09137   0.44362   0.00000  Uiso   1.00
H331   H     0.45315   0.04447   0.40549   0.00000  Uiso   1.00
H332   H     0.04686   0.28887   0.59451   0.00000  Uiso   1.00
H333   H     0.03408   0.04664   0.40843   0.00000  Uiso   1.00
H334   H     0.46592   0.28669   0.59157   0.00000  Uiso   1.00
H335   H     0.21530   0.12598   0.64966   0.00000  Uiso   1.00
H336   H     0.28470   0.20735   0.35034   0.00000  Uiso   1.00
N337   N     0.23745   0.15214   0.34617   0.00000  Uiso   1.00
N338   N     0.26256   0.18119   0.65383   0.00000  Uiso   1.00
N339   N     0.35307   0.03871   0.40875   0.00000  Uiso   1.00
N340   N     0.14693   0.29463   0.59123   0.00000  Uiso   1.00
N341   N     0.17821   0.29815   0.39476   0.00000  Uiso   1.00
N342   N     0.32181   0.03518   0.60522   0.00000  Uiso   1.00
O343   O     0.25326   0.09538   0.53992   0.00000  Uiso   1.00
O344   O     0.24675   0.23796   0.46008   0.00000  Uiso   1.00
O345   O     0.24480   0.08559   0.43612   0.00000  Uiso   1.00
O346   O     0.25520   0.24774   0.56388   0.00000  Uiso   1.00
O347   O     0.18936   0.17155   0.55191   0.00000  Uiso   1.00
O348   O     0.31065   0.16179   0.44809   0.00000  Uiso   1.00
O349   O     0.18090   0.16176   0.44810   0.00000  Uiso   1.00
O350   O     0.31910   0.17157   0.55190   0.00000  Uiso   1.00
C351   C     0.74732   0.06691   0.48507   0.00000  Uiso   1.00
C352   C     0.59055   0.12461   0.46902   0.00000  Uiso   1.00
C353   C     0.88345   0.16538   0.49710   0.00000  Uiso   1.00
C354   C     0.61655   0.16795   0.50290   0.00000  Uiso   1.00
C355   C     0.90329   0.12144   0.46415   0.00000  Uiso   1.00
C356   C     0.59671   0.21189   0.53585   0.00000  Uiso   1.00
C357   C     0.95030   0.12181   0.46475   0.00000  Uiso   1.00
C358   C     0.54970   0.21153   0.53525   0.00000  Uiso   1.00
C359   C     0.97651   0.16619   0.49915   0.00000  Uiso   1.00
C360   C     0.52350   0.16714   0.50086   0.00000  Uiso   1.00
C361   C     0.95580   0.20957   0.53217   0.00000  Uiso   1.00
C362   C     0.75268   0.26643   0.51493   0.00000  Uiso   1.00
C363   C     0.54420   0.12376   0.46783   0.00000  Uiso   1.00
C364   C     0.97190   0.07900   0.43235   0.00000  Uiso   1.00
C365   C     0.52810   0.25433   0.56765   0.00000  Uiso   1.00
C366   C     0.87537   0.07545   0.43313   0.00000  Uiso   1.00
C367   C     0.62463   0.25789   0.56686   0.00000  Uiso   1.00
C368   C     0.70559   0.31896   0.43207   0.00000  Uiso   1.00
C369   C     0.79443   0.01437   0.56792   0.00000  Uiso   1.00
C370   C     0.51834   0.08009   0.43390   0.00000  Uiso   1.00
C371   C     0.98166   0.25324   0.56611   0.00000  Uiso   1.00
C372   C     0.73988   0.01181   0.47917   0.00000  Uiso   1.00
C373   C     0.76012   0.32152   0.52083   0.00000  Uiso   1.00
C374   C     0.66463   0.16703   0.50097   0.00000  Uiso   1.00
C375   C     0.83537   0.16630   0.49903   0.00000  Uiso   1.00
C376   C     0.90945   0.20872   0.53098   0.00000  Uiso   1.00
Cu377  Cu    0.75501   0.17246   0.56146   0.00000  Uiso   1.00
Cu378  Cu    0.74500   0.16087   0.43854   0.00000  Uiso   1.00
H379   H     0.89332   0.24196   0.55639   0.00000  Uiso   1.00
H380   H     0.60668   0.09137   0.44362   0.00000  Uiso   1.00
H381   H     0.95315   0.04447   0.40549   0.00000  Uiso   1.00
H382   H     0.54686   0.28887   0.59451   0.00000  Uiso   1.00
H383   H     0.53408   0.04664   0.40843   0.00000  Uiso   1.00
H384   H     0.96592   0.28669   0.59157   0.00000  Uiso   1.00
H385   H     0.71530   0.12598   0.64966   0.00000  Uiso   1.00
H386   H     0.78470   0.20735   0.35034   0.00000  Uiso   1.00
N387   N     0.73745   0.15214   0.34617   0.00000  Uiso   1.00
N388   N     0.76256   0.18119   0.65383   0.00000  Uiso   1.00
N389   N     0.85307   0.03871   0.40875   0.00000  Uiso   1.00
N390   N     0.64693   0.29463   0.59123   0.00000  Uiso   1.00
N391   N     0.67821   0.29815   0.39476   0.00000  Uiso   1.00
N392   N     0.82181   0.03518   0.60522   0.00000  Uiso   1.00
O393   O     0.75326   0.09538   0.53992   0.00000  Uiso   1.00
O394   O     0.74675   0.23796   0.46008   0.00000  Uiso   1.00
O395   O     0.74480   0.08559   0.43612   0.00000  Uiso   1.00
O396   O     0.75520   0.24774   0.56388   0.00000  Uiso   1.00
O397   O     0.68936   0.17155   0.55191   0.00000  Uiso   1.00
O398   O     0.81065   0.16179   0.44809   0.00000  Uiso   1.00
O399   O     0.68090   0.16176   0.44810   0.00000  Uiso   1.00
O400   O     0.81910   0.17157   0.55190   0.00000  Uiso   1.00
C401   C     0.24732   0.40024   0.48507   0.00000  Uiso   1.00
C402   C     0.09055   0.45794   0.46902   0.00000  Uiso   1.00
C403   C     0.38345   0.49872   0.49710   0.00000  Uiso   1.00
C404   C     0.11655   0.50128   0.50290   0.00000  Uiso   1.00
C405   C     0.40329   0.45478   0.46415   0.00000  Uiso   1.00
C406   C     0.09671   0.54522   0.53585   0.00000  Uiso   1.00
C407   C     0.45030   0.45514   0.46475   0.00000  Uiso   1.00
C408   C     0.04970   0.54486   0.53525   0.00000  Uiso   1.00
C409   C     0.47651   0.49952   0.49915   0.00000  Uiso   1.00
C410   C     0.02350   0.50048   0.50086   0.00000  Uiso   1.00
C411   C     0.45580   0.54291   0.53217   0.00000  Uiso   1.00
C412   C     0.25268   0.59976   0.51493   0.00000  Uiso   1.00
C413   C     0.04420   0.45709   0.46783   0.00000  Uiso   1.00
C414   C     0.47190   0.41234   0.43235   0.00000  Uiso   1.00
C415   C     0.02810   0.58766   0.56765   0.00000  Uiso   1.00
C416   C     0.37537   0.40878   0.43313   0.00000  Uiso   1.00
C417   C     0.12463   0.59122   0.56686   0.00000  Uiso   1.00
C418   C     0.20559   0.65230   0.43207   0.00000  Uiso   1.00
C419   C     0.29443   0.34770   0.56792   0.00000  Uiso   1.00
C420   C     0.01834   0.41342   0.43390   0.00000  Uiso   1.00
C421   C     0.48166   0.58658   0.56611   0.00000  Uiso   1.00
C422   C     0.23988   0.34515   0.47917   0.00000  Uiso   1.00
C423   C     0.26012   0.65485   0.52083   0.00000  Uiso   1.00
C424   C     0.16463   0.50036   0.50097   0.00000  Uiso   1.00
C425   C     0.33537   0.49963   0.49903   0.00000  Uiso   1.00
C426   C     0.40945   0.54205   0.53098   0.00000  Uiso   1.00
Cu427  Cu    0.25501   0.50579   0.56146   0.00000  Uiso   1.00
Cu428  Cu    0.24500   0.49421   0.43854   0.00000  Uiso   1.00
H429   H     0.39332   0.57529   0.55639   0.00000  Uiso   1.00
H430   H     0.10668   0.42470   0.44362   0.00000  Uiso   1.00
H431   H     0.45315   0.37780   0.40549   0.00000  Uiso   1.00
H432   H     0.04686   0.62220   0.59451   0.00000  Uiso   1.00
H433   H     0.03408   0.37998   0.40843   0.00000  Uiso   1.00
H434   H     0.46592   0.62002   0.59157   0.00000  Uiso   1.00
H435   H     0.21530   0.45932   0.64966   0.00000  Uiso   1.00
H436   H     0.28470   0.54068   0.35034   0.00000  Uiso   1.00
N437   N     0.23745   0.48547   0.34617   0.00000  Uiso   1.00
N438   N     0.26256   0.51453   0.65383   0.00000  Uiso   1.00
N439   N     0.35307   0.37204   0.40875   0.00000  Uiso   1.00
N440   N     0.14693   0.62796   0.59123   0.00000  Uiso   1.00
N441   N     0.17821   0.63148   0.39476   0.00000  Uiso   1.00
N442   N     0.32181   0.36852   0.60522   0.00000  Uiso   1.00
O443   O     0.25326   0.42871   0.53992   0.00000  Uiso   1.00
O444   O     0.24675   0.57129   0.46008   0.00000  Uiso   1.00
O445   O     0.24480   0.41892   0.43612   0.00000  Uiso   1.00
O446   O     0.25520   0.58108   0.56388   0.00000  Uiso   1.00
O447   O     0.18936   0.50488   0.55191   0.00000  Uiso   1.00
O448   O     0.31065   0.49512   0.44809   0.00000  Uiso   1.00
O449   O     0.18090   0.49510   0.44810   0.00000  Uiso   1.00
O450   O     0.31910   0.50490   0.55190   0.00000  Uiso   1.00
C451   C     0.74732   0.40024   0.48507   0.00000  Uiso   1.00
C452   C     0.59055   0.45794   0.46902   0.00000  Uiso   1.00
C453   C     0.88345   0.49872   0.49710   0.00000  Uiso   1.00
C454   C     0.61655   0.50128   0.50290   0.00000  Uiso   1.00
C455   C     0.90329   0.45478   0.46415   0.00000  Uiso   1.00
C456   C     0.59671   0.54522   0.53585   0.00000  Uiso   1.00
C457   C     0.95030   0.45514   0.46475   0.00000  Uiso   1.00
C458   C     0.54970   0.54486   0.53525   0.00000  Uiso   1.00
C459   C     0.97651   0.49952   0.49915   0.00000  Uiso   1.00
C460   C     0.52350   0.50048   0.50086   0.00000  Uiso   1.00
C461   C     0.95580   0.54291   0.53217   0.00000  Uiso   1.00
C462   C     0.75268   0.59976   0.51493   0.00000  Uiso   1.00
C463   C     0.54420   0.45709   0.46783   0.00000  Uiso   1.00
C464   C     0.97190   0.41234   0.43235   0.00000  Uiso   1.00
C465   C     0.52810   0.58766   0.56765   0.00000  Uiso   1.00
C466   C     0.87537   0.40878   0.43313   0.00000  Uiso   1.00
C467   C     0.62463   0.59122   0.56686   0.00000  Uiso   1.00
C468   C     0.70559   0.65230   0.43207   0.00000  Uiso   1.00
C469   C     0.79443   0.34770   0.56792   0.00000  Uiso   1.00
C470   C     0.51834   0.41342   0.43390   0.00000  Uiso   1.00
C471   C     0.98166   0.58658   0.56611   0.00000  Uiso   1.00
C472   C     0.73988   0.34515   0.47917   0.00000  Uiso   1.00
C473   C     0.76012   0.65485   0.52083   0.00000  Uiso   1.00
C474   C     0.66463   0.50036   0.50097   0.00000  Uiso   1.00
C475   C     0.83537   0.49963   0.49903   0.00000  Uiso   1.00
C476   C     0.90945   0.54205   0.53098   0.00000  Uiso   1.00
Cu477  Cu    0.75501   0.50579   0.56146   0.00000  Uiso   1.00
Cu478  Cu    0.74500   0.49421   0.43854   0.00000  Uiso   1.00
H479   H     0.89332   0.57529   0.55639   0.00000  Uiso   1.00
H480   H     0.60668   0.42470   0.44362   0.00000  Uiso   1.00
H481   H     0.95315   0.37780   0.40549   0.00000  Uiso   1.00
H482   H     0.54686   0.62220   0.59451   0.00000  Uiso   1.00
H483   H     0.53408   0.37998   0.40843   0.00000  Uiso   1.00
H484   H     0.96592   0.62002   0.59157   0.00000  Uiso   1.00
H485   H     0.71530   0.45932   0.64966   0.00000  Uiso   1.00
H486   H     0.78470   0.54068   0.35034   0.00000  Uiso   1.00
N487   N     0.73745   0.48547   0.34617   0.00000  Uiso   1.00
N488   N     0.76256   0.51453   0.65383   0.00000  Uiso   1.00
N489   N     0.85307   0.37204   0.40875   0.00000  Uiso   1.00
N490   N     0.64693   0.62796   0.59123   0.00000  Uiso   1.00
N491   N     0.67821   0.63148   0.39476   0.00000  Uiso   1.00
N492   N     0.82181   0.36852   0.60522   0.00000  Uiso   1.00
O493   O     0.75326   0.42871   0.53992   0.00000  Uiso   1.00
O494   O     0.74675   0.57129   0.46008   0.00000  Uiso   1.00
O495   O     0.74480   0.41892   0.43612   0.00000  Uiso   1.00
O496   O     0.75520   0.58108   0.56388   0.00000  Uiso   1.00
O497   O     0.68936   0.50488   0.55191   0.00000  Uiso   1.00
O498   O     0.81065   0.49512   0.44809   0.00000  Uiso   1.00
O499   O     0.68090   0.49510   0.44810   0.00000  Uiso   1.00
O500   O     0.81910   0.50490   0.55190   0.00000  Uiso   1.00
C501   C     0.24732   0.73357   0.48507   0.00000  Uiso   1.00
C502   C     0.09055   0.79128   0.46902   0.00000  Uiso   1.00
C503   C     0.38345   0.83205   0.49710   0.00000  Uiso   1.00
C504   C     0.11655   0.83462   0.50290   0.00000  Uiso   1.00
C505   C     0.40329   0.78811   0.46415   0.00000  Uiso   1.00
C506   C     0.09671   0.87856   0.53585   0.00000  Uiso   1.00
C507   C     0.45030   0.78847   0.46475   0.00000  Uiso   1.00
C508   C     0.04970   0.87819   0.53525   0.00000  Uiso   1.00
C509   C     0.47651   0.83286   0.49915   0.00000  Uiso   1.00
C510   C     0.02350   0.83381   0.50086   0.00000  Uiso   1.00
C511   C     0.45580   0.87624   0.53217   0.00000  Uiso   1.00
C512   C     0.25268   0.93309   0.51493   0.00000  Uiso   1.00
C513   C     0.04420   0.79043   0.46783   0.00000  Uiso   1.00
C514   C     0.47190   0.74567   0.43235   0.00000  Uiso   1.00
C515   C     0.02810   0.92100   0.56765   0.00000  Uiso   1.00
C516   C     0.37537   0.74212   0.43313   0.00000  Uiso   1.00
C517   C     0.12463   0.92455   0.56686   0.00000  Uiso   1.00
C518   C     0.20559   0.98563   0.43207   0.00000  Uiso   1.00
C519   C     0.29443   0.68103   0.56792   0.00000  Uiso   1.00
C520   C     0.01834   0.74676   0.43390   0.00000  Uiso   1.00
C521   C     0.48166   0.91991   0.56611   0.00000  Uiso   1.00
C522   C     0.23988   0.67848   0.47917   0.00000  Uiso   1.00
C523   C     0.26012   0.98819   0.52083   0.00000  Uiso   1.00
C524   C     0.16463   0.83370   0.50097   0.00000  Uiso   1.00
C525   C     0.33537   0.83297   0.49903   0.00000  Uiso   1.00
C526   C     0.40945   0.87539   0.53098   0.00000  Uiso   1.00
Cu527  Cu    0.25501   0.83913   0.56146   0.00000  Uiso   1.00
Cu528  Cu    0.24500   0.82754   0.43854   0.00000  Uiso   1.00
H529   H     0.39332   0.90863   0.55639   0.00000  Uiso   1.00
H530   H     0.10668   0.75804   0.44362   0.00000  Uiso   1.00
H531   H     0.45315   0.71113   0.40549   0.00000  Uiso   1.00
H532   H     0.04686   0.95553   0.59451   0.00000  Uiso   1.00
H533   H     0.03408   0.71331   0.40843   0.00000  Uiso   1.00
H534   H     0.46592   0.95335   0.59157   0.00000  Uiso   1.00
H535   H     0.21530   0.79265   0.64966   0.00000  Uiso   1.00
H536   H     0.28470   0.87402   0.35034   0.00000  Uiso   1.00
N537   N     0.23745   0.81881   0.34617   0.00000  Uiso   1.00
N538   N     0.26256   0.84786   0.65383   0.00000  Uiso   1.00
N539   N     0.35307   0.70538   0.40875   0.00000  Uiso   1.00
N540   N     0.14693   0.96130   0.59123   0.00000  Uiso   1.00
N541   N     0.17821   0.96481   0.39476   0.00000  Uiso   1.00
N542   N     0.32181   0.70185   0.60522   0.00000  Uiso   1.00
O543   O     0.25326   0.76204   0.53992   0.00000  Uiso   1.00
O544   O     0.24675   0.90462   0.46008   0.00000  Uiso   1.00
O545   O     0.24480   0.75226   0.43612   0.00000  Uiso   1.00
O546   O     0.25520   0.91441   0.56388   0.00000  Uiso   1.00
O547   O     0.18936   0.83821   0.55191   0.00000  Uiso   1.00
O548   O     0.31065   0.82845   0.44809   0.00000  Uiso   1.00
O549   O     0.18090   0.82843   0.44810   0.00000  Uiso   1.00
O550   O     0.31910   0.83824   0.55190   0.00000  Uiso   1.00
C551   C     0.74732   0.73357   0.48507   0.00000  Uiso   1.00
C552   C     0.59055   0.79128   0.46902   0.00000  Uiso   1.00
C553   C     0.88345   0.83205   0.49710   0.00000  Uiso   1.00
C554   C     0.61655   0.83462   0.50290   0.00000  Uiso   1.00
C555   C     0.90329   0.78811   0.46415   0.00000  Uiso   1.00
C556   C     0.59671   0.87856   0.53585   0.00000  Uiso   1.00
C557   C     0.95030   0.78847   0.46475   0.00000  Uiso   1.00
C558   C     0.54970   0.87819   0.53525   0.00000  Uiso   1.00
C559   C     0.97651   0.83286   0.49915   0.00000  Uiso   1.00
C560   C     0.52350   0.83381   0.50086   0.00000  Uiso   1.00
C561   C     0.95580   0.87624   0.53217   0.00000  Uiso   1.00
C562   C     0.75268   0.93309   0.51493   0.00000  Uiso   1.00
C563   C     0.54420   0.79043   0.46783   0.00000  Uiso   1.00
C564   C     0.97190   0.74567   0.43235   0.00000  Uiso   1.00
C565   C     0.52810   0.92100   0.56765   0.00000  Uiso   1.00
C566   C     0.87537   0.74212   0.43313   0.00000  Uiso   1.00
C567   C     0.62463   0.92455   0.56686   0.00000  Uiso   1.00
C568   C     0.70559   0.98563   0.43207   0.00000  Uiso   1.00
C569   C     0.79443   0.68103   0.56792   0.00000  Uiso   1.00
C570   C     0.51834   0.74676   0.43390   0.00000  Uiso   1.00
C571   C     0.98166   0.91991   0.56611   0.00000  Uiso   1.00
C572   C     0.73988   0.67848   0.47917   0.00000  Uiso   1.00
C573   C     0.76012   0.98819   0.52083   0.00000  Uiso   1.00
C574   C     0.66463   0.83370   0.50097   0.00000  Uiso   1.00
C575   C     0.83537   0.83297   0.49903   0.00000  Uiso   1.00
C576   C     0.90945   0.87539   0.53098   0.00000  Uiso   1.00
Cu577  Cu    0.75501   0.83913   0.56146   0.00000  Uiso   1.00
Cu578  Cu    0.74500   0.82754   0.43854   0.00000  Uiso   1.00
H579   H     0.89332   0.90863   0.55639   0.00000  Uiso   1.00
H580   H     0.60668   0.75804   0.44362   0.00000  Uiso   1.00
H581   H     0.95315   0.71113   0.40549   0.00000  Uiso   1.00
H582   H     0.54686   0.95553   0.59451   0.00000  Uiso   1.00
H583   H     0.53408   0.71331   0.40843   0.00000  Uiso   1.00
H584   H     0.96592   0.95335   0.59157   0.00000  Uiso   1.00
H585   H     0.71530   0.79265   0.64966   0.00000  Uiso   1.00
H586   H     0.78470   0.87402   0.35034   0.00000  Uiso   1.00
N587   N     0.73745   0.81881   0.34617   0.00000  Uiso   1.00
N588   N     0.76256   0.84786   0.65383   0.00000  Uiso   1.00
N589   N     0.85307   0.70538   0.40875   0.00000  Uiso   1.00
N590   N     0.64693   0.96130   0.59123   0.00000  Uiso   1.00
N591   N     0.67821   0.96481   0.39476   0.00000  Uiso   1.00
N592   N     0.82181   0.70185   0.60522   0.00000  Uiso   1.00
O593   O     0.75326   0.76204   0.53992   0.00000  Uiso   1.00
O594   O     0.74675   0.90462   0.46008   0.00000  Uiso   1.00
O595   O     0.74480   0.75226   0.43612   0.00000  Uiso   1.00
O596   O     0.75520   0.91441   0.56388   0.00000  Uiso   1.00
O597   O     0.68936   0.83821   0.55191   0.00000  Uiso   1.00
O598   O     0.81065   0.82845   0.44809   0.00000  Uiso   1.00
O599   O     0.68090   0.82843   0.44810   0.00000  Uiso   1.00
O600   O     0.81910   0.83824   0.55190   0.00000  Uiso   1.00
C601   C     0.24732   0.06691   0.81840   0.00000  Uiso   1.00
C602   C     0.09055   0.12461   0.80235   0.00000  Uiso   1.00
C603   C     0.38345   0.16538   0.83044   0.00000  Uiso   1.00
C604   C     0.11655   0.16795   0.83623   0.00000  Uiso   1.00
C605   C     0.40329   0.12144   0.79748   0.00000  Uiso   1.00
C606   C     0.09671   0.21189   0.86918   0.00000  Uiso   1.00
C607   C     0.45030   0.12181   0.79808   0.00000  Uiso   1.00
C608   C     0.04970   0.21153   0.86858   0.00000  Uiso   1.00
C609   C     0.47651   0.16619   0.83248   0.00000  Uiso   1.00
C610   C     0.02350   0.16714   0.83419   0.00000  Uiso   1.00
C611   C     0.45580   0.20957   0.86551   0.00000  Uiso   1.00
C612   C     0.25268   0.26643   0.84827   0.00000  Uiso   1.00
C613   C     0.04420   0.12376   0.80116   0.00000  Uiso   1.00
C614   C     0.47190   0.07900   0.76569   0.00000  Uiso   1.00
C615   C     0.02810   0.25433   0.90098   0.00000  Uiso   1.00
C616   C     0.37537   0.07545   0.76646   0.00000  Uiso   1.00
C617   C     0.12463   0.25789   0.90019   0.00000  Uiso   1.00
C618   C     0.20559   0.31896   0.76540   0.00000  Uiso   1.00
C619   C     0.29443   0.01437   0.90125   0.00000  Uiso   1.00
C620   C     0.01834   0.08009   0.76723   0.00000  Uiso   1.00
C621   C     0.48166   0.25324   0.89944   0.00000  Uiso   1.00
C622   C     0.23988   0.01181   0.81250   0.00000  Uiso   1.00
C623   C     0.26012   0.32152   0.85416   0.00000  Uiso   1.00
C624   C     0.16463   0.16703   0.83430   0.00000  Uiso   1.00
C625   C     0.33537   0.16630   0.83236   0.00000  Uiso   1.00
C626   C     0.40945   0.20872   0.86432   0.00000  Uiso   1.00
Cu627  Cu    0.25501   0.17246   0.89479   0.00000  Uiso   1.00
Cu628  Cu    0.24500   0.16087   0.77187   0.00000  Uiso   1.00
H629   H     0.39332   0.24196   0.88973   0.00000  Uiso   1.00
H630   H     0.10668   0.09137   0.77695   0.00000  Uiso   1.00
H631   H     0.45315   0.04447   0.73882   0.00000  Uiso   1.00
H632   H     0.04686   0.28887   0.92785   0.00000  Uiso   1.00
H633   H     0.03408   0.04664   0.74176   0.00000  Uiso   1.00
H634   H     0.46592   0.28669   0.92491   0.00000  Uiso   1.00
H635   H     0.21530   0.12598   0.98299   0.00000  Uiso   1.00
H636   H     0.28470   0.20735   0.68368   0.00000  Uiso   1.00
N637   N     0.23745   0.15214   0.67951   0.00000  Uiso   1.00
N638   N     0.26256   0.18119   0.98716   0.00000  Uiso   1.00
N639   N     0.35307   0.03871   0.74208   0.00000  Uiso   1.00
N640   N     0.14693   0.29463   0.92456   0.00000  Uiso   1.00
N641   N     0.17821   0.29815   0.72809   0.00000  Uiso   1.00
N642   N     0.32181   0.03518   0.93855   0.00000  Uiso   1.00
O643   O     0.25326   0.09538   0.87326   0.00000  Uiso   1.00
O644   O     0.24675   0.23796   0.79341   0.00000  Uiso   1.00
O645   O     0.24480   0.08559   0.76945   0.00000  Uiso   1.00
O646   O     0.25520   0.24774   0.89721   0.00000  Uiso   1.00
O647   O     0.18936   0.17155   0.88524   0.00000  Uiso   1.00
O648   O     0.31065   0.16179   0.78143   0.00000  Uiso   1.00
O649   O     0.18090   0.16176   0.78143   0.00000  Uiso   1.00
O650   O     0.31910   0.17157   0.88523   0.00000  Uiso   1.00
C651   C     0.74732   0.06691   0.81840   0.00000  Uiso   1.00
C652   C     0.59055   0.12461   0.80235   0.00000  Uiso   1.00
C653   C     0.88345   0.16538   0.83044   0.00000  Uiso   1.00
C654   C     0.61655   0.16795   0.83623   0.00000  Uiso   1.00
C655   C     0.90329   0.12144   0.79748   0.00000  Uiso   1.00
C656   C     0.59671   0.21189   0.86918   0.00000  Uiso   1.00
C657   C     0.95030   0.12181   0.79808   0.00000  Uiso   1.00
C658   C     0.54970   0.21153   0.86858   0.00000  Uiso   1.00
C659   C     0.97651   0.16619   0.83248   0.00000  Uiso   1.00
C660   C     0.52350   0.16714   0.83419   0.00000  Uiso   1.00
C661   C     0.95580   0.20957   0.86551   0.00000  Uiso   1.00
C662   C     0.75268   0.26643   0.84827   0.00000  Uiso   1.00
C663   C     0.54420   0.12376   0.80116   0.00000  Uiso   1.00
C664   C     0.97190   0.07900   0.76569   0.00000  Uiso   1.00
C665   C     0.52810   0.25433   0.90098   0.00000  Uiso   1.00
C666   C     0.87537   0.07545   0.76646   0.00000  Uiso   1.00
C667   C     0.62463   0.25789   0.90019   0.00000  Uiso   1.00
C668   C     0.70559   0.31896   0.76540   0.00000  Uiso   1.00
C669   C     0.79443   0.01437   0.90125   0.00000  Uiso   1.00
C670   C     0.51834   0.08009   0.76723   0.00000  Uiso   1.00
C671   C     0.98166   0.25324   0.89944   0.00000  Uiso   1.00
C672   C     0.73988   0.01181   0.81250   0.00000  Uiso   1.00
C673   C     0.76012   0.32152   0.85416   0.00000  Uiso   1.00
C674   C     0.66463   0.16703   0.83430   0.00000  Uiso   1.00
C675   C     0.83537   0.16630   0.83236   0.00000  Uiso   1.00
C676   C     0.90945   0.20872   0.86432   0.00000  Uiso   1.00
Cu677  Cu    0.75501   0.17246   0.89479   0.00000  Uiso   1.00
Cu678  Cu    0.74500   0.16087   0.77187   0.00000  Uiso   1.00
H679   H     0.89332   0.24196   0.88973   0.00000  Uiso   1.00
H680   H     0.60668   0.09137   0.77695   0.00000  Uiso   1.00
H681   H     0.95315   0.04447   0.73882   0.00000  Uiso   1.00
H682   H     0.54686   0.28887   0.92785   0.00000  Uiso   1.00
H683   H     0.53408   0.04664   0.74176   0.00000  Uiso   1.00
H684   H     0.96592   0.28669   0.92491   0.00000  Uiso   1.00
H685   H     0.71530   0.12598   0.98299   0.00000  Uiso   1.00
H686   H     0.78470   0.20735   0.68368   0.00000  Uiso   1.00
N687   N     0.73745   0.15214   0.67951   0.00000  Uiso   1.00
N688   N     0.76256   0.18119   0.98716   0.00000  Uiso   1.00
N689   N     0.85307   0.03871   0.74208   0.00000  Uiso   1.00
N690   N     0.64693   0.29463   0.92456   0.00000  Uiso   1.00
N691   N     0.67821   0.29815   0.72809   0.00000  Uiso   1.00
N692   N     0.82181   0.03518   0.93855   0.00000  Uiso   1.00
O693   O     0.75326   0.09538   0.87326   0.00000  Uiso   1.00
O694   O     0.74675   0.23796   0.79341   0.00000  Uiso   1.00
O695   O     0.74480   0.08559   0.76945   0.00000  Uiso   1.00
O696   O     0.75520   0.24774   0.89721   0.00000  Uiso   1.00
O697   O     0.68936   0.17155   0.88524   0.00000  Uiso   1.00
O698   O     0.81065   0.16179   0.78143   0.00000  Uiso   1.00
O699   O     0.68090   0.16176   0.78143   0.00000  Uiso   1.00
O700   O     0.81910   0.17157   0.88523   0.00000  Uiso   1.00
C701   C     0.24732   0.40024   0.81840   0.00000  Uiso   1.00
C702   C     0.09055   0.45794   0.80235   0.00000  Uiso   1.00
C703   C     0.38345   0.49872   0.83044   0.00000  Uiso   1.00
C704   C     0.11655   0.50128   0.83623   0.00000  Uiso   1.00
C705   C     0.40329   0.45478   0.79748   0.00000  Uiso   1.00
C706   C     0.09671   0.54522   0.86918   0.00000  Uiso   1.00
C707   C     0.45030   0.45514   0.79808   0.00000  Uiso   1.00
C708   C     0.04970   0.54486   0.86858   0.00000  Uiso   1.00
C709   C     0.47651   0.49952   0.83248   0.00000  Uiso   1.00
C710   C     0.02350   0.50048   0.83419   0.00000  Uiso   1.00
C711   C     0.45580   0.54291   0.86551   0.00000  Uiso   1.00
C712   C     0.25268   0.59976   0.84827   0.00000  Uiso   1.00
C713   C     0.04420   0.45709   0.80116   0.00000  Uiso   1.00
C714   C     0.47190   0.41234   0.76569   0.00000  Uiso   1.00
C715   C     0.02810   0.58766   0.90098   0.00000  Uiso   1.00
C716   C     0.37537   0.40878   0.76646   0.00000  Uiso   1.00
C717   C     0.12463   0.59122   0.90019   0.00000  Uiso   1.00
C718   C     0.20559   0.65230   0.76540   0.00000  Uiso   1.00
C719   C     0.29443   0.34770   0.90125   0.00000  Uiso   1.00
C720   C     0.01834   0.41342   0.76723   0.00000  Uiso   1.00
C721   C     0.48166   0.58658   0.89944   0.00000  Uiso   1.00
C722   C     0.23988   0.34515   0.81250   0.00000  Uiso   1.00
C723   C     0.26012   0.65485   0.85416   0.00000  Uiso   1.00
C724   C     0.16463   0.50036   0.83430   0.00000  Uiso   1.00
C725   C     0.33537   0.49963   0.83236   0.00000  Uiso   1.00
C726   C     0.40945   0.54205   0.86432   0.00000  Uiso   1.00
Cu727  Cu    0.25501   0.50579   0.89479   0.00000  Uiso   1.00
Cu728  Cu    0.24500   0.49421   0.77187   0.00000  Uiso   1.00
H729   H     0.39332   0.57529   0.88973   0.00000  Uiso   1.00
H730   H     0.10668   0.42470   0.77695   0.00000  Uiso   1.00
H731   H     0.45315   0.37780   0.73882   0.00000  Uiso   1.00
H732   H     0.04686   0.62220   0.92785   0.00000  Uiso   1.00
H733   H     0.03408   0.37998   0.74176   0.00000  Uiso   1.00
H734   H     0.46592   0.62002   0.92491   0.00000  Uiso   1.00
H735   H     0.21530   0.45932   0.98299   0.00000  Uiso   1.00
H736   H     0.28470   0.54068   0.68368   0.00000  Uiso   1.00
N737   N     0.23745   0.48547   0.67951   0.00000  Uiso   1.00
N738   N     0.26256   0.51453   0.98716   0.00000  Uiso   1.00
N739   N     0.35307   0.37204   0.74208   0.00000  Uiso   1.00
N740   N     0.14693   0.62796   0.92456   0.00000  Uiso   1.00
N741   N     0.17821   0.63148   0.72809   0.00000  Uiso   1.00
N742   N     0.32181   0.36852   0.93855   0.00000  Uiso   1.00
O743   O     0.25326   0.42871   0.87326   0.00000  Uiso   1.00
O744   O     0.24675   0.57129   0.79341   0.00000  Uiso   1.00
O745   O     0.24480   0.41892   0.76945   0.00000  Uiso   1.00
O746   O     0.25520   0.58108   0.89721   0.00000  Uiso   1.00
O747   O     0.18936   0.50488   0.88524   0.00000  Uiso   1.00
O748   O     0.31065   0.49512   0.78143   0.00000  Uiso   1.00
O749   O     0.18090   0.49510   0.78143   0.00000  Uiso   1.00
O750   O     0.31910   0.50490   0.88523   0.00000  Uiso   1.00
C751   C     0.74732   0.40024   0.81840   0.00000  Uiso   1.00
C752   C     0.59055   0.45794   0.80235   0.00000  Uiso   1.00
C753   C     0.88345   0.49872   0.83044   0.00000  Uiso   1.00
C754   C     0.61655   0.50128   0.83623   0.00000  Uiso   1.00
C755   C     0.90329   0.45478   0.79748   0.00000  Uiso   1.00
C756   C     0.59671   0.54522   0.86918   0.00000  Uiso   1.00
C757   C     0.95030   0.45514   0.79808   0.00000  Uiso   1.00
C758   C     0.54970   0.54486   0.86858   0.00000  Uiso   1.00
C759   C     0.97651   0.49952   0.83248   0.00000  Uiso   1.00
C760   C     0.52350   0.50048   0.83419   0.00000  Uiso   1.00
C761   C     0.95580   0.54291   0.86551   0.00000  Uiso   1.00
C762   C     0.75268   0.59976   0.84827   0.00000  Uiso   1.00
C763   C     0.54420   0.45709   0.80116   0.00000  Uiso   1.00
C764   C     0.97190   0.41234   0.76569   0.00000  Uiso   1.00
C765   C     0.52810   0.58766   0.90098   0.00000  Uiso   1.00
C766   C     0.87537   0.40878   0.76646   0.00000  Uiso   1.00
C767   C     0.62463   0.59122   0.90019   0.00000  Uiso   1.00
C768   C     0.70559   0.65230   0.76540   0.00000  Uiso   1.00
C769   C     0.79443   0.34770   0.90125   0.00000  Uiso   1.00
C770   C     0.51834   0.41342   0.76723   0.00000  Uiso   1.00
C771   C     0.98166   0.58658   0.89944   0.00000  Uiso   1.00
C772   C     0.73988   0.34515   0.81250   0.00000  Uiso   1.00
C773   C     0.76012   0.65485   0.85416   0.00000  Uiso   1.00
C774   C     0.66463   0.50036   0.83430   0.00000  Uiso   1.00
C775   C     0.83537   0.49963   0.83236   0.00000  Uiso   1.00
C776   C     0.90945   0.54205   0.86432   0.00000  Uiso   1.00
Cu777  Cu    0.75501   0.50579   0.89479   0.00000  Uiso   1.00
Cu778  Cu    0.74500   0.49421   0.77187   0.00000  Uiso   1.00
H779   H     0.89332   0.57529   0.88973   0.00000  Uiso   1.00
H780   H     0.60668   0.42470   0.77695   0.00000  Uiso   1.00
H781   H     0.95315   0.37780   0.73882   0.00000  Uiso   1.00
H782   H     0.54686   0.62220   0.92785   0.00000  Uiso   1.00
H783   H     0.53408   0.37998   0.74176   0.00000  Uiso   1.00
H784   H     0.96592   0.62002   0.92491   0.00000  Uiso   1.00
H785   H     0.71530   0.45932   0.98299   0.00000  Uiso   1.00
H786   H     0.78470   0.54068   0.68368   0.00000  Uiso   1.00
N787   N     0.73745   0.48547   0.67951   0.00000  Uiso   1.00
N788   N     0.76256   0.51453   0.98716   0.00000  Uiso   1.00
N789   N     0.85307   0.37204   0.74208   0.00000  Uiso   1.00
N790   N     0.64693   0.62796   0.92456   0.00000  Uiso   1.00
N791   N     0.67821   0.63148   0.72809   0.00000  Uiso   1.00
N792   N     0.82181   0.36852   0.93855   0.00000  Uiso   1.00
O793   O     0.75326   0.42871   0.87326   0.00000  Uiso   1.00
O794   O     0.74675   0.57129   0.79341   0.00000  Uiso   1.00
O795   O     0.74480   0.41892   0.76945   0.00000  Uiso   1.00
O796   O     0.75520   0.58108   0.89721   0.00000  Uiso   1.00
O797   O     0.68936   0.50488   0.88524   0.00000  Uiso   1.00
O798   O     0.81065   0.49512   0.78143   0.00000  Uiso   1.00
O799   O     0.68090   0.49510   0.78143   0.00000  Uiso   1.00
O800   O     0.81910   0.50490   0.88523   0.00000  Uiso   1.00
C801   C     0.24732   0.73357   0.81840   0.00000  Uiso   1.00
C802   C     0.09055   0.79128   0.80235   0.00000  Uiso   1.00
C803   C     0.38345   0.83205   0.83044   0.00000  Uiso   1.00
C804   C     0.11655   0.83462   0.83623   0.00000  Uiso   1.00
C805   C     0.40329   0.78811   0.79748   0.00000  Uiso   1.00
C806   C     0.09671   0.87856   0.86918   0.00000  Uiso   1.00
C807   C     0.45030   0.78847   0.79808   0.00000  Uiso   1.00
C808   C     0.04970   0.87819   0.86858   0.00000  Uiso   1.00
C809   C     0.47651   0.83286   0.83248   0.00000  Uiso   1.00
C810   C     0.02350   0.83381   0.83419   0.00000  Uiso   1.00
C811   C     0.45580   0.87624   0.86551   0.00000  Uiso   1.00
C812   C     0.25268   0.93309   0.84827   0.00000  Uiso   1.00
C813   C     0.04420   0.79043   0.80116   0.00000  Uiso   1.00
C814   C     0.47190   0.74567   0.76569   0.00000  Uiso   1.00
C815   C     0.02810   0.92100   0.90098   0.00000  Uiso   1.00
C816   C     0.37537   0.74212   0.76646   0.00000  Uiso   1.00
C817   C     0.12463   0.92455   0.90019   0.00000  Uiso   1.00
C818   C     0.20559   0.98563   0.76540   0.00000  Uiso   1.00
C819   C     0.29443   0.68103   0.90125   0.00000  Uiso   1.00
C820   C     0.01834   0.74676   0.76723   0.00000  Uiso   1.00
C821   C     0.48166   0.91991   0.89944   0.00000  Uiso   1.00
C822   C     0.23988   0.67848   0.81250   0.00000  Uiso   1.00
C823   C     0.26012   0.98819   0.85416   0.00000  Uiso   1.00
C824   C     0.16463   0.83370   0.83430   0.00000  Uiso   1.00
C825   C     0.33537   0.83297   0.83236   0.00000  Uiso   1.00
C826   C     0.40945   0.87539   0.86432   0.00000  Uiso   1.00
Cu827  Cu    0.25501   0.83913   0.89479   0.00000  Uiso   1.00
Cu828  Cu    0.24500   0.82754   0.77187   0.00000  Uiso   1.00
H829   H     0.39332   0.90863   0.88973   0.00000  Uiso   1.00
H830   H     0.10668   0.75804   0.77695   0.00000  Uiso   1.00
H831   H     0.45315   0.71113   0.73882   0.00000  Uiso   1.00
H832   H     0.04686   0.95553   0.92785   0.00000  Uiso   1.00
H833   H     0.03408   0.71331   0.74176   0.00000  Uiso   1.00
H834   H     0.46592   0.95335   0.92491   0.00000  Uiso   1.00
H835   H     0.21530   0.79265   0.98299   0.00000  Uiso   1.00
H836   H     0.28470   0.87402   0.68368   0.00000  Uiso   1.00
N837   N     0.23745   0.81881   0.67951   0.00000  Uiso   1.00
N838   N     0.26256   0.84786   0.98716   0.00000  Uiso   1.00
N839   N     0.35307   0.70538   0.74208   0.00000  Uiso   1.00
N840   N     0.14693   0.96130   0.92456   0.00000  Uiso   1.00
N841   N     0.17821   0.96481   0.72809   0.00000  Uiso   1.00
N842   N     0.32181   0.70185   0.93855   0.00000  Uiso   1.00
O843   O     0.25326   0.76204   0.87326   0.00000  Uiso   1.00
O844   O     0.24675   0.90462   0.79341   0.00000  Uiso   1.00
O845   O     0.24480   0.75226   0.76945   0.00000  Uiso   1.00
O846   O     0.25520   0.91441   0.89721   0.00000  Uiso   1.00
O847   O     0.18936   0.83821   0.88524   0.00000  Uiso   1.00
O848   O     0.31065   0.82845   0.78143   0.00000  Uiso   1.00
O849   O     0.18090   0.82843   0.78143   0.00000  Uiso   1.00
O850   O     0.31910   0.83824   0.88523   0.00000  Uiso   1.00
C851   C     0.74732   0.73357   0.81840   0.00000  Uiso   1.00
C852   C     0.59055   0.79128   0.80235   0.00000  Uiso   1.00
C853   C     0.88345   0.83205   0.83044   0.00000  Uiso   1.00
C854   C     0.61655   0.83462   0.83623   0.00000  Uiso   1.00
C855   C     0.90329   0.78811   0.79748   0.00000  Uiso   1.00
C856   C     0.59671   0.87856   0.86918   0.00000  Uiso   1.00
C857   C     0.95030   0.78847   0.79808   0.00000  Uiso   1.00
C858   C     0.54970   0.87819   0.86858   0.00000  Uiso   1.00
C859   C     0.97651   0.83286   0.83248   0.00000  Uiso   1.00
C860   C     0.52350   0.83381   0.83419   0.00000  Uiso   1.00
C861   C     0.95580   0.87624   0.86551   0.00000  Uiso   1.00
C862   C     0.75268   0.93309   0.84827   0.00000  Uiso   1.00
C863   C     0.54420   0.79043   0.80116   0.00000  Uiso   1.00
C864   C     0.97190   0.74567   0.76569   0.00000  Uiso   1.00
C865   C     0.52810   0.92100   0.90098   0.00000  Uiso   1.00
C866   C     0.87537   0.74212   0.76646   0.00000  Uiso   1.00
C867   C     0.62463   0.92455   0.90019   0.00000  Uiso   1.00
C868   C     0.70559   0.98563   0.76540   0.00000  Uiso   1.00
C869   C     0.79443   0.68103   0.90125   0.00000  Uiso   1.00
C870   C     0.51834   0.74676   0.76723   0.00000  Uiso   1.00
C871   C     0.98166   0.91991   0.89944   0.00000  Uiso   1.00
C872   C     0.73988   0.67848   0.81250   0.00000  Uiso   1.00
C873   C     0.76012   0.98819   0.85416   0.00000  Uiso   1.00
C874   C     0.66463   0.83370   0.83430   0.00000  Uiso   1.00
C875   C     0.83537   0.83297   0.83236   0.00000  Uiso   1.00
C876   C     0.90945   0.87539   0.86432   0.00000  Uiso   1.00
Cu877  Cu    0.75501   0.83913   0.89479   0.00000  Uiso   1.00
Cu878  Cu    0.74500   0.82754   0.77187   0.00000  Uiso   1.00
H879   H     0.89332   0.90863   0.88973   0.00000  Uiso   1.00
H880   H     0.60668   0.75804   0.77695   0.00000  Uiso   1.00
H881   H     0.95315   0.71113   0.73882   0.00000  Uiso   1.00
H882   H     0.54686   0.95553   0.92785   0.00000  Uiso   1.00
H883   H     0.53408   0.71331   0.74176   0.00000  Uiso   1.00
H884   H     0.96592   0.95335   0.92491   0.00000  Uiso   1.00
H885   H     0.71530   0.79265   0.98299   0.00000  Uiso   1.00
H886   H     0.78470   0.87402   0.68368   0.00000  Uiso   1.00
N887   N     0.73745   0.81881   0.67951   0.00000  Uiso   1.00
N888   N     0.76256   0.84786   0.98716   0.00000  Uiso   1.00
N889   N     0.85307   0.70538   0.74208   0.00000  Uiso   1.00
N890   N     0.64693   0.96130   0.92456   0.00000  Uiso   1.00
N891   N     0.67821   0.96481   0.72809   0.00000  Uiso   1.00
N892   N     0.82181   0.70185   0.93855   0.00000  Uiso   1.00
O893   O     0.75326   0.76204   0.87326   0.00000  Uiso   1.00
O894   O     0.74675   0.90462   0.79341   0.00000  Uiso   1.00
O895   O     0.74480   0.75226   0.76945   0.00000  Uiso   1.00
O896   O     0.75520   0.91441   0.89721   0.00000  Uiso   1.00
O897   O     0.68936   0.83821   0.88524   0.00000  Uiso   1.00
O898   O     0.81065   0.82845   0.78143   0.00000  Uiso   1.00
O899   O     0.68090   0.82843   0.78143   0.00000  Uiso   1.00
O900   O     0.81910   0.83824   0.88523   0.00000  Uiso   1.00
loop_
_geom_bond_atom_site_label_1
_geom_bond_atom_site_label_2
_geom_bond_distance
_geom_bond_site_symmetry_2
_ccdc_geom_bond_type
C1     C22     1.427   .     S
C1     O45     1.288   .     A
C1     O43     1.288   .     A
C2     C4      1.394   .     A
C2     H30     1.086   .     S
C2     C13     1.388   .     A
C3     C26     1.394   .     A
C3     C25     1.447   .     S
C3     C5      1.407   .     A
C4     C24     1.447   .     S
C4     C6      1.407   .     A
C5     C7      1.409   .     A
C5     C16     1.452   .     S
C6     C17     1.452   .     S
C6     C8      1.409   .     A
C7     C9      1.419   .     A
C7     C14     1.408   .     A
C8     C10     1.419   .     A
C8     C15     1.408   .     A
C9     C11     1.411   .     A
C9     C60     1.407   .     S
C10    C13     1.411   .     A
C10    C59     1.407   1_455 S
C11    C26     1.388   .     A
C11    C21     1.398   .     A
C12    C23     1.427   .     S
C12    O44     1.288   .     A
C12    O46     1.288   .     A
C13    C20     1.398   .     A
C14    H31     1.083   .     S
C14    C70     1.390   .     S
C15    H32     1.083   .     S
C15    C71     1.390   1_455 S
C16    N39     1.157   .     T
C17    N40     1.157   .     T
C18    N41     1.157   .     T
C18    C122    1.455   .     S
C19    N42     1.157   .     T
C19    C223    1.455   1_545 S
C20    H33     1.084   .     S
C20    C64     1.390   1_455 S
C21    H34     1.084   .     S
C21    C65     1.390   .     S
C22    C218    1.455   1_545 S
C22    C223    1.349   1_545 S
C23    C122    1.349   .     S
C23    C119    1.455   .     S
C24    O49     1.291   .     A
C24    O47     1.295   .     A
C25    O50     1.291   .     A
C25    O48     1.295   .     A
C26    H29     1.086   .     S
Cu27   O50     1.950   .     S
Cu27   O43     1.971   .     S
Cu27   O46     1.961   .     S
Cu27   N38     2.022   .     S
Cu27   O47     1.965   .     S
Cu27   Cu28    2.691   .     S
Cu28   N37     2.022   .     S
Cu28   O44     1.971   .     S
Cu28   O45     1.961   .     S
Cu28   O49     1.950   .     S
Cu28   O48     1.965   .     S
H35    N337    1.029   .     S
H36    N638    1.029   1_554 S
N37    H635    1.029   1_554 S
N37    N638    1.292   1_554 S
N38    N337    1.292   .     S
N38    H336    1.029   .     S
C51    C72     1.427   .     S
C51    O95     1.288   .     A
C51    O93     1.288   .     A
C52    C54     1.394   .     A
C52    H80     1.086   .     S
C52    C63     1.388   .     A
C53    C76     1.394   .     A
C53    C75     1.447   .     S
C53    C55     1.407   .     A
C54    C74     1.447   .     S
C54    C56     1.407   .     A
C55    C57     1.409   .     A
C55    C66     1.452   .     S
C56    C67     1.452   .     S
C56    C58     1.409   .     A
C57    C59     1.419   .     A
C57    C64     1.408   .     A
C58    C60     1.419   .     A
C58    C65     1.408   .     A
C59    C61     1.411   .     A
C59    C10     1.407   1_655 S
C60    C63     1.411   .     A
C61    C76     1.388   .     A
C61    C71     1.398   .     A
C62    C73     1.427   .     S
C62    O94     1.288   .     A
C62    O96     1.288   .     A
C63    C70     1.398   .     A
C64    H81     1.083   .     S
C64    C20     1.390   1_655 S
C65    H82     1.083   .     S
C66    N89     1.157   .     T
C67    N90     1.157   .     T
C68    N91     1.157   .     T
C68    C172    1.455   .     S
C69    N92     1.157   .     T
C69    C273    1.455   1_545 S
C70    H83     1.084   .     S
C71    H84     1.084   .     S
C71    C15     1.390   1_655 S
C72    C268    1.455   1_545 S
C72    C273    1.349   1_545 S
C73    C172    1.349   .     S
C73    C169    1.455   .     S
C74    O99     1.291   .     A
C74    O97     1.295   .     A
C75    O100    1.291   .     A
C75    O98     1.295   .     A
C76    H79     1.086   .     S
Cu77   O100    1.950   .     S
Cu77   O93     1.971   .     S
Cu77   O96     1.961   .     S
Cu77   N88     2.022   .     S
Cu77   O97     1.965   .     S
Cu77   Cu78    2.691   .     S
Cu78   N87     2.022   .     S
Cu78   O94     1.971   .     S
Cu78   O95     1.961   .     S
Cu78   O99     1.950   .     S
Cu78   O98     1.965   .     S
H85    N387    1.029   .     S
H86    N688    1.029   1_554 S
N87    H685    1.029   1_554 S
N87    N688    1.292   1_554 S
N88    N387    1.292   .     S
N88    H386    1.029   .     S
C101   C122    1.427   .     S
C101   O145    1.288   .     A
C101   O143    1.288   .     A
C102   C104    1.394   .     A
C102   H130    1.086   .     S
C102   C113    1.388   .     A
C103   C126    1.394   .     A
C103   C125    1.447   .     S
C103   C105    1.407   .     A
C104   C124    1.447   .     S
C104   C106    1.407   .     A
C105   C107    1.409   .     A
C105   C116    1.452   .     S
C106   C117    1.452   .     S
C106   C108    1.409   .     A
C107   C109    1.419   .     A
C107   C114    1.408   .     A
C108   C110    1.419   .     A
C108   C115    1.408   .     A
C109   C111    1.411   .     A
C109   C160    1.407   .     S
C110   C113    1.411   .     A
C110   C159    1.407   1_455 S
C111   C126    1.388   .     A
C111   C121    1.398   .     A
C112   C123    1.427   .     S
C112   O144    1.288   .     A
C112   O146    1.288   .     A
C113   C120    1.398   .     A
C114   H131    1.083   .     S
C114   C170    1.390   .     S
C115   H132    1.083   .     S
C115   C171    1.390   1_455 S
C116   N139    1.157   .     T
C117   N140    1.157   .     T
C118   N141    1.157   .     T
C118   C222    1.455   .     S
C119   N142    1.157   .     T
C120   H133    1.084   .     S
C120   C164    1.390   1_455 S
C121   H134    1.084   .     S
C121   C165    1.390   .     S
C123   C222    1.349   .     S
C123   C219    1.455   .     S
C124   O149    1.291   .     A
C124   O147    1.295   .     A
C125   O150    1.291   .     A
C125   O148    1.295   .     A
C126   H129    1.086   .     S
Cu127  O150    1.950   .     S
Cu127  O143    1.971   .     S
Cu127  O146    1.961   .     S
Cu127  N138    2.022   .     S
Cu127  O147    1.965   .     S
Cu127  Cu128   2.691   .     S
Cu128  N137    2.022   .     S
Cu128  O144    1.971   .     S
Cu128  O145    1.961   .     S
Cu128  O149    1.950   .     S
Cu128  O148    1.965   .     S
H135   N437    1.029   .     S
H136   N738    1.029   1_554 S
N137   H735    1.029   1_554 S
N137   N738    1.292   1_554 S
N138   N437    1.292   .     S
N138   H436    1.029   .     S
C151   C172    1.427   .     S
C151   O195    1.288   .     A
C151   O193    1.288   .     A
C152   C154    1.394   .     A
C152   H180    1.086   .     S
C152   C163    1.388   .     A
C153   C176    1.394   .     A
C153   C175    1.447   .     S
C153   C155    1.407   .     A
C154   C174    1.447   .     S
C154   C156    1.407   .     A
C155   C157    1.409   .     A
C155   C166    1.452   .     S
C156   C167    1.452   .     S
C156   C158    1.409   .     A
C157   C159    1.419   .     A
C157   C164    1.408   .     A
C158   C160    1.419   .     A
C158   C165    1.408   .     A
C159   C161    1.411   .     A
C159   C110    1.407   1_655 S
C160   C163    1.411   .     A
C161   C176    1.388   .     A
C161   C171    1.398   .     A
C162   C173    1.427   .     S
C162   O194    1.288   .     A
C162   O196    1.288   .     A
C163   C170    1.398   .     A
C164   H181    1.083   .     S
C164   C120    1.390   1_655 S
C165   H182    1.083   .     S
C166   N189    1.157   .     T
C167   N190    1.157   .     T
C168   N191    1.157   .     T
C168   C272    1.455   .     S
C169   N192    1.157   .     T
C170   H183    1.084   .     S
C171   H184    1.084   .     S
C171   C115    1.390   1_655 S
C173   C272    1.349   .     S
C173   C269    1.455   .     S
C174   O199    1.291   .     A
C174   O197    1.295   .     A
C175   O200    1.291   .     A
C175   O198    1.295   .     A
C176   H179    1.086   .     S
Cu177  O200    1.950   .     S
Cu177  O193    1.971   .     S
Cu177  O196    1.961   .     S
Cu177  N188    2.022   .     S
Cu177  O197    1.965   .     S
Cu177  Cu178   2.691   .     S
Cu178  N187    2.022   .     S
Cu178  O194    1.971   .     S
Cu178  O195    1.961   .     S
Cu178  O199    1.950   .     S
Cu178  O198    1.965   .     S
H185   N487    1.029   .     S
H186   N788    1.029   1_554 S
N187   H785    1.029   1_554 S
N187   N788    1.292   1_554 S
N188   N487    1.292   .     S
N188   H486    1.029   .     S
C201   C222    1.427   .     S
C201   O245    1.288   .     A
C201   O243    1.288   .     A
C202   C204    1.394   .     A
C202   H230    1.086   .     S
C202   C213    1.388   .     A
C203   C226    1.394   .     A
C203   C225    1.447   .     S
C203   C205    1.407   .     A
C204   C224    1.447   .     S
C204   C206    1.407   .     A
C205   C207    1.409   .     A
C205   C216    1.452   .     S
C206   C217    1.452   .     S
C206   C208    1.409   .     A
C207   C209    1.419   .     A
C207   C214    1.408   .     A
C208   C210    1.419   .     A
C208   C215    1.408   .     A
C209   C211    1.411   .     A
C209   C260    1.407   .     S
C210   C213    1.411   .     A
C210   C259    1.407   1_455 S
C211   C226    1.388   .     A
C211   C221    1.398   .     A
C212   C223    1.427   .     S
C212   O244    1.288   .     A
C212   O246    1.288   .     A
C213   C220    1.398   .     A
C214   H231    1.083   .     S
C214   C270    1.390   .     S
C215   H232    1.083   .     S
C215   C271    1.390   1_455 S
C216   N239    1.157   .     T
C217   N240    1.157   .     T
C218   N241    1.157   .     T
C218   C22     1.455   1_565 S
C219   N242    1.157   .     T
C220   H233    1.084   .     S
C220   C264    1.390   1_455 S
C221   H234    1.084   .     S
C221   C265    1.390   .     S
C223   C22     1.349   1_565 S
C223   C19     1.455   1_565 S
C224   O249    1.291   .     A
C224   O247    1.295   .     A
C225   O250    1.291   .     A
C225   O248    1.295   .     A
C226   H229    1.086   .     S
Cu227  O250    1.950   .     S
Cu227  O243    1.971   .     S
Cu227  O246    1.961   .     S
Cu227  N238    2.022   .     S
Cu227  O247    1.965   .     S
Cu227  Cu228   2.691   .     S
Cu228  N237    2.022   .     S
Cu228  O244    1.971   .     S
Cu228  O245    1.961   .     S
Cu228  O249    1.950   .     S
Cu228  O248    1.965   .     S
H235   N537    1.029   .     S
H236   N838    1.029   1_554 S
N237   H835    1.029   1_554 S
N237   N838    1.292   1_554 S
N238   N537    1.292   .     S
N238   H536    1.029   .     S
C251   C272    1.427   .     S
C251   O295    1.288   .     A
C251   O293    1.288   .     A
C252   C254    1.394   .     A
C252   H280    1.086   .     S
C252   C263    1.388   .     A
C253   C276    1.394   .     A
C253   C275    1.447   .     S
C253   C255    1.407   .     A
C254   C274    1.447   .     S
C254   C256    1.407   .     A
C255   C257    1.409   .     A
C255   C266    1.452   .     S
C256   C267    1.452   .     S
C256   C258    1.409   .     A
C257   C259    1.419   .     A
C257   C264    1.408   .     A
C258   C260    1.419   .     A
C258   C265    1.408   .     A
C259   C261    1.411   .     A
C259   C210    1.407   1_655 S
C260   C263    1.411   .     A
C261   C276    1.388   .     A
C261   C271    1.398   .     A
C262   C273    1.427   .     S
C262   O294    1.288   .     A
C262   O296    1.288   .     A
C263   C270    1.398   .     A
C264   H281    1.083   .     S
C264   C220    1.390   1_655 S
C265   H282    1.083   .     S
C266   N289    1.157   .     T
C267   N290    1.157   .     T
C268   N291    1.157   .     T
C268   C72     1.455   1_565 S
C269   N292    1.157   .     T
C270   H283    1.084   .     S
C271   H284    1.084   .     S
C271   C215    1.390   1_655 S
C273   C72     1.349   1_565 S
C273   C69     1.455   1_565 S
C274   O299    1.291   .     A
C274   O297    1.295   .     A
C275   O300    1.291   .     A
C275   O298    1.295   .     A
C276   H279    1.086   .     S
Cu277  O300    1.950   .     S
Cu277  O293    1.971   .     S
Cu277  O296    1.961   .     S
Cu277  N288    2.022   .     S
Cu277  O297    1.965   .     S
Cu277  Cu278   2.691   .     S
Cu278  N287    2.022   .     S
Cu278  O294    1.971   .     S
Cu278  O295    1.961   .     S
Cu278  O299    1.950   .     S
Cu278  O298    1.965   .     S
H285   N587    1.029   .     S
H286   N888    1.029   1_554 S
N287   H885    1.029   1_554 S
N287   N888    1.292   1_554 S
N288   N587    1.292   .     S
N288   H586    1.029   .     S
C301   C322    1.427   .     S
C301   O345    1.288   .     A
C301   O343    1.288   .     A
C302   C304    1.394   .     A
C302   H330    1.086   .     S
C302   C313    1.388   .     A
C303   C326    1.394   .     A
C303   C325    1.447   .     S
C303   C305    1.407   .     A
C304   C324    1.447   .     S
C304   C306    1.407   .     A
C305   C307    1.409   .     A
C305   C316    1.452   .     S
C306   C317    1.452   .     S
C306   C308    1.409   .     A
C307   C309    1.419   .     A
C307   C314    1.408   .     A
C308   C310    1.419   .     A
C308   C315    1.408   .     A
C309   C311    1.411   .     A
C309   C360    1.407   .     S
C310   C313    1.411   .     A
C310   C359    1.407   1_455 S
C311   C326    1.388   .     A
C311   C321    1.398   .     A
C312   C323    1.427   .     S
C312   O344    1.288   .     A
C312   O346    1.288   .     A
C313   C320    1.398   .     A
C314   H331    1.083   .     S
C314   C370    1.390   .     S
C315   H332    1.083   .     S
C315   C371    1.390   1_455 S
C316   N339    1.157   .     T
C317   N340    1.157   .     T
C318   N341    1.157   .     T
C318   C422    1.455   .     S
C319   N342    1.157   .     T
C319   C523    1.455   1_545 S
C320   H333    1.084   .     S
C320   C364    1.390   1_455 S
C321   H334    1.084   .     S
C321   C365    1.390   .     S
C322   C518    1.455   1_545 S
C322   C523    1.349   1_545 S
C323   C422    1.349   .     S
C323   C419    1.455   .     S
C324   O349    1.291   .     A
C324   O347    1.295   .     A
C325   O350    1.291   .     A
C325   O348    1.295   .     A
C326   H329    1.086   .     S
Cu327  O350    1.950   .     S
Cu327  O343    1.971   .     S
Cu327  O346    1.961   .     S
Cu327  N338    2.022   .     S
Cu327  O347    1.965   .     S
Cu327  Cu328   2.691   .     S
Cu328  N337    2.022   .     S
Cu328  O344    1.971   .     S
Cu328  O345    1.961   .     S
Cu328  O349    1.950   .     S
Cu328  O348    1.965   .     S
H335   N637    1.029   .     S
N338   N637    1.292   .     S
N338   H636    1.029   .     S
C351   C372    1.427   .     S
C351   O395    1.288   .     A
C351   O393    1.288   .     A
C352   C354    1.394   .     A
C352   H380    1.086   .     S
C352   C363    1.388   .     A
C353   C376    1.394   .     A
C353   C375    1.447   .     S
C353   C355    1.407   .     A
C354   C374    1.447   .     S
C354   C356    1.407   .     A
C355   C357    1.409   .     A
C355   C366    1.452   .     S
C356   C367    1.452   .     S
C356   C358    1.409   .     A
C357   C359    1.419   .     A
C357   C364    1.408   .     A
C358   C360    1.419   .     A
C358   C365    1.408   .     A
C359   C361    1.411   .     A
C359   C310    1.407   1_655 S
C360   C363    1.411   .     A
C361   C376    1.388   .     A
C361   C371    1.398   .     A
C362   C373    1.427   .     S
C362   O394    1.288   .     A
C362   O396    1.288   .     A
C363   C370    1.398   .     A
C364   H381    1.083   .     S
C364   C320    1.390   1_655 S
C365   H382    1.083   .     S
C366   N389    1.157   .     T
C367   N390    1.157   .     T
C368   N391    1.157   .     T
C368   C472    1.455   .     S
C369   N392    1.157   .     T
C369   C573    1.455   1_545 S
C370   H383    1.084   .     S
C371   H384    1.084   .     S
C371   C315    1.390   1_655 S
C372   C568    1.455   1_545 S
C372   C573    1.349   1_545 S
C373   C472    1.349   .     S
C373   C469    1.455   .     S
C374   O399    1.291   .     A
C374   O397    1.295   .     A
C375   O400    1.291   .     A
C375   O398    1.295   .     A
C376   H379    1.086   .     S
Cu377  O400    1.950   .     S
Cu377  O393    1.971   .     S
Cu377  O396    1.961   .     S
Cu377  N388    2.022   .     S
Cu377  O397    1.965   .     S
Cu377  Cu378   2.691   .     S
Cu378  N387    2.022   .     S
Cu378  O394    1.971   .     S
Cu378  O395    1.961   .     S
Cu378  O399    1.950   .     S
Cu378  O398    1.965   .     S
H385   N687    1.029   .     S
N388   N687    1.292   .     S
N388   H686    1.029   .     S
C401   C422    1.427   .     S
C401   O445    1.288   .     A
C401   O443    1.288   .     A
C402   C404    1.394   .     A
C402   H430    1.086   .     S
C402   C413    1.388   .     A
C403   C426    1.394   .     A
C403   C425    1.447   .     S
C403   C405    1.407   .     A
C404   C424    1.447   .     S
C404   C406    1.407   .     A
C405   C407    1.409   .     A
C405   C416    1.452   .     S
C406   C417    1.452   .     S
C406   C408    1.409   .     A
C407   C409    1.419   .     A
C407   C414    1.408   .     A
C408   C410    1.419   .     A
C408   C415    1.408   .     A
C409   C411    1.411   .     A
C409   C460    1.407   .     S
C410   C413    1.411   .     A
C410   C459    1.407   1_455 S
C411   C426    1.388   .     A
C411   C421    1.398   .     A
C412   C423    1.427   .     S
C412   O444    1.288   .     A
C412   O446    1.288   .     A
C413   C420    1.398   .     A
C414   H431    1.083   .     S
C414   C470    1.390   .     S
C415   H432    1.083   .     S
C415   C471    1.390   1_455 S
C416   N439    1.157   .     T
C417   N440    1.157   .     T
C418   N441    1.157   .     T
C418   C522    1.455   .     S
C419   N442    1.157   .     T
C420   H433    1.084   .     S
C420   C464    1.390   1_455 S
C421   H434    1.084   .     S
C421   C465    1.390   .     S
C423   C522    1.349   .     S
C423   C519    1.455   .     S
C424   O449    1.291   .     A
C424   O447    1.295   .     A
C425   O450    1.291   .     A
C425   O448    1.295   .     A
C426   H429    1.086   .     S
Cu427  O450    1.950   .     S
Cu427  O443    1.971   .     S
Cu427  O446    1.961   .     S
Cu427  N438    2.022   .     S
Cu427  O447    1.965   .     S
Cu427  Cu428   2.691   .     S
Cu428  N437    2.022   .     S
Cu428  O444    1.971   .     S
Cu428  O445    1.961   .     S
Cu428  O449    1.950   .     S
Cu428  O448    1.965   .     S
H435   N737    1.029   .     S
N438   N737    1.292   .     S
N438   H736    1.029   .     S
C451   C472    1.427   .     S
C451   O495    1.288   .     A
C451   O493    1.288   .     A
C452   C454    1.394   .     A
C452   H480    1.086   .     S
C452   C463    1.388   .     A
C453   C476    1.394   .     A
C453   C475    1.447   .     S
C453   C455    1.407   .     A
C454   C474    1.447   .     S
C454   C456    1.407   .     A
C455   C457    1.409   .     A
C455   C466    1.452   .     S
C456   C467    1.452   .     S
C456   C458    1.409   .     A
C457   C459    1.419   .     A
C457   C464    1.408   .     A
C458   C460    1.419   .     A
C458   C465    1.408   .     A
C459   C461    1.411   .     A
C459   C410    1.407   1_655 S
C460   C463    1.411   .     A
C461   C476    1.388   .     A
C461   C471    1.398   .     A
C462   C473    1.427   .     S
C462   O494    1.288   .     A
C462   O496    1.288   .     A
C463   C470    1.398   .     A
C464   H481    1.083   .     S
C464   C420    1.390   1_655 S
C465   H482    1.083   .     S
C466   N489    1.157   .     T
C467   N490    1.157   .     T
C468   N491    1.157   .     T
C468   C572    1.455   .     S
C469   N492    1.157   .     T
C470   H483    1.084   .     S
C471   H484    1.084   .     S
C471   C415    1.390   1_655 S
C473   C572    1.349   .     S
C473   C569    1.455   .     S
C474   O499    1.291   .     A
C474   O497    1.295   .     A
C475   O500    1.291   .     A
C475   O498    1.295   .     A
C476   H479    1.086   .     S
Cu477  O500    1.950   .     S
Cu477  O493    1.971   .     S
Cu477  O496    1.961   .     S
Cu477  N488    2.022   .     S
Cu477  O497    1.965   .     S
Cu477  Cu478   2.691   .     S
Cu478  N487    2.022   .     S
Cu478  O494    1.971   .     S
Cu478  O495    1.961   .     S
Cu478  O499    1.950   .     S
Cu478  O498    1.965   .     S
H485   N787    1.029   .     S
N488   N787    1.292   .     S
N488   H786    1.029   .     S
C501   C522    1.427   .     S
C501   O545    1.288   .     A
C501   O543    1.288   .     A
C502   C504    1.394   .     A
C502   H530    1.086   .     S
C502   C513    1.388   .     A
C503   C526    1.394   .     A
C503   C525    1.447   .     S
C503   C505    1.407   .     A
C504   C524    1.447   .     S
C504   C506    1.407   .     A
C505   C507    1.409   .     A
C505   C516    1.452   .     S
C506   C517    1.452   .     S
C506   C508    1.409   .     A
C507   C509    1.419   .     A
C507   C514    1.408   .     A
C508   C510    1.419   .     A
C508   C515    1.408   .     A
C509   C511    1.411   .     A
C509   C560    1.407   .     S
C510   C513    1.411   .     A
C510   C559    1.407   1_455 S
C511   C526    1.388   .     A
C511   C521    1.398   .     A
C512   C523    1.427   .     S
C512   O544    1.288   .     A
C512   O546    1.288   .     A
C513   C520    1.398   .     A
C514   H531    1.083   .     S
C514   C570    1.390   .     S
C515   H532    1.083   .     S
C515   C571    1.390   1_455 S
C516   N539    1.157   .     T
C517   N540    1.157   .     T
C518   N541    1.157   .     T
C518   C322    1.455   1_565 S
C519   N542    1.157   .     T
C520   H533    1.084   .     S
C520   C564    1.390   1_455 S
C521   H534    1.084   .     S
C521   C565    1.390   .     S
C523   C322    1.349   1_565 S
C523   C319    1.455   1_565 S
C524   O549    1.291   .     A
C524   O547    1.295   .     A
C525   O550    1.291   .     A
C525   O548    1.295   .     A
C526   H529    1.086   .     S
Cu527  O550    1.950   .     S
Cu527  O543    1.971   .     S
Cu527  O546    1.961   .     S
Cu527  N538    2.022   .     S
Cu527  O547    1.965   .     S
Cu527  Cu528   2.691   .     S
Cu528  N537    2.022   .     S
Cu528  O544    1.971   .     S
Cu528  O545    1.961   .     S
Cu528  O549    1.950   .     S
Cu528  O548    1.965   .     S
H535   N837    1.029   .     S
N538   N837    1.292   .     S
N538   H836    1.029   .     S
C551   C572    1.427   .     S
C551   O595    1.288   .     A
C551   O593    1.288   .     A
C552   C554    1.394   .     A
C552   H580    1.086   .     S
C552   C563    1.388   .     A
C553   C576    1.394   .     A
C553   C575    1.447   .     S
C553   C555    1.407   .     A
C554   C574    1.447   .     S
C554   C556    1.407   .     A
C555   C557    1.409   .     A
C555   C566    1.452   .     S
C556   C567    1.452   .     S
C556   C558    1.409   .     A
C557   C559    1.419   .     A
C557   C564    1.408   .     A
C558   C560    1.419   .     A
C558   C565    1.408   .     A
C559   C561    1.411   .     A
C559   C510    1.407   1_655 S
C560   C563    1.411   .     A
C561   C576    1.388   .     A
C561   C571    1.398   .     A
C562   C573    1.427   .     S
C562   O594    1.288   .     A
C562   O596    1.288   .     A
C563   C570    1.398   .     A
C564   H581    1.083   .     S
C564   C520    1.390   1_655 S
C565   H582    1.083   .     S
C566   N589    1.157   .     T
C567   N590    1.157   .     T
C568   N591    1.157   .     T
C568   C372    1.455   1_565 S
C569   N592    1.157   .     T
C570   H583    1.084   .     S
C571   H584    1.084   .     S
C571   C515    1.390   1_655 S
C573   C372    1.349   1_565 S
C573   C369    1.455   1_565 S
C574   O599    1.291   .     A
C574   O597    1.295   .     A
C575   O600    1.291   .     A
C575   O598    1.295   .     A
C576   H579    1.086   .     S
Cu577  O600    1.950   .     S
Cu577  O593    1.971   .     S
Cu577  O596    1.961   .     S
Cu577  N588    2.022   .     S
Cu577  O597    1.965   .     S
Cu577  Cu578   2.691   .     S
Cu578  N587    2.022   .     S
Cu578  O594    1.971   .     S
Cu578  O595    1.961   .     S
Cu578  O599    1.950   .     S
Cu578  O598    1.965   .     S
H585   N887    1.029   .     S
N588   N887    1.292   .     S
N588   H886    1.029   .     S
C601   C622    1.427   .     S
C601   O645    1.288   .     A
C601   O643    1.288   .     A
C602   C604    1.394   .     A
C602   H630    1.086   .     S
C602   C613    1.388   .     A
C603   C626    1.394   .     A
C603   C625    1.447   .     S
C603   C605    1.407   .     A
C604   C624    1.447   .     S
C604   C606    1.407   .     A
C605   C607    1.409   .     A
C605   C616    1.452   .     S
C606   C617    1.452   .     S
C606   C608    1.409   .     A
C607   C609    1.419   .     A
C607   C614    1.408   .     A
C608   C610    1.419   .     A
C608   C615    1.408   .     A
C609   C611    1.411   .     A
C609   C660    1.407   .     S
C610   C613    1.411   .     A
C610   C659    1.407   1_455 S
C611   C626    1.388   .     A
C611   C621    1.398   .     A
C612   C623    1.427   .     S
C612   O644    1.288   .     A
C612   O646    1.288   .     A
C613   C620    1.398   .     A
C614   H631    1.083   .     S
C614   C670    1.390   .     S
C615   H632    1.083   .     S
C615   C671    1.390   1_455 S
C616   N639    1.157   .     T
C617   N640    1.157   .     T
C618   N641    1.157   .     T
C618   C722    1.455   .     S
C619   N642    1.157   .     T
C619   C823    1.455   1_545 S
C620   H633    1.084   .     S
C620   C664    1.390   1_455 S
C621   H634    1.084   .     S
C621   C665    1.390   .     S
C622   C818    1.455   1_545 S
C622   C823    1.349   1_545 S
C623   C722    1.349   .     S
C623   C719    1.455   .     S
C624   O649    1.291   .     A
C624   O647    1.295   .     A
C625   O650    1.291   .     A
C625   O648    1.295   .     A
C626   H629    1.086   .     S
Cu627  O650    1.950   .     S
Cu627  O643    1.971   .     S
Cu627  O646    1.961   .     S
Cu627  N638    2.022   .     S
Cu627  O647    1.965   .     S
Cu627  Cu628   2.691   .     S
Cu628  N637    2.022   .     S
Cu628  O644    1.971   .     S
Cu628  O645    1.961   .     S
Cu628  O649    1.950   .     S
Cu628  O648    1.965   .     S
H635   N37     1.029   1_556 S
N638   N37     1.292   1_556 S
N638   H36     1.029   1_556 S
C651   C672    1.427   .     S
C651   O695    1.288   .     A
C651   O693    1.288   .     A
C652   C654    1.394   .     A
C652   H680    1.086   .     S
C652   C663    1.388   .     A
C653   C676    1.394   .     A
C653   C675    1.447   .     S
C653   C655    1.407   .     A
C654   C674    1.447   .     S
C654   C656    1.407   .     A
C655   C657    1.409   .     A
C655   C666    1.452   .     S
C656   C667    1.452   .     S
C656   C658    1.409   .     A
C657   C659    1.419   .     A
C657   C664    1.408   .     A
C658   C660    1.419   .     A
C658   C665    1.408   .     A
C659   C661    1.411   .     A
C659   C610    1.407   1_655 S
C660   C663    1.411   .     A
C661   C676    1.388   .     A
C661   C671    1.398   .     A
C662   C673    1.427   .     S
C662   O694    1.288   .     A
C662   O696    1.288   .     A
C663   C670    1.398   .     A
C664   H681    1.083   .     S
C664   C620    1.390   1_655 S
C665   H682    1.083   .     S
C666   N689    1.157   .     T
C667   N690    1.157   .     T
C668   N691    1.157   .     T
C668   C772    1.455   .     S
C669   N692    1.157   .     T
C669   C873    1.455   1_545 S
C670   H683    1.084   .     S
C671   H684    1.084   .     S
C671   C615    1.390   1_655 S
C672   C868    1.455   1_545 S
C672   C873    1.349   1_545 S
C673   C772    1.349   .     S
C673   C769    1.455   .     S
C674   O699    1.291   .     A
C674   O697    1.295   .     A
C675   O700    1.291   .     A
C675   O698    1.295   .     A
C676   H679    1.086   .     S
Cu677  O700    1.950   .     S
Cu677  O693    1.971   .     S
Cu677  O696    1.961   .     S
Cu677  N688    2.022   .     S
Cu677  O697    1.965   .     S
Cu677  Cu678   2.691   .     S
Cu678  N687    2.022   .     S
Cu678  O694    1.971   .     S
Cu678  O695    1.961   .     S
Cu678  O699    1.950   .     S
Cu678  O698    1.965   .     S
H685   N87     1.029   1_556 S
N688   N87     1.292   1_556 S
N688   H86     1.029   1_556 S
C701   C722    1.427   .     S
C701   O745    1.288   .     A
C701   O743    1.288   .     A
C702   C704    1.394   .     A
C702   H730    1.086   .     S
C702   C713    1.388   .     A
C703   C726    1.394   .     A
C703   C725    1.447   .     S
C703   C705    1.407   .     A
C704   C724    1.447   .     S
C704   C706    1.407   .     A
C705   C707    1.409   .     A
C705   C716    1.452   .     S
C706   C717    1.452   .     S
C706   C708    1.409   .     A
C707   C709    1.419   .     A
C707   C714    1.408   .     A
C708   C710    1.419   .     A
C708   C715    1.408   .     A
C709   C711    1.411   .     A
C709   C760    1.407   .     S
C710   C713    1.411   .     A
C710   C759    1.407   1_455 S
C711   C726    1.388   .     A
C711   C721    1.398   .     A
C712   C723    1.427   .     S
C712   O744    1.288   .     A
C712   O746    1.288   .     A
C713   C720    1.398   .     A
C714   H731    1.083   .     S
C714   C770    1.390   .     S
C715   H732    1.083   .     S
C715   C771    1.390   1_455 S
C716   N739    1.157   .     T
C717   N740    1.157   .     T
C718   N741    1.157   .     T
C718   C822    1.455   .     S
C719   N742    1.157   .     T
C720   H733    1.084   .     S
C720   C764    1.390   1_455 S
C721   H734    1.084   .     S
C721   C765    1.390   .     S
C723   C822    1.349   .     S
C723   C819    1.455   .     S
C724   O749    1.291   .     A
C724   O747    1.295   .     A
C725   O750    1.291   .     A
C725   O748    1.295   .     A
C726   H729    1.086   .     S
Cu727  O750    1.950   .     S
Cu727  O743    1.971   .     S
Cu727  O746    1.961   .     S
Cu727  N738    2.022   .     S
Cu727  O747    1.965   .     S
Cu727  Cu728   2.691   .     S
Cu728  N737    2.022   .     S
Cu728  O744    1.971   .     S
Cu728  O745    1.961   .     S
Cu728  O749    1.950   .     S
Cu728  O748    1.965   .     S
H735   N137    1.029   1_556 S
N738   N137    1.292   1_556 S
N738   H136    1.029   1_556 S
C751   C772    1.427   .     S
C751   O795    1.288   .     A
C751   O793    1.288   .     A
C752   C754    1.394   .     A
C752   H780    1.086   .     S
C752   C763    1.388   .     A
C753   C776    1.394   .     A
C753   C775    1.447   .     S
C753   C755    1.407   .     A
C754   C774    1.447   .     S
C754   C756    1.407   .     A
C755   C757    1.409   .     A
C755   C766    1.452   .     S
C756   C767    1.452   .     S
C756   C758    1.409   .     A
C757   C759    1.419   .     A
C757   C764    1.408   .     A
C758   C760    1.419   .     A
C758   C765    1.408   .     A
C759   C761    1.411   .     A
C759   C710    1.407   1_655 S
C760   C763    1.411   .     A
C761   C776    1.388   .     A
C761   C771    1.398   .     A
C762   C773    1.427   .     S
C762   O794    1.288   .     A
C762   O796    1.288   .     A
C763   C770    1.398   .     A
C764   H781    1.083   .     S
C764   C720    1.390   1_655 S
C765   H782    1.083   .     S
C766   N789    1.157   .     T
C767   N790    1.157   .     T
C768   N791    1.157   .     T
C768   C872    1.455   .     S
C769   N792    1.157   .     T
C770   H783    1.084   .     S
C771   H784    1.084   .     S
C771   C715    1.390   1_655 S
C773   C872    1.349   .     S
C773   C869    1.455   .     S
C774   O799    1.291   .     A
C774   O797    1.295   .     A
C775   O800    1.291   .     A
C775   O798    1.295   .     A
C776   H779    1.086   .     S
Cu777  O800    1.950   .     S
Cu777  O793    1.971   .     S
Cu777  O796    1.961   .     S
Cu777  N788    2.022   .     S
Cu777  O797    1.965   .     S
Cu777  Cu778   2.691   .     S
Cu778  N787    2.022   .     S
Cu778  O794    1.971   .     S
Cu778  O795    1.961   .     S
Cu778  O799    1.950   .     S
Cu778  O798    1.965   .     S
H785   N187    1.029   1_556 S
N788   N187    1.292   1_556 S
N788   H186    1.029   1_556 S
C801   C822    1.427   .     S
C801   O845    1.288   .     A
C801   O843    1.288   .     A
C802   C804    1.394   .     A
C802   H830    1.086   .     S
C802   C813    1.388   .     A
C803   C826    1.394   .     A
C803   C825    1.447   .     S
C803   C805    1.407   .     A
C804   C824    1.447   .     S
C804   C806    1.407   .     A
C805   C807    1.409   .     A
C805   C816    1.452   .     S
C806   C817    1.452   .     S
C806   C808    1.409   .     A
C807   C809    1.419   .     A
C807   C814    1.408   .     A
C808   C810    1.419   .     A
C808   C815    1.408   .     A
C809   C811    1.411   .     A
C809   C860    1.407   .     S
C810   C813    1.411   .     A
C810   C859    1.407   1_455 S
C811   C826    1.388   .     A
C811   C821    1.398   .     A
C812   C823    1.427   .     S
C812   O844    1.288   .     A
C812   O846    1.288   .     A
C813   C820    1.398   .     A
C814   H831    1.083   .     S
C814   C870    1.390   .     S
C815   H832    1.083   .     S
C815   C871    1.390   1_455 S
C816   N839    1.157   .     T
C817   N840    1.157   .     T
C818   N841    1.157   .     T
C818   C622    1.455   1_565 S
C819   N842    1.157   .     T
C820   H833    1.084   .     S
C820   C864    1.390   1_455 S
C821   H834    1.084   .     S
C821   C865    1.390   .     S
C823   C622    1.349   1_565 S
C823   C619    1.455   1_565 S
C824   O849    1.291   .     A
C824   O847    1.295   .     A
C825   O850    1.291   .     A
C825   O848    1.295   .     A
C826   H829    1.086   .     S
Cu827  O850    1.950   .     S
Cu827  O843    1.971   .     S
Cu827  O846    1.961   .     S
Cu827  N838    2.022   .     S
Cu827  O847    1.965   .     S
Cu827  Cu828   2.691   .     S
Cu828  N837    2.022   .     S
Cu828  O844    1.971   .     S
Cu828  O845    1.961   .     S
Cu828  O849    1.950   .     S
Cu828  O848    1.965   .     S
H835   N237    1.029   1_556 S
N838   N237    1.292   1_556 S
N838   H236    1.029   1_556 S
C851   C872    1.427   .     S
C851   O895    1.288   .     A
C851   O893    1.288   .     A
C852   C854    1.394   .     A
C852   H880    1.086   .     S
C852   C863    1.388   .     A
C853   C876    1.394   .     A
C853   C875    1.447   .     S
C853   C855    1.407   .     A
C854   C874    1.447   .     S
C854   C856    1.407   .     A
C855   C857    1.409   .     A
C855   C866    1.452   .     S
C856   C867    1.452   .     S
C856   C858    1.409   .     A
C857   C859    1.419   .     A
C857   C864    1.408   .     A
C858   C860    1.419   .     A
C858   C865    1.408   .     A
C859   C861    1.411   .     A
C859   C810    1.407   1_655 S
C860   C863    1.411   .     A
C861   C876    1.388   .     A
C861   C871    1.398   .     A
C862   C873    1.427   .     S
C862   O894    1.288   .     A
C862   O896    1.288   .     A
C863   C870    1.398   .     A
C864   H881    1.083   .     S
C864   C820    1.390   1_655 S
C865   H882    1.083   .     S
C866   N889    1.157   .     T
C867   N890    1.157   .     T
C868   N891    1.157   .     T
C868   C672    1.455   1_565 S
C869   N892    1.157   .     T
C870   H883    1.084   .     S
C871   H884    1.084   .     S
C871   C815    1.390   1_655 S
C873   C672    1.349   1_565 S
C873   C669    1.455   1_565 S
C874   O899    1.291   .     A
C874   O897    1.295   .     A
C875   O900    1.291   .     A
C875   O898    1.295   .     A
C876   H879    1.086   .     S
Cu877  O900    1.950   .     S
Cu877  O893    1.971   .     S
Cu877  O896    1.961   .     S
Cu877  N888    2.022   .     S
Cu877  O897    1.965   .     S
Cu877  Cu878   2.691   .     S
Cu878  N887    2.022   .     S
Cu878  O894    1.971   .     S
Cu878  O895    1.961   .     S
Cu878  O899    1.950   .     S
Cu878  O898    1.965   .     S
H885   N287    1.029   1_556 S
N888   N287    1.292   1_556 S
N888   H286    1.029   1_556 S
