data_str_m2_o1_o5_pcu_sym.43
_audit_creation_date              2020-01-03
_audit_creation_method            'Materials Studio'
_symmetry_space_group_name_H-M    'P1'
_symmetry_Int_Tables_number       1
_symmetry_cell_setting            triclinic
loop_
_symmetry_equiv_pos_as_xyz
  x,y,z
_cell_length_a                    32.6793
_cell_length_b                    29.0548
_cell_length_c                    27.2345
_cell_angle_alpha                 90.0002
_cell_angle_beta                  95.1783
_cell_angle_gamma                 89.9976
loop_
_atom_site_label
_atom_site_type_symbol
_atom_site_fract_x
_atom_site_fract_y
_atom_site_fract_z
_atom_site_U_iso_or_equiv
_atom_site_adp_type
_atom_site_occupancy
C1     C     0.08751   0.16667   0.16674   0.00000  Uiso   1.00
C2     C     0.02118   0.20851   0.16692   0.00000  Uiso   1.00
C3     C     0.29050   0.16667   0.16635   0.00000  Uiso   1.00
C4     C     0.04283   0.16667   0.16698   0.00000  Uiso   1.00
C5     C     0.14032   0.02471   0.13384   0.00000  Uiso   1.00
C6     C     0.19301   0.30862   0.19949   0.00000  Uiso   1.00
C7     C     0.19301   0.02471   0.19949   0.00000  Uiso   1.00
C8     C     0.14033   0.30862   0.13384   0.00000  Uiso   1.00
C9     C     0.11043   0.04861   0.09612   0.00000  Uiso   1.00
C10    C     0.22290   0.28472   0.23722   0.00000  Uiso   1.00
C11    C     0.22288   0.04861   0.23724   0.00000  Uiso   1.00
C12    C     0.24582   0.16667   0.16659   0.00000  Uiso   1.00
C13    C     0.11045   0.28472   0.09609   0.00000  Uiso   1.00
C14    C     0.16649   0.16667   0.07368   0.00000  Uiso   1.00
C15    C     0.16684   0.16667   0.25965   0.00000  Uiso   1.00
C16    C     0.16660   0.16667   0.02188   0.00000  Uiso   1.00
C17    C     0.16673   0.16667   0.31146   0.00000  Uiso   1.00
C18    C     0.02119   0.12483   0.16703   0.00000  Uiso   1.00
C19    C     0.31214   0.20851   0.16630   0.00000  Uiso   1.00
C20    C     0.31215   0.12482   0.16642   0.00000  Uiso   1.00
Cu21   Cu    0.16667   0.21355   0.16667   0.00000  Uiso   1.00
Cu22   Cu    0.16667   0.11978   0.16667   0.00000  Uiso   1.00
F23    F     0.04069   0.08353   0.16796   0.00000  Uiso   1.00
F24    F     0.29264   0.24980   0.16537   0.00000  Uiso   1.00
F25    F     0.29267   0.08352   0.16561   0.00000  Uiso   1.00
F26    F     0.04067   0.24981   0.16772   0.00000  Uiso   1.00
H27    H     0.10937   0.08582   0.09759   0.00000  Uiso   1.00
H28    H     0.10936   0.24752   0.09760   0.00000  Uiso   1.00
H29    H     0.07851   0.29544   0.10085   0.00000  Uiso   1.00
H30    H     0.11800   0.29349   0.05829   0.00000  Uiso   1.00
H31    H     0.11793   0.03982   0.05830   0.00000  Uiso   1.00
H32    H     0.07849   0.03793   0.10094   0.00000  Uiso   1.00
H33    H     0.22397   0.24752   0.23574   0.00000  Uiso   1.00
H34    H     0.25484   0.29540   0.23239   0.00000  Uiso   1.00
H35    H     0.21540   0.29351   0.27503   0.00000  Uiso   1.00
H36    H     0.22397   0.08581   0.23574   0.00000  Uiso   1.00
H37    H     0.21533   0.03985   0.27505   0.00000  Uiso   1.00
H38    H     0.25482   0.03790   0.23248   0.00000  Uiso   1.00
N39    N     0.16667   0.28402   0.16667   0.00000  Uiso   1.00
N40    N     0.16667   0.04931   0.16667   0.00000  Uiso   1.00
O41    O     0.10655   0.20625   0.16666   0.00000  Uiso   1.00
O42    O     0.22679   0.12709   0.16667   0.00000  Uiso   1.00
O43    O     0.22679   0.20625   0.16667   0.00000  Uiso   1.00
O44    O     0.10655   0.12709   0.16666   0.00000  Uiso   1.00
O45    O     0.16667   0.20625   0.09613   0.00000  Uiso   1.00
O46    O     0.16667   0.12708   0.23720   0.00000  Uiso   1.00
O47    O     0.16667   0.20625   0.23720   0.00000  Uiso   1.00
O48    O     0.16667   0.12708   0.09613   0.00000  Uiso   1.00
C49    C     0.42085   0.16667   0.16674   0.00000  Uiso   1.00
C50    C     0.35451   0.20851   0.16692   0.00000  Uiso   1.00
C51    C     0.62384   0.16667   0.16635   0.00000  Uiso   1.00
C52    C     0.37616   0.16667   0.16698   0.00000  Uiso   1.00
C53    C     0.47366   0.02471   0.13384   0.00000  Uiso   1.00
C54    C     0.52634   0.30862   0.19949   0.00000  Uiso   1.00
C55    C     0.52634   0.02471   0.19949   0.00000  Uiso   1.00
C56    C     0.47366   0.30862   0.13384   0.00000  Uiso   1.00
C57    C     0.44376   0.04861   0.09612   0.00000  Uiso   1.00
C58    C     0.55624   0.28472   0.23722   0.00000  Uiso   1.00
C59    C     0.55621   0.04861   0.23724   0.00000  Uiso   1.00
C60    C     0.57915   0.16667   0.16659   0.00000  Uiso   1.00
C61    C     0.44379   0.28472   0.09609   0.00000  Uiso   1.00
C62    C     0.49983   0.16667   0.07368   0.00000  Uiso   1.00
C63    C     0.50017   0.16667   0.25965   0.00000  Uiso   1.00
C64    C     0.49994   0.16667   0.02188   0.00000  Uiso   1.00
C65    C     0.50006   0.16667   0.31146   0.00000  Uiso   1.00
C66    C     0.35452   0.12483   0.16703   0.00000  Uiso   1.00
C67    C     0.64548   0.20851   0.16630   0.00000  Uiso   1.00
C68    C     0.64549   0.12482   0.16642   0.00000  Uiso   1.00
Cu69   Cu    0.50000   0.21355   0.16667   0.00000  Uiso   1.00
Cu70   Cu    0.50000   0.11978   0.16667   0.00000  Uiso   1.00
F71    F     0.37402   0.08353   0.16796   0.00000  Uiso   1.00
F72    F     0.62598   0.24980   0.16537   0.00000  Uiso   1.00
F73    F     0.62600   0.08352   0.16561   0.00000  Uiso   1.00
F74    F     0.37400   0.24981   0.16772   0.00000  Uiso   1.00
H75    H     0.44270   0.08582   0.09759   0.00000  Uiso   1.00
H76    H     0.44270   0.24752   0.09760   0.00000  Uiso   1.00
H77    H     0.41184   0.29544   0.10085   0.00000  Uiso   1.00
H78    H     0.45133   0.29349   0.05829   0.00000  Uiso   1.00
H79    H     0.45126   0.03982   0.05830   0.00000  Uiso   1.00
H80    H     0.41182   0.03793   0.10094   0.00000  Uiso   1.00
H81    H     0.55730   0.24752   0.23574   0.00000  Uiso   1.00
H82    H     0.58818   0.29540   0.23239   0.00000  Uiso   1.00
H83    H     0.54874   0.29351   0.27503   0.00000  Uiso   1.00
H84    H     0.55731   0.08581   0.23574   0.00000  Uiso   1.00
H85    H     0.54867   0.03985   0.27505   0.00000  Uiso   1.00
H86    H     0.58816   0.03790   0.23248   0.00000  Uiso   1.00
N87    N     0.50000   0.28402   0.16667   0.00000  Uiso   1.00
N88    N     0.50000   0.04931   0.16667   0.00000  Uiso   1.00
O89    O     0.43988   0.20625   0.16666   0.00000  Uiso   1.00
O90    O     0.56012   0.12709   0.16667   0.00000  Uiso   1.00
O91    O     0.56012   0.20625   0.16667   0.00000  Uiso   1.00
O92    O     0.43988   0.12709   0.16666   0.00000  Uiso   1.00
O93    O     0.50000   0.20625   0.09613   0.00000  Uiso   1.00
O94    O     0.50000   0.12708   0.23720   0.00000  Uiso   1.00
O95    O     0.50000   0.20625   0.23720   0.00000  Uiso   1.00
O96    O     0.50000   0.12708   0.09613   0.00000  Uiso   1.00
C97    C     0.75418   0.16667   0.16674   0.00000  Uiso   1.00
C98    C     0.68785   0.20851   0.16692   0.00000  Uiso   1.00
C99    C     0.95717   0.16667   0.16635   0.00000  Uiso   1.00
C100   C     0.70950   0.16667   0.16698   0.00000  Uiso   1.00
C101   C     0.80699   0.02471   0.13384   0.00000  Uiso   1.00
C102   C     0.85968   0.30862   0.19949   0.00000  Uiso   1.00
C103   C     0.85967   0.02471   0.19949   0.00000  Uiso   1.00
C104   C     0.80699   0.30862   0.13384   0.00000  Uiso   1.00
C105   C     0.77710   0.04861   0.09612   0.00000  Uiso   1.00
C106   C     0.88957   0.28472   0.23722   0.00000  Uiso   1.00
C107   C     0.88955   0.04861   0.23724   0.00000  Uiso   1.00
C108   C     0.91249   0.16667   0.16659   0.00000  Uiso   1.00
C109   C     0.77712   0.28472   0.09609   0.00000  Uiso   1.00
C110   C     0.83316   0.16667   0.07368   0.00000  Uiso   1.00
C111   C     0.83351   0.16667   0.25965   0.00000  Uiso   1.00
C112   C     0.83327   0.16667   0.02188   0.00000  Uiso   1.00
C113   C     0.83340   0.16667   0.31146   0.00000  Uiso   1.00
C114   C     0.68786   0.12483   0.16703   0.00000  Uiso   1.00
C115   C     0.97881   0.20851   0.16630   0.00000  Uiso   1.00
C116   C     0.97882   0.12482   0.16642   0.00000  Uiso   1.00
Cu117  Cu    0.83333   0.21355   0.16667   0.00000  Uiso   1.00
Cu118  Cu    0.83333   0.11978   0.16667   0.00000  Uiso   1.00
F119   F     0.70736   0.08353   0.16796   0.00000  Uiso   1.00
F120   F     0.95931   0.24980   0.16537   0.00000  Uiso   1.00
F121   F     0.95933   0.08352   0.16561   0.00000  Uiso   1.00
F122   F     0.70733   0.24981   0.16772   0.00000  Uiso   1.00
H123   H     0.77603   0.08582   0.09759   0.00000  Uiso   1.00
H124   H     0.77603   0.24752   0.09760   0.00000  Uiso   1.00
H125   H     0.74518   0.29544   0.10085   0.00000  Uiso   1.00
H126   H     0.78467   0.29349   0.05829   0.00000  Uiso   1.00
H127   H     0.78460   0.03982   0.05830   0.00000  Uiso   1.00
H128   H     0.74516   0.03793   0.10094   0.00000  Uiso   1.00
H129   H     0.89063   0.24752   0.23574   0.00000  Uiso   1.00
H130   H     0.92151   0.29540   0.23239   0.00000  Uiso   1.00
H131   H     0.88207   0.29351   0.27503   0.00000  Uiso   1.00
H132   H     0.89064   0.08581   0.23574   0.00000  Uiso   1.00
H133   H     0.88200   0.03985   0.27505   0.00000  Uiso   1.00
H134   H     0.92149   0.03790   0.23248   0.00000  Uiso   1.00
N135   N     0.83333   0.28402   0.16667   0.00000  Uiso   1.00
N136   N     0.83333   0.04931   0.16667   0.00000  Uiso   1.00
O137   O     0.77321   0.20625   0.16666   0.00000  Uiso   1.00
O138   O     0.89345   0.12709   0.16667   0.00000  Uiso   1.00
O139   O     0.89345   0.20625   0.16667   0.00000  Uiso   1.00
O140   O     0.77321   0.12709   0.16666   0.00000  Uiso   1.00
O141   O     0.83333   0.20625   0.09613   0.00000  Uiso   1.00
O142   O     0.83333   0.12708   0.23720   0.00000  Uiso   1.00
O143   O     0.83333   0.20625   0.23720   0.00000  Uiso   1.00
O144   O     0.83333   0.12708   0.09613   0.00000  Uiso   1.00
C145   C     0.08751   0.50000   0.16674   0.00000  Uiso   1.00
C146   C     0.02118   0.54184   0.16692   0.00000  Uiso   1.00
C147   C     0.29050   0.50000   0.16635   0.00000  Uiso   1.00
C148   C     0.04283   0.50000   0.16698   0.00000  Uiso   1.00
C149   C     0.14032   0.35804   0.13384   0.00000  Uiso   1.00
C150   C     0.19301   0.64196   0.19949   0.00000  Uiso   1.00
C151   C     0.19301   0.35804   0.19949   0.00000  Uiso   1.00
C152   C     0.14033   0.64196   0.13384   0.00000  Uiso   1.00
C153   C     0.11043   0.38195   0.09612   0.00000  Uiso   1.00
C154   C     0.22290   0.61805   0.23722   0.00000  Uiso   1.00
C155   C     0.22288   0.38194   0.23724   0.00000  Uiso   1.00
C156   C     0.24582   0.50000   0.16659   0.00000  Uiso   1.00
C157   C     0.11045   0.61806   0.09609   0.00000  Uiso   1.00
C158   C     0.16649   0.50000   0.07368   0.00000  Uiso   1.00
C159   C     0.16684   0.50000   0.25965   0.00000  Uiso   1.00
C160   C     0.16660   0.50000   0.02188   0.00000  Uiso   1.00
C161   C     0.16673   0.50000   0.31146   0.00000  Uiso   1.00
C162   C     0.02119   0.45816   0.16703   0.00000  Uiso   1.00
C163   C     0.31214   0.54184   0.16630   0.00000  Uiso   1.00
C164   C     0.31215   0.45816   0.16642   0.00000  Uiso   1.00
Cu165  Cu    0.16667   0.54689   0.16667   0.00000  Uiso   1.00
Cu166  Cu    0.16667   0.45311   0.16667   0.00000  Uiso   1.00
F167   F     0.04069   0.41686   0.16796   0.00000  Uiso   1.00
F168   F     0.29264   0.58314   0.16537   0.00000  Uiso   1.00
F169   F     0.29267   0.41686   0.16561   0.00000  Uiso   1.00
F170   F     0.04067   0.58314   0.16772   0.00000  Uiso   1.00
H171   H     0.10937   0.41915   0.09759   0.00000  Uiso   1.00
H172   H     0.10936   0.58086   0.09760   0.00000  Uiso   1.00
H173   H     0.07851   0.62877   0.10085   0.00000  Uiso   1.00
H174   H     0.11800   0.62682   0.05829   0.00000  Uiso   1.00
H175   H     0.11793   0.37315   0.05830   0.00000  Uiso   1.00
H176   H     0.07849   0.37127   0.10094   0.00000  Uiso   1.00
H177   H     0.22397   0.58085   0.23574   0.00000  Uiso   1.00
H178   H     0.25484   0.62873   0.23239   0.00000  Uiso   1.00
H179   H     0.21540   0.62685   0.27503   0.00000  Uiso   1.00
H180   H     0.22397   0.41914   0.23574   0.00000  Uiso   1.00
H181   H     0.21533   0.37318   0.27505   0.00000  Uiso   1.00
H182   H     0.25482   0.37123   0.23248   0.00000  Uiso   1.00
N183   N     0.16667   0.61736   0.16667   0.00000  Uiso   1.00
N184   N     0.16667   0.38264   0.16667   0.00000  Uiso   1.00
O185   O     0.10655   0.53958   0.16666   0.00000  Uiso   1.00
O186   O     0.22679   0.46042   0.16667   0.00000  Uiso   1.00
O187   O     0.22679   0.53958   0.16667   0.00000  Uiso   1.00
O188   O     0.10655   0.46042   0.16666   0.00000  Uiso   1.00
O189   O     0.16667   0.53959   0.09613   0.00000  Uiso   1.00
O190   O     0.16667   0.46041   0.23720   0.00000  Uiso   1.00
O191   O     0.16667   0.53959   0.23720   0.00000  Uiso   1.00
O192   O     0.16667   0.46041   0.09613   0.00000  Uiso   1.00
C193   C     0.42085   0.50000   0.16674   0.00000  Uiso   1.00
C194   C     0.35451   0.54184   0.16692   0.00000  Uiso   1.00
C195   C     0.62384   0.50000   0.16635   0.00000  Uiso   1.00
C196   C     0.37616   0.50000   0.16698   0.00000  Uiso   1.00
C197   C     0.47366   0.35804   0.13384   0.00000  Uiso   1.00
C198   C     0.52634   0.64196   0.19949   0.00000  Uiso   1.00
C199   C     0.52634   0.35804   0.19949   0.00000  Uiso   1.00
C200   C     0.47366   0.64196   0.13384   0.00000  Uiso   1.00
C201   C     0.44376   0.38195   0.09612   0.00000  Uiso   1.00
C202   C     0.55624   0.61805   0.23722   0.00000  Uiso   1.00
C203   C     0.55621   0.38194   0.23724   0.00000  Uiso   1.00
C204   C     0.57915   0.50000   0.16659   0.00000  Uiso   1.00
C205   C     0.44379   0.61806   0.09609   0.00000  Uiso   1.00
C206   C     0.49983   0.50000   0.07368   0.00000  Uiso   1.00
C207   C     0.50017   0.50000   0.25965   0.00000  Uiso   1.00
C208   C     0.49994   0.50000   0.02188   0.00000  Uiso   1.00
C209   C     0.50006   0.50000   0.31146   0.00000  Uiso   1.00
C210   C     0.35452   0.45816   0.16703   0.00000  Uiso   1.00
C211   C     0.64548   0.54184   0.16630   0.00000  Uiso   1.00
C212   C     0.64549   0.45816   0.16642   0.00000  Uiso   1.00
Cu213  Cu    0.50000   0.54689   0.16667   0.00000  Uiso   1.00
Cu214  Cu    0.50000   0.45311   0.16667   0.00000  Uiso   1.00
F215   F     0.37402   0.41686   0.16796   0.00000  Uiso   1.00
F216   F     0.62598   0.58314   0.16537   0.00000  Uiso   1.00
F217   F     0.62600   0.41686   0.16561   0.00000  Uiso   1.00
F218   F     0.37400   0.58314   0.16772   0.00000  Uiso   1.00
H219   H     0.44270   0.41915   0.09759   0.00000  Uiso   1.00
H220   H     0.44270   0.58086   0.09760   0.00000  Uiso   1.00
H221   H     0.41184   0.62877   0.10085   0.00000  Uiso   1.00
H222   H     0.45133   0.62682   0.05829   0.00000  Uiso   1.00
H223   H     0.45126   0.37315   0.05830   0.00000  Uiso   1.00
H224   H     0.41182   0.37127   0.10094   0.00000  Uiso   1.00
H225   H     0.55730   0.58085   0.23574   0.00000  Uiso   1.00
H226   H     0.58818   0.62873   0.23239   0.00000  Uiso   1.00
H227   H     0.54874   0.62685   0.27503   0.00000  Uiso   1.00
H228   H     0.55731   0.41914   0.23574   0.00000  Uiso   1.00
H229   H     0.54867   0.37318   0.27505   0.00000  Uiso   1.00
H230   H     0.58816   0.37123   0.23248   0.00000  Uiso   1.00
N231   N     0.50000   0.61736   0.16667   0.00000  Uiso   1.00
N232   N     0.50000   0.38264   0.16667   0.00000  Uiso   1.00
O233   O     0.43988   0.53958   0.16666   0.00000  Uiso   1.00
O234   O     0.56012   0.46042   0.16667   0.00000  Uiso   1.00
O235   O     0.56012   0.53958   0.16667   0.00000  Uiso   1.00
O236   O     0.43988   0.46042   0.16666   0.00000  Uiso   1.00
O237   O     0.50000   0.53959   0.09613   0.00000  Uiso   1.00
O238   O     0.50000   0.46041   0.23720   0.00000  Uiso   1.00
O239   O     0.50000   0.53959   0.23720   0.00000  Uiso   1.00
O240   O     0.50000   0.46041   0.09613   0.00000  Uiso   1.00
C241   C     0.75418   0.50000   0.16674   0.00000  Uiso   1.00
C242   C     0.68785   0.54184   0.16692   0.00000  Uiso   1.00
C243   C     0.95717   0.50000   0.16635   0.00000  Uiso   1.00
C244   C     0.70950   0.50000   0.16698   0.00000  Uiso   1.00
C245   C     0.80699   0.35804   0.13384   0.00000  Uiso   1.00
C246   C     0.85968   0.64196   0.19949   0.00000  Uiso   1.00
C247   C     0.85967   0.35804   0.19949   0.00000  Uiso   1.00
C248   C     0.80699   0.64196   0.13384   0.00000  Uiso   1.00
C249   C     0.77710   0.38195   0.09612   0.00000  Uiso   1.00
C250   C     0.88957   0.61805   0.23722   0.00000  Uiso   1.00
C251   C     0.88955   0.38194   0.23724   0.00000  Uiso   1.00
C252   C     0.91249   0.50000   0.16659   0.00000  Uiso   1.00
C253   C     0.77712   0.61806   0.09609   0.00000  Uiso   1.00
C254   C     0.83316   0.50000   0.07368   0.00000  Uiso   1.00
C255   C     0.83351   0.50000   0.25965   0.00000  Uiso   1.00
C256   C     0.83327   0.50000   0.02188   0.00000  Uiso   1.00
C257   C     0.83340   0.50000   0.31146   0.00000  Uiso   1.00
C258   C     0.68786   0.45816   0.16703   0.00000  Uiso   1.00
C259   C     0.97881   0.54184   0.16630   0.00000  Uiso   1.00
C260   C     0.97882   0.45816   0.16642   0.00000  Uiso   1.00
Cu261  Cu    0.83333   0.54689   0.16667   0.00000  Uiso   1.00
Cu262  Cu    0.83333   0.45311   0.16667   0.00000  Uiso   1.00
F263   F     0.70736   0.41686   0.16796   0.00000  Uiso   1.00
F264   F     0.95931   0.58314   0.16537   0.00000  Uiso   1.00
F265   F     0.95933   0.41686   0.16561   0.00000  Uiso   1.00
F266   F     0.70733   0.58314   0.16772   0.00000  Uiso   1.00
H267   H     0.77603   0.41915   0.09759   0.00000  Uiso   1.00
H268   H     0.77603   0.58086   0.09760   0.00000  Uiso   1.00
H269   H     0.74518   0.62877   0.10085   0.00000  Uiso   1.00
H270   H     0.78467   0.62682   0.05829   0.00000  Uiso   1.00
H271   H     0.78460   0.37315   0.05830   0.00000  Uiso   1.00
H272   H     0.74516   0.37127   0.10094   0.00000  Uiso   1.00
H273   H     0.89063   0.58085   0.23574   0.00000  Uiso   1.00
H274   H     0.92151   0.62873   0.23239   0.00000  Uiso   1.00
H275   H     0.88207   0.62685   0.27503   0.00000  Uiso   1.00
H276   H     0.89064   0.41914   0.23574   0.00000  Uiso   1.00
H277   H     0.88200   0.37318   0.27505   0.00000  Uiso   1.00
H278   H     0.92149   0.37123   0.23248   0.00000  Uiso   1.00
N279   N     0.83333   0.61736   0.16667   0.00000  Uiso   1.00
N280   N     0.83333   0.38264   0.16667   0.00000  Uiso   1.00
O281   O     0.77321   0.53958   0.16666   0.00000  Uiso   1.00
O282   O     0.89345   0.46042   0.16667   0.00000  Uiso   1.00
O283   O     0.89345   0.53958   0.16667   0.00000  Uiso   1.00
O284   O     0.77321   0.46042   0.16666   0.00000  Uiso   1.00
O285   O     0.83333   0.53959   0.09613   0.00000  Uiso   1.00
O286   O     0.83333   0.46041   0.23720   0.00000  Uiso   1.00
O287   O     0.83333   0.53959   0.23720   0.00000  Uiso   1.00
O288   O     0.83333   0.46041   0.09613   0.00000  Uiso   1.00
C289   C     0.08751   0.83333   0.16674   0.00000  Uiso   1.00
C290   C     0.02118   0.87518   0.16692   0.00000  Uiso   1.00
C291   C     0.29050   0.83333   0.16635   0.00000  Uiso   1.00
C292   C     0.04283   0.83333   0.16698   0.00000  Uiso   1.00
C293   C     0.14032   0.69138   0.13384   0.00000  Uiso   1.00
C294   C     0.19301   0.97529   0.19949   0.00000  Uiso   1.00
C295   C     0.19301   0.69138   0.19949   0.00000  Uiso   1.00
C296   C     0.14033   0.97529   0.13384   0.00000  Uiso   1.00
C297   C     0.11043   0.71528   0.09612   0.00000  Uiso   1.00
C298   C     0.22290   0.95139   0.23722   0.00000  Uiso   1.00
C299   C     0.22288   0.71528   0.23724   0.00000  Uiso   1.00
C300   C     0.24582   0.83333   0.16659   0.00000  Uiso   1.00
C301   C     0.11045   0.95139   0.09609   0.00000  Uiso   1.00
C302   C     0.16649   0.83333   0.07368   0.00000  Uiso   1.00
C303   C     0.16684   0.83333   0.25965   0.00000  Uiso   1.00
C304   C     0.16660   0.83333   0.02188   0.00000  Uiso   1.00
C305   C     0.16673   0.83333   0.31146   0.00000  Uiso   1.00
C306   C     0.02119   0.79149   0.16703   0.00000  Uiso   1.00
C307   C     0.31214   0.87517   0.16630   0.00000  Uiso   1.00
C308   C     0.31215   0.79149   0.16642   0.00000  Uiso   1.00
Cu309  Cu    0.16667   0.88022   0.16667   0.00000  Uiso   1.00
Cu310  Cu    0.16667   0.78645   0.16667   0.00000  Uiso   1.00
F311   F     0.04069   0.75020   0.16796   0.00000  Uiso   1.00
F312   F     0.29264   0.91647   0.16537   0.00000  Uiso   1.00
F313   F     0.29267   0.75019   0.16561   0.00000  Uiso   1.00
F314   F     0.04067   0.91648   0.16772   0.00000  Uiso   1.00
H315   H     0.10937   0.75248   0.09759   0.00000  Uiso   1.00
H316   H     0.10936   0.91419   0.09760   0.00000  Uiso   1.00
H317   H     0.07851   0.96210   0.10085   0.00000  Uiso   1.00
H318   H     0.11800   0.96015   0.05829   0.00000  Uiso   1.00
H319   H     0.11793   0.70649   0.05830   0.00000  Uiso   1.00
H320   H     0.07849   0.70460   0.10094   0.00000  Uiso   1.00
H321   H     0.22397   0.91418   0.23574   0.00000  Uiso   1.00
H322   H     0.25484   0.96207   0.23239   0.00000  Uiso   1.00
H323   H     0.21540   0.96018   0.27503   0.00000  Uiso   1.00
H324   H     0.22397   0.75248   0.23574   0.00000  Uiso   1.00
H325   H     0.21533   0.70651   0.27505   0.00000  Uiso   1.00
H326   H     0.25482   0.70456   0.23248   0.00000  Uiso   1.00
N327   N     0.16667   0.95069   0.16667   0.00000  Uiso   1.00
N328   N     0.16667   0.71598   0.16667   0.00000  Uiso   1.00
O329   O     0.10655   0.87291   0.16666   0.00000  Uiso   1.00
O330   O     0.22679   0.79375   0.16667   0.00000  Uiso   1.00
O331   O     0.22679   0.87291   0.16667   0.00000  Uiso   1.00
O332   O     0.10655   0.79375   0.16666   0.00000  Uiso   1.00
O333   O     0.16667   0.87292   0.09613   0.00000  Uiso   1.00
O334   O     0.16667   0.79375   0.23720   0.00000  Uiso   1.00
O335   O     0.16667   0.87292   0.23720   0.00000  Uiso   1.00
O336   O     0.16667   0.79375   0.09613   0.00000  Uiso   1.00
C337   C     0.42085   0.83333   0.16674   0.00000  Uiso   1.00
C338   C     0.35451   0.87518   0.16692   0.00000  Uiso   1.00
C339   C     0.62384   0.83333   0.16635   0.00000  Uiso   1.00
C340   C     0.37616   0.83333   0.16698   0.00000  Uiso   1.00
C341   C     0.47366   0.69138   0.13384   0.00000  Uiso   1.00
C342   C     0.52634   0.97529   0.19949   0.00000  Uiso   1.00
C343   C     0.52634   0.69138   0.19949   0.00000  Uiso   1.00
C344   C     0.47366   0.97529   0.13384   0.00000  Uiso   1.00
C345   C     0.44376   0.71528   0.09612   0.00000  Uiso   1.00
C346   C     0.55624   0.95139   0.23722   0.00000  Uiso   1.00
C347   C     0.55621   0.71528   0.23724   0.00000  Uiso   1.00
C348   C     0.57915   0.83333   0.16659   0.00000  Uiso   1.00
C349   C     0.44379   0.95139   0.09609   0.00000  Uiso   1.00
C350   C     0.49983   0.83333   0.07368   0.00000  Uiso   1.00
C351   C     0.50017   0.83333   0.25965   0.00000  Uiso   1.00
C352   C     0.49994   0.83333   0.02188   0.00000  Uiso   1.00
C353   C     0.50006   0.83333   0.31146   0.00000  Uiso   1.00
C354   C     0.35452   0.79149   0.16703   0.00000  Uiso   1.00
C355   C     0.64548   0.87517   0.16630   0.00000  Uiso   1.00
C356   C     0.64549   0.79149   0.16642   0.00000  Uiso   1.00
Cu357  Cu    0.50000   0.88022   0.16667   0.00000  Uiso   1.00
Cu358  Cu    0.50000   0.78645   0.16667   0.00000  Uiso   1.00
F359   F     0.37402   0.75020   0.16796   0.00000  Uiso   1.00
F360   F     0.62598   0.91647   0.16537   0.00000  Uiso   1.00
F361   F     0.62600   0.75019   0.16561   0.00000  Uiso   1.00
F362   F     0.37400   0.91648   0.16772   0.00000  Uiso   1.00
H363   H     0.44270   0.75248   0.09759   0.00000  Uiso   1.00
H364   H     0.44270   0.91419   0.09760   0.00000  Uiso   1.00
H365   H     0.41184   0.96210   0.10085   0.00000  Uiso   1.00
H366   H     0.45133   0.96015   0.05829   0.00000  Uiso   1.00
H367   H     0.45126   0.70649   0.05830   0.00000  Uiso   1.00
H368   H     0.41182   0.70460   0.10094   0.00000  Uiso   1.00
H369   H     0.55730   0.91418   0.23574   0.00000  Uiso   1.00
H370   H     0.58818   0.96207   0.23239   0.00000  Uiso   1.00
H371   H     0.54874   0.96018   0.27503   0.00000  Uiso   1.00
H372   H     0.55731   0.75248   0.23574   0.00000  Uiso   1.00
H373   H     0.54867   0.70651   0.27505   0.00000  Uiso   1.00
H374   H     0.58816   0.70456   0.23248   0.00000  Uiso   1.00
N375   N     0.50000   0.95069   0.16667   0.00000  Uiso   1.00
N376   N     0.50000   0.71598   0.16667   0.00000  Uiso   1.00
O377   O     0.43988   0.87291   0.16666   0.00000  Uiso   1.00
O378   O     0.56012   0.79375   0.16667   0.00000  Uiso   1.00
O379   O     0.56012   0.87291   0.16667   0.00000  Uiso   1.00
O380   O     0.43988   0.79375   0.16666   0.00000  Uiso   1.00
O381   O     0.50000   0.87292   0.09613   0.00000  Uiso   1.00
O382   O     0.50000   0.79375   0.23720   0.00000  Uiso   1.00
O383   O     0.50000   0.87292   0.23720   0.00000  Uiso   1.00
O384   O     0.50000   0.79375   0.09613   0.00000  Uiso   1.00
C385   C     0.75418   0.83333   0.16674   0.00000  Uiso   1.00
C386   C     0.68785   0.87518   0.16692   0.00000  Uiso   1.00
C387   C     0.95717   0.83333   0.16635   0.00000  Uiso   1.00
C388   C     0.70950   0.83333   0.16698   0.00000  Uiso   1.00
C389   C     0.80699   0.69138   0.13384   0.00000  Uiso   1.00
C390   C     0.85968   0.97529   0.19949   0.00000  Uiso   1.00
C391   C     0.85967   0.69138   0.19949   0.00000  Uiso   1.00
C392   C     0.80699   0.97529   0.13384   0.00000  Uiso   1.00
C393   C     0.77710   0.71528   0.09612   0.00000  Uiso   1.00
C394   C     0.88957   0.95139   0.23722   0.00000  Uiso   1.00
C395   C     0.88955   0.71528   0.23724   0.00000  Uiso   1.00
C396   C     0.91249   0.83333   0.16659   0.00000  Uiso   1.00
C397   C     0.77712   0.95139   0.09609   0.00000  Uiso   1.00
C398   C     0.83316   0.83333   0.07368   0.00000  Uiso   1.00
C399   C     0.83351   0.83333   0.25965   0.00000  Uiso   1.00
C400   C     0.83327   0.83333   0.02188   0.00000  Uiso   1.00
C401   C     0.83340   0.83333   0.31146   0.00000  Uiso   1.00
C402   C     0.68786   0.79149   0.16703   0.00000  Uiso   1.00
C403   C     0.97881   0.87517   0.16630   0.00000  Uiso   1.00
C404   C     0.97882   0.79149   0.16642   0.00000  Uiso   1.00
Cu405  Cu    0.83333   0.88022   0.16667   0.00000  Uiso   1.00
Cu406  Cu    0.83333   0.78645   0.16667   0.00000  Uiso   1.00
F407   F     0.70736   0.75020   0.16796   0.00000  Uiso   1.00
F408   F     0.95931   0.91647   0.16537   0.00000  Uiso   1.00
F409   F     0.95933   0.75019   0.16561   0.00000  Uiso   1.00
F410   F     0.70733   0.91648   0.16772   0.00000  Uiso   1.00
H411   H     0.77603   0.75248   0.09759   0.00000  Uiso   1.00
H412   H     0.77603   0.91419   0.09760   0.00000  Uiso   1.00
H413   H     0.74518   0.96210   0.10085   0.00000  Uiso   1.00
H414   H     0.78467   0.96015   0.05829   0.00000  Uiso   1.00
H415   H     0.78460   0.70649   0.05830   0.00000  Uiso   1.00
H416   H     0.74516   0.70460   0.10094   0.00000  Uiso   1.00
H417   H     0.89063   0.91418   0.23574   0.00000  Uiso   1.00
H418   H     0.92151   0.96207   0.23239   0.00000  Uiso   1.00
H419   H     0.88207   0.96018   0.27503   0.00000  Uiso   1.00
H420   H     0.89064   0.75248   0.23574   0.00000  Uiso   1.00
H421   H     0.88200   0.70651   0.27505   0.00000  Uiso   1.00
H422   H     0.92149   0.70456   0.23248   0.00000  Uiso   1.00
N423   N     0.83333   0.95069   0.16667   0.00000  Uiso   1.00
N424   N     0.83333   0.71598   0.16667   0.00000  Uiso   1.00
O425   O     0.77321   0.87291   0.16666   0.00000  Uiso   1.00
O426   O     0.89345   0.79375   0.16667   0.00000  Uiso   1.00
O427   O     0.89345   0.87291   0.16667   0.00000  Uiso   1.00
O428   O     0.77321   0.79375   0.16666   0.00000  Uiso   1.00
O429   O     0.83333   0.87292   0.09613   0.00000  Uiso   1.00
O430   O     0.83333   0.79375   0.23720   0.00000  Uiso   1.00
O431   O     0.83333   0.87292   0.23720   0.00000  Uiso   1.00
O432   O     0.83333   0.79375   0.09613   0.00000  Uiso   1.00
C433   C     0.08751   0.16667   0.50007   0.00000  Uiso   1.00
C434   C     0.02118   0.20851   0.50025   0.00000  Uiso   1.00
C435   C     0.29050   0.16667   0.49968   0.00000  Uiso   1.00
C436   C     0.04283   0.16667   0.50032   0.00000  Uiso   1.00
C437   C     0.14032   0.02471   0.46718   0.00000  Uiso   1.00
C438   C     0.19301   0.30862   0.53282   0.00000  Uiso   1.00
C439   C     0.19301   0.02471   0.53283   0.00000  Uiso   1.00
C440   C     0.14033   0.30862   0.46717   0.00000  Uiso   1.00
C441   C     0.11043   0.04861   0.42945   0.00000  Uiso   1.00
C442   C     0.22290   0.28472   0.57055   0.00000  Uiso   1.00
C443   C     0.22288   0.04861   0.57057   0.00000  Uiso   1.00
C444   C     0.24582   0.16667   0.49993   0.00000  Uiso   1.00
C445   C     0.11045   0.28472   0.42943   0.00000  Uiso   1.00
C446   C     0.16649   0.16667   0.40702   0.00000  Uiso   1.00
C447   C     0.16684   0.16667   0.59298   0.00000  Uiso   1.00
C448   C     0.16660   0.16667   0.35521   0.00000  Uiso   1.00
C449   C     0.16673   0.16667   0.64479   0.00000  Uiso   1.00
C450   C     0.02119   0.12483   0.50037   0.00000  Uiso   1.00
C451   C     0.31214   0.20851   0.49963   0.00000  Uiso   1.00
C452   C     0.31215   0.12482   0.49975   0.00000  Uiso   1.00
Cu453  Cu    0.16667   0.21355   0.50000   0.00000  Uiso   1.00
Cu454  Cu    0.16667   0.11978   0.50000   0.00000  Uiso   1.00
F455   F     0.04069   0.08353   0.50130   0.00000  Uiso   1.00
F456   F     0.29264   0.24980   0.49870   0.00000  Uiso   1.00
F457   F     0.29267   0.08352   0.49894   0.00000  Uiso   1.00
F458   F     0.04067   0.24981   0.50106   0.00000  Uiso   1.00
H459   H     0.10937   0.08582   0.43092   0.00000  Uiso   1.00
H460   H     0.10936   0.24752   0.43093   0.00000  Uiso   1.00
H461   H     0.07851   0.29544   0.43419   0.00000  Uiso   1.00
H462   H     0.11800   0.29349   0.39162   0.00000  Uiso   1.00
H463   H     0.11793   0.03982   0.39164   0.00000  Uiso   1.00
H464   H     0.07849   0.03793   0.43427   0.00000  Uiso   1.00
H465   H     0.22397   0.24752   0.56908   0.00000  Uiso   1.00
H466   H     0.25484   0.29540   0.56573   0.00000  Uiso   1.00
H467   H     0.21540   0.29351   0.60836   0.00000  Uiso   1.00
H468   H     0.22397   0.08581   0.56907   0.00000  Uiso   1.00
H469   H     0.21533   0.03985   0.60838   0.00000  Uiso   1.00
H470   H     0.25482   0.03790   0.56581   0.00000  Uiso   1.00
N471   N     0.16667   0.28402   0.50000   0.00000  Uiso   1.00
N472   N     0.16667   0.04931   0.50000   0.00000  Uiso   1.00
O473   O     0.10655   0.20625   0.50000   0.00000  Uiso   1.00
O474   O     0.22679   0.12709   0.50000   0.00000  Uiso   1.00
O475   O     0.22679   0.20625   0.50000   0.00000  Uiso   1.00
O476   O     0.10655   0.12709   0.50000   0.00000  Uiso   1.00
O477   O     0.16667   0.20625   0.42946   0.00000  Uiso   1.00
O478   O     0.16667   0.12708   0.57054   0.00000  Uiso   1.00
O479   O     0.16667   0.20625   0.57054   0.00000  Uiso   1.00
O480   O     0.16667   0.12708   0.42946   0.00000  Uiso   1.00
C481   C     0.42085   0.16667   0.50007   0.00000  Uiso   1.00
C482   C     0.35451   0.20851   0.50025   0.00000  Uiso   1.00
C483   C     0.62384   0.16667   0.49968   0.00000  Uiso   1.00
C484   C     0.37616   0.16667   0.50032   0.00000  Uiso   1.00
C485   C     0.47366   0.02471   0.46718   0.00000  Uiso   1.00
C486   C     0.52634   0.30862   0.53282   0.00000  Uiso   1.00
C487   C     0.52634   0.02471   0.53283   0.00000  Uiso   1.00
C488   C     0.47366   0.30862   0.46717   0.00000  Uiso   1.00
C489   C     0.44376   0.04861   0.42945   0.00000  Uiso   1.00
C490   C     0.55624   0.28472   0.57055   0.00000  Uiso   1.00
C491   C     0.55621   0.04861   0.57057   0.00000  Uiso   1.00
C492   C     0.57915   0.16667   0.49993   0.00000  Uiso   1.00
C493   C     0.44379   0.28472   0.42943   0.00000  Uiso   1.00
C494   C     0.49983   0.16667   0.40702   0.00000  Uiso   1.00
C495   C     0.50017   0.16667   0.59298   0.00000  Uiso   1.00
C496   C     0.49994   0.16667   0.35521   0.00000  Uiso   1.00
C497   C     0.50006   0.16667   0.64479   0.00000  Uiso   1.00
C498   C     0.35452   0.12483   0.50037   0.00000  Uiso   1.00
C499   C     0.64548   0.20851   0.49963   0.00000  Uiso   1.00
C500   C     0.64549   0.12482   0.49975   0.00000  Uiso   1.00
Cu501  Cu    0.50000   0.21355   0.50000   0.00000  Uiso   1.00
Cu502  Cu    0.50000   0.11978   0.50000   0.00000  Uiso   1.00
F503   F     0.37402   0.08353   0.50130   0.00000  Uiso   1.00
F504   F     0.62598   0.24980   0.49870   0.00000  Uiso   1.00
F505   F     0.62600   0.08352   0.49894   0.00000  Uiso   1.00
F506   F     0.37400   0.24981   0.50106   0.00000  Uiso   1.00
H507   H     0.44270   0.08582   0.43092   0.00000  Uiso   1.00
H508   H     0.44270   0.24752   0.43093   0.00000  Uiso   1.00
H509   H     0.41184   0.29544   0.43419   0.00000  Uiso   1.00
H510   H     0.45133   0.29349   0.39162   0.00000  Uiso   1.00
H511   H     0.45126   0.03982   0.39164   0.00000  Uiso   1.00
H512   H     0.41182   0.03793   0.43427   0.00000  Uiso   1.00
H513   H     0.55730   0.24752   0.56908   0.00000  Uiso   1.00
H514   H     0.58818   0.29540   0.56573   0.00000  Uiso   1.00
H515   H     0.54874   0.29351   0.60836   0.00000  Uiso   1.00
H516   H     0.55731   0.08581   0.56907   0.00000  Uiso   1.00
H517   H     0.54867   0.03985   0.60838   0.00000  Uiso   1.00
H518   H     0.58816   0.03790   0.56581   0.00000  Uiso   1.00
N519   N     0.50000   0.28402   0.50000   0.00000  Uiso   1.00
N520   N     0.50000   0.04931   0.50000   0.00000  Uiso   1.00
O521   O     0.43988   0.20625   0.50000   0.00000  Uiso   1.00
O522   O     0.56012   0.12709   0.50000   0.00000  Uiso   1.00
O523   O     0.56012   0.20625   0.50000   0.00000  Uiso   1.00
O524   O     0.43988   0.12709   0.50000   0.00000  Uiso   1.00
O525   O     0.50000   0.20625   0.42946   0.00000  Uiso   1.00
O526   O     0.50000   0.12708   0.57054   0.00000  Uiso   1.00
O527   O     0.50000   0.20625   0.57054   0.00000  Uiso   1.00
O528   O     0.50000   0.12708   0.42946   0.00000  Uiso   1.00
C529   C     0.75418   0.16667   0.50007   0.00000  Uiso   1.00
C530   C     0.68785   0.20851   0.50025   0.00000  Uiso   1.00
C531   C     0.95717   0.16667   0.49968   0.00000  Uiso   1.00
C532   C     0.70950   0.16667   0.50032   0.00000  Uiso   1.00
C533   C     0.80699   0.02471   0.46718   0.00000  Uiso   1.00
C534   C     0.85968   0.30862   0.53282   0.00000  Uiso   1.00
C535   C     0.85967   0.02471   0.53283   0.00000  Uiso   1.00
C536   C     0.80699   0.30862   0.46717   0.00000  Uiso   1.00
C537   C     0.77710   0.04861   0.42945   0.00000  Uiso   1.00
C538   C     0.88957   0.28472   0.57055   0.00000  Uiso   1.00
C539   C     0.88955   0.04861   0.57057   0.00000  Uiso   1.00
C540   C     0.91249   0.16667   0.49993   0.00000  Uiso   1.00
C541   C     0.77712   0.28472   0.42943   0.00000  Uiso   1.00
C542   C     0.83316   0.16667   0.40702   0.00000  Uiso   1.00
C543   C     0.83351   0.16667   0.59298   0.00000  Uiso   1.00
C544   C     0.83327   0.16667   0.35521   0.00000  Uiso   1.00
C545   C     0.83340   0.16667   0.64479   0.00000  Uiso   1.00
C546   C     0.68786   0.12483   0.50037   0.00000  Uiso   1.00
C547   C     0.97881   0.20851   0.49963   0.00000  Uiso   1.00
C548   C     0.97882   0.12482   0.49975   0.00000  Uiso   1.00
Cu549  Cu    0.83333   0.21355   0.50000   0.00000  Uiso   1.00
Cu550  Cu    0.83333   0.11978   0.50000   0.00000  Uiso   1.00
F551   F     0.70736   0.08353   0.50130   0.00000  Uiso   1.00
F552   F     0.95931   0.24980   0.49870   0.00000  Uiso   1.00
F553   F     0.95933   0.08352   0.49894   0.00000  Uiso   1.00
F554   F     0.70733   0.24981   0.50106   0.00000  Uiso   1.00
H555   H     0.77603   0.08582   0.43092   0.00000  Uiso   1.00
H556   H     0.77603   0.24752   0.43093   0.00000  Uiso   1.00
H557   H     0.74518   0.29544   0.43419   0.00000  Uiso   1.00
H558   H     0.78467   0.29349   0.39162   0.00000  Uiso   1.00
H559   H     0.78460   0.03982   0.39164   0.00000  Uiso   1.00
H560   H     0.74516   0.03793   0.43427   0.00000  Uiso   1.00
H561   H     0.89063   0.24752   0.56908   0.00000  Uiso   1.00
H562   H     0.92151   0.29540   0.56573   0.00000  Uiso   1.00
H563   H     0.88207   0.29351   0.60836   0.00000  Uiso   1.00
H564   H     0.89064   0.08581   0.56907   0.00000  Uiso   1.00
H565   H     0.88200   0.03985   0.60838   0.00000  Uiso   1.00
H566   H     0.92149   0.03790   0.56581   0.00000  Uiso   1.00
N567   N     0.83333   0.28402   0.50000   0.00000  Uiso   1.00
N568   N     0.83333   0.04931   0.50000   0.00000  Uiso   1.00
O569   O     0.77321   0.20625   0.50000   0.00000  Uiso   1.00
O570   O     0.89345   0.12709   0.50000   0.00000  Uiso   1.00
O571   O     0.89345   0.20625   0.50000   0.00000  Uiso   1.00
O572   O     0.77321   0.12709   0.50000   0.00000  Uiso   1.00
O573   O     0.83333   0.20625   0.42946   0.00000  Uiso   1.00
O574   O     0.83333   0.12708   0.57054   0.00000  Uiso   1.00
O575   O     0.83333   0.20625   0.57054   0.00000  Uiso   1.00
O576   O     0.83333   0.12708   0.42946   0.00000  Uiso   1.00
C577   C     0.08751   0.50000   0.50007   0.00000  Uiso   1.00
C578   C     0.02118   0.54184   0.50025   0.00000  Uiso   1.00
C579   C     0.29050   0.50000   0.49968   0.00000  Uiso   1.00
C580   C     0.04283   0.50000   0.50032   0.00000  Uiso   1.00
C581   C     0.14032   0.35804   0.46718   0.00000  Uiso   1.00
C582   C     0.19301   0.64196   0.53282   0.00000  Uiso   1.00
C583   C     0.19301   0.35804   0.53283   0.00000  Uiso   1.00
C584   C     0.14033   0.64196   0.46717   0.00000  Uiso   1.00
C585   C     0.11043   0.38195   0.42945   0.00000  Uiso   1.00
C586   C     0.22290   0.61805   0.57055   0.00000  Uiso   1.00
C587   C     0.22288   0.38194   0.57057   0.00000  Uiso   1.00
C588   C     0.24582   0.50000   0.49993   0.00000  Uiso   1.00
C589   C     0.11045   0.61806   0.42943   0.00000  Uiso   1.00
C590   C     0.16649   0.50000   0.40702   0.00000  Uiso   1.00
C591   C     0.16684   0.50000   0.59298   0.00000  Uiso   1.00
C592   C     0.16660   0.50000   0.35521   0.00000  Uiso   1.00
C593   C     0.16673   0.50000   0.64479   0.00000  Uiso   1.00
C594   C     0.02119   0.45816   0.50037   0.00000  Uiso   1.00
C595   C     0.31214   0.54184   0.49963   0.00000  Uiso   1.00
C596   C     0.31215   0.45816   0.49975   0.00000  Uiso   1.00
Cu597  Cu    0.16667   0.54689   0.50000   0.00000  Uiso   1.00
Cu598  Cu    0.16667   0.45311   0.50000   0.00000  Uiso   1.00
F599   F     0.04069   0.41686   0.50130   0.00000  Uiso   1.00
F600   F     0.29264   0.58314   0.49870   0.00000  Uiso   1.00
F601   F     0.29267   0.41686   0.49894   0.00000  Uiso   1.00
F602   F     0.04067   0.58314   0.50106   0.00000  Uiso   1.00
H603   H     0.10937   0.41915   0.43092   0.00000  Uiso   1.00
H604   H     0.10936   0.58086   0.43093   0.00000  Uiso   1.00
H605   H     0.07851   0.62877   0.43419   0.00000  Uiso   1.00
H606   H     0.11800   0.62682   0.39162   0.00000  Uiso   1.00
H607   H     0.11793   0.37315   0.39164   0.00000  Uiso   1.00
H608   H     0.07849   0.37127   0.43427   0.00000  Uiso   1.00
H609   H     0.22397   0.58085   0.56908   0.00000  Uiso   1.00
H610   H     0.25484   0.62873   0.56573   0.00000  Uiso   1.00
H611   H     0.21540   0.62685   0.60836   0.00000  Uiso   1.00
H612   H     0.22397   0.41914   0.56907   0.00000  Uiso   1.00
H613   H     0.21533   0.37318   0.60838   0.00000  Uiso   1.00
H614   H     0.25482   0.37123   0.56581   0.00000  Uiso   1.00
N615   N     0.16667   0.61736   0.50000   0.00000  Uiso   1.00
N616   N     0.16667   0.38264   0.50000   0.00000  Uiso   1.00
O617   O     0.10655   0.53958   0.50000   0.00000  Uiso   1.00
O618   O     0.22679   0.46042   0.50000   0.00000  Uiso   1.00
O619   O     0.22679   0.53958   0.50000   0.00000  Uiso   1.00
O620   O     0.10655   0.46042   0.50000   0.00000  Uiso   1.00
O621   O     0.16667   0.53959   0.42946   0.00000  Uiso   1.00
O622   O     0.16667   0.46041   0.57054   0.00000  Uiso   1.00
O623   O     0.16667   0.53959   0.57054   0.00000  Uiso   1.00
O624   O     0.16667   0.46041   0.42946   0.00000  Uiso   1.00
C625   C     0.42085   0.50000   0.50007   0.00000  Uiso   1.00
C626   C     0.35451   0.54184   0.50025   0.00000  Uiso   1.00
C627   C     0.62384   0.50000   0.49968   0.00000  Uiso   1.00
C628   C     0.37616   0.50000   0.50032   0.00000  Uiso   1.00
C629   C     0.47366   0.35804   0.46718   0.00000  Uiso   1.00
C630   C     0.52634   0.64196   0.53282   0.00000  Uiso   1.00
C631   C     0.52634   0.35804   0.53283   0.00000  Uiso   1.00
C632   C     0.47366   0.64196   0.46717   0.00000  Uiso   1.00
C633   C     0.44376   0.38195   0.42945   0.00000  Uiso   1.00
C634   C     0.55624   0.61805   0.57055   0.00000  Uiso   1.00
C635   C     0.55621   0.38194   0.57057   0.00000  Uiso   1.00
C636   C     0.57915   0.50000   0.49993   0.00000  Uiso   1.00
C637   C     0.44379   0.61806   0.42943   0.00000  Uiso   1.00
C638   C     0.49983   0.50000   0.40702   0.00000  Uiso   1.00
C639   C     0.50017   0.50000   0.59298   0.00000  Uiso   1.00
C640   C     0.49994   0.50000   0.35521   0.00000  Uiso   1.00
C641   C     0.50006   0.50000   0.64479   0.00000  Uiso   1.00
C642   C     0.35452   0.45816   0.50037   0.00000  Uiso   1.00
C643   C     0.64548   0.54184   0.49963   0.00000  Uiso   1.00
C644   C     0.64549   0.45816   0.49975   0.00000  Uiso   1.00
Cu645  Cu    0.50000   0.54689   0.50000   0.00000  Uiso   1.00
Cu646  Cu    0.50000   0.45311   0.50000   0.00000  Uiso   1.00
F647   F     0.37402   0.41686   0.50130   0.00000  Uiso   1.00
F648   F     0.62598   0.58314   0.49870   0.00000  Uiso   1.00
F649   F     0.62600   0.41686   0.49894   0.00000  Uiso   1.00
F650   F     0.37400   0.58314   0.50106   0.00000  Uiso   1.00
H651   H     0.44270   0.41915   0.43092   0.00000  Uiso   1.00
H652   H     0.44270   0.58086   0.43093   0.00000  Uiso   1.00
H653   H     0.41184   0.62877   0.43419   0.00000  Uiso   1.00
H654   H     0.45133   0.62682   0.39162   0.00000  Uiso   1.00
H655   H     0.45126   0.37315   0.39164   0.00000  Uiso   1.00
H656   H     0.41182   0.37127   0.43427   0.00000  Uiso   1.00
H657   H     0.55730   0.58085   0.56908   0.00000  Uiso   1.00
H658   H     0.58818   0.62873   0.56573   0.00000  Uiso   1.00
H659   H     0.54874   0.62685   0.60836   0.00000  Uiso   1.00
H660   H     0.55731   0.41914   0.56907   0.00000  Uiso   1.00
H661   H     0.54867   0.37318   0.60838   0.00000  Uiso   1.00
H662   H     0.58816   0.37123   0.56581   0.00000  Uiso   1.00
N663   N     0.50000   0.61736   0.50000   0.00000  Uiso   1.00
N664   N     0.50000   0.38264   0.50000   0.00000  Uiso   1.00
O665   O     0.43988   0.53958   0.50000   0.00000  Uiso   1.00
O666   O     0.56012   0.46042   0.50000   0.00000  Uiso   1.00
O667   O     0.56012   0.53958   0.50000   0.00000  Uiso   1.00
O668   O     0.43988   0.46042   0.50000   0.00000  Uiso   1.00
O669   O     0.50000   0.53959   0.42946   0.00000  Uiso   1.00
O670   O     0.50000   0.46041   0.57054   0.00000  Uiso   1.00
O671   O     0.50000   0.53959   0.57054   0.00000  Uiso   1.00
O672   O     0.50000   0.46041   0.42946   0.00000  Uiso   1.00
C673   C     0.75418   0.50000   0.50007   0.00000  Uiso   1.00
C674   C     0.68785   0.54184   0.50025   0.00000  Uiso   1.00
C675   C     0.95717   0.50000   0.49968   0.00000  Uiso   1.00
C676   C     0.70950   0.50000   0.50032   0.00000  Uiso   1.00
C677   C     0.80699   0.35804   0.46718   0.00000  Uiso   1.00
C678   C     0.85968   0.64196   0.53282   0.00000  Uiso   1.00
C679   C     0.85967   0.35804   0.53283   0.00000  Uiso   1.00
C680   C     0.80699   0.64196   0.46717   0.00000  Uiso   1.00
C681   C     0.77710   0.38195   0.42945   0.00000  Uiso   1.00
C682   C     0.88957   0.61805   0.57055   0.00000  Uiso   1.00
C683   C     0.88955   0.38194   0.57057   0.00000  Uiso   1.00
C684   C     0.91249   0.50000   0.49993   0.00000  Uiso   1.00
C685   C     0.77712   0.61806   0.42943   0.00000  Uiso   1.00
C686   C     0.83316   0.50000   0.40702   0.00000  Uiso   1.00
C687   C     0.83351   0.50000   0.59298   0.00000  Uiso   1.00
C688   C     0.83327   0.50000   0.35521   0.00000  Uiso   1.00
C689   C     0.83340   0.50000   0.64479   0.00000  Uiso   1.00
C690   C     0.68786   0.45816   0.50037   0.00000  Uiso   1.00
C691   C     0.97881   0.54184   0.49963   0.00000  Uiso   1.00
C692   C     0.97882   0.45816   0.49975   0.00000  Uiso   1.00
Cu693  Cu    0.83333   0.54689   0.50000   0.00000  Uiso   1.00
Cu694  Cu    0.83333   0.45311   0.50000   0.00000  Uiso   1.00
F695   F     0.70736   0.41686   0.50130   0.00000  Uiso   1.00
F696   F     0.95931   0.58314   0.49870   0.00000  Uiso   1.00
F697   F     0.95933   0.41686   0.49894   0.00000  Uiso   1.00
F698   F     0.70733   0.58314   0.50106   0.00000  Uiso   1.00
H699   H     0.77603   0.41915   0.43092   0.00000  Uiso   1.00
H700   H     0.77603   0.58086   0.43093   0.00000  Uiso   1.00
H701   H     0.74518   0.62877   0.43419   0.00000  Uiso   1.00
H702   H     0.78467   0.62682   0.39162   0.00000  Uiso   1.00
H703   H     0.78460   0.37315   0.39164   0.00000  Uiso   1.00
H704   H     0.74516   0.37127   0.43427   0.00000  Uiso   1.00
H705   H     0.89063   0.58085   0.56908   0.00000  Uiso   1.00
H706   H     0.92151   0.62873   0.56573   0.00000  Uiso   1.00
H707   H     0.88207   0.62685   0.60836   0.00000  Uiso   1.00
H708   H     0.89064   0.41914   0.56907   0.00000  Uiso   1.00
H709   H     0.88200   0.37318   0.60838   0.00000  Uiso   1.00
H710   H     0.92149   0.37123   0.56581   0.00000  Uiso   1.00
N711   N     0.83333   0.61736   0.50000   0.00000  Uiso   1.00
N712   N     0.83333   0.38264   0.50000   0.00000  Uiso   1.00
O713   O     0.77321   0.53958   0.50000   0.00000  Uiso   1.00
O714   O     0.89345   0.46042   0.50000   0.00000  Uiso   1.00
O715   O     0.89345   0.53958   0.50000   0.00000  Uiso   1.00
O716   O     0.77321   0.46042   0.50000   0.00000  Uiso   1.00
O717   O     0.83333   0.53959   0.42946   0.00000  Uiso   1.00
O718   O     0.83333   0.46041   0.57054   0.00000  Uiso   1.00
O719   O     0.83333   0.53959   0.57054   0.00000  Uiso   1.00
O720   O     0.83333   0.46041   0.42946   0.00000  Uiso   1.00
C721   C     0.08751   0.83333   0.50007   0.00000  Uiso   1.00
C722   C     0.02118   0.87518   0.50025   0.00000  Uiso   1.00
C723   C     0.29050   0.83333   0.49968   0.00000  Uiso   1.00
C724   C     0.04283   0.83333   0.50032   0.00000  Uiso   1.00
C725   C     0.14032   0.69138   0.46718   0.00000  Uiso   1.00
C726   C     0.19301   0.97529   0.53282   0.00000  Uiso   1.00
C727   C     0.19301   0.69138   0.53283   0.00000  Uiso   1.00
C728   C     0.14033   0.97529   0.46717   0.00000  Uiso   1.00
C729   C     0.11043   0.71528   0.42945   0.00000  Uiso   1.00
C730   C     0.22290   0.95139   0.57055   0.00000  Uiso   1.00
C731   C     0.22288   0.71528   0.57057   0.00000  Uiso   1.00
C732   C     0.24582   0.83333   0.49993   0.00000  Uiso   1.00
C733   C     0.11045   0.95139   0.42943   0.00000  Uiso   1.00
C734   C     0.16649   0.83333   0.40702   0.00000  Uiso   1.00
C735   C     0.16684   0.83333   0.59298   0.00000  Uiso   1.00
C736   C     0.16660   0.83333   0.35521   0.00000  Uiso   1.00
C737   C     0.16673   0.83333   0.64479   0.00000  Uiso   1.00
C738   C     0.02119   0.79149   0.50037   0.00000  Uiso   1.00
C739   C     0.31214   0.87517   0.49963   0.00000  Uiso   1.00
C740   C     0.31215   0.79149   0.49975   0.00000  Uiso   1.00
Cu741  Cu    0.16667   0.88022   0.50000   0.00000  Uiso   1.00
Cu742  Cu    0.16667   0.78645   0.50000   0.00000  Uiso   1.00
F743   F     0.04069   0.75020   0.50130   0.00000  Uiso   1.00
F744   F     0.29264   0.91647   0.49870   0.00000  Uiso   1.00
F745   F     0.29267   0.75019   0.49894   0.00000  Uiso   1.00
F746   F     0.04067   0.91648   0.50106   0.00000  Uiso   1.00
H747   H     0.10937   0.75248   0.43092   0.00000  Uiso   1.00
H748   H     0.10936   0.91419   0.43093   0.00000  Uiso   1.00
H749   H     0.07851   0.96210   0.43419   0.00000  Uiso   1.00
H750   H     0.11800   0.96015   0.39162   0.00000  Uiso   1.00
H751   H     0.11793   0.70649   0.39164   0.00000  Uiso   1.00
H752   H     0.07849   0.70460   0.43427   0.00000  Uiso   1.00
H753   H     0.22397   0.91418   0.56908   0.00000  Uiso   1.00
H754   H     0.25484   0.96207   0.56573   0.00000  Uiso   1.00
H755   H     0.21540   0.96018   0.60836   0.00000  Uiso   1.00
H756   H     0.22397   0.75248   0.56907   0.00000  Uiso   1.00
H757   H     0.21533   0.70651   0.60838   0.00000  Uiso   1.00
H758   H     0.25482   0.70456   0.56581   0.00000  Uiso   1.00
N759   N     0.16667   0.95069   0.50000   0.00000  Uiso   1.00
N760   N     0.16667   0.71598   0.50000   0.00000  Uiso   1.00
O761   O     0.10655   0.87291   0.50000   0.00000  Uiso   1.00
O762   O     0.22679   0.79375   0.50000   0.00000  Uiso   1.00
O763   O     0.22679   0.87291   0.50000   0.00000  Uiso   1.00
O764   O     0.10655   0.79375   0.50000   0.00000  Uiso   1.00
O765   O     0.16667   0.87292   0.42946   0.00000  Uiso   1.00
O766   O     0.16667   0.79375   0.57054   0.00000  Uiso   1.00
O767   O     0.16667   0.87292   0.57054   0.00000  Uiso   1.00
O768   O     0.16667   0.79375   0.42946   0.00000  Uiso   1.00
C769   C     0.42085   0.83333   0.50007   0.00000  Uiso   1.00
C770   C     0.35451   0.87518   0.50025   0.00000  Uiso   1.00
C771   C     0.62384   0.83333   0.49968   0.00000  Uiso   1.00
C772   C     0.37616   0.83333   0.50032   0.00000  Uiso   1.00
C773   C     0.47366   0.69138   0.46718   0.00000  Uiso   1.00
C774   C     0.52634   0.97529   0.53282   0.00000  Uiso   1.00
C775   C     0.52634   0.69138   0.53283   0.00000  Uiso   1.00
C776   C     0.47366   0.97529   0.46717   0.00000  Uiso   1.00
C777   C     0.44376   0.71528   0.42945   0.00000  Uiso   1.00
C778   C     0.55624   0.95139   0.57055   0.00000  Uiso   1.00
C779   C     0.55621   0.71528   0.57057   0.00000  Uiso   1.00
C780   C     0.57915   0.83333   0.49993   0.00000  Uiso   1.00
C781   C     0.44379   0.95139   0.42943   0.00000  Uiso   1.00
C782   C     0.49983   0.83333   0.40702   0.00000  Uiso   1.00
C783   C     0.50017   0.83333   0.59298   0.00000  Uiso   1.00
C784   C     0.49994   0.83333   0.35521   0.00000  Uiso   1.00
C785   C     0.50006   0.83333   0.64479   0.00000  Uiso   1.00
C786   C     0.35452   0.79149   0.50037   0.00000  Uiso   1.00
C787   C     0.64548   0.87517   0.49963   0.00000  Uiso   1.00
C788   C     0.64549   0.79149   0.49975   0.00000  Uiso   1.00
Cu789  Cu    0.50000   0.88022   0.50000   0.00000  Uiso   1.00
Cu790  Cu    0.50000   0.78645   0.50000   0.00000  Uiso   1.00
F791   F     0.37402   0.75020   0.50130   0.00000  Uiso   1.00
F792   F     0.62598   0.91647   0.49870   0.00000  Uiso   1.00
F793   F     0.62600   0.75019   0.49894   0.00000  Uiso   1.00
F794   F     0.37400   0.91648   0.50106   0.00000  Uiso   1.00
H795   H     0.44270   0.75248   0.43092   0.00000  Uiso   1.00
H796   H     0.44270   0.91419   0.43093   0.00000  Uiso   1.00
H797   H     0.41184   0.96210   0.43419   0.00000  Uiso   1.00
H798   H     0.45133   0.96015   0.39162   0.00000  Uiso   1.00
H799   H     0.45126   0.70649   0.39164   0.00000  Uiso   1.00
H800   H     0.41182   0.70460   0.43427   0.00000  Uiso   1.00
H801   H     0.55730   0.91418   0.56908   0.00000  Uiso   1.00
H802   H     0.58818   0.96207   0.56573   0.00000  Uiso   1.00
H803   H     0.54874   0.96018   0.60836   0.00000  Uiso   1.00
H804   H     0.55731   0.75248   0.56907   0.00000  Uiso   1.00
H805   H     0.54867   0.70651   0.60838   0.00000  Uiso   1.00
H806   H     0.58816   0.70456   0.56581   0.00000  Uiso   1.00
N807   N     0.50000   0.95069   0.50000   0.00000  Uiso   1.00
N808   N     0.50000   0.71598   0.50000   0.00000  Uiso   1.00
O809   O     0.43988   0.87291   0.50000   0.00000  Uiso   1.00
O810   O     0.56012   0.79375   0.50000   0.00000  Uiso   1.00
O811   O     0.56012   0.87291   0.50000   0.00000  Uiso   1.00
O812   O     0.43988   0.79375   0.50000   0.00000  Uiso   1.00
O813   O     0.50000   0.87292   0.42946   0.00000  Uiso   1.00
O814   O     0.50000   0.79375   0.57054   0.00000  Uiso   1.00
O815   O     0.50000   0.87292   0.57054   0.00000  Uiso   1.00
O816   O     0.50000   0.79375   0.42946   0.00000  Uiso   1.00
C817   C     0.75418   0.83333   0.50007   0.00000  Uiso   1.00
C818   C     0.68785   0.87518   0.50025   0.00000  Uiso   1.00
C819   C     0.95717   0.83333   0.49968   0.00000  Uiso   1.00
C820   C     0.70950   0.83333   0.50032   0.00000  Uiso   1.00
C821   C     0.80699   0.69138   0.46718   0.00000  Uiso   1.00
C822   C     0.85968   0.97529   0.53282   0.00000  Uiso   1.00
C823   C     0.85967   0.69138   0.53283   0.00000  Uiso   1.00
C824   C     0.80699   0.97529   0.46717   0.00000  Uiso   1.00
C825   C     0.77710   0.71528   0.42945   0.00000  Uiso   1.00
C826   C     0.88957   0.95139   0.57055   0.00000  Uiso   1.00
C827   C     0.88955   0.71528   0.57057   0.00000  Uiso   1.00
C828   C     0.91249   0.83333   0.49993   0.00000  Uiso   1.00
C829   C     0.77712   0.95139   0.42943   0.00000  Uiso   1.00
C830   C     0.83316   0.83333   0.40702   0.00000  Uiso   1.00
C831   C     0.83351   0.83333   0.59298   0.00000  Uiso   1.00
C832   C     0.83327   0.83333   0.35521   0.00000  Uiso   1.00
C833   C     0.83340   0.83333   0.64479   0.00000  Uiso   1.00
C834   C     0.68786   0.79149   0.50037   0.00000  Uiso   1.00
C835   C     0.97881   0.87517   0.49963   0.00000  Uiso   1.00
C836   C     0.97882   0.79149   0.49975   0.00000  Uiso   1.00
Cu837  Cu    0.83333   0.88022   0.50000   0.00000  Uiso   1.00
Cu838  Cu    0.83333   0.78645   0.50000   0.00000  Uiso   1.00
F839   F     0.70736   0.75020   0.50130   0.00000  Uiso   1.00
F840   F     0.95931   0.91647   0.49870   0.00000  Uiso   1.00
F841   F     0.95933   0.75019   0.49894   0.00000  Uiso   1.00
F842   F     0.70733   0.91648   0.50106   0.00000  Uiso   1.00
H843   H     0.77603   0.75248   0.43092   0.00000  Uiso   1.00
H844   H     0.77603   0.91419   0.43093   0.00000  Uiso   1.00
H845   H     0.74518   0.96210   0.43419   0.00000  Uiso   1.00
H846   H     0.78467   0.96015   0.39162   0.00000  Uiso   1.00
H847   H     0.78460   0.70649   0.39164   0.00000  Uiso   1.00
H848   H     0.74516   0.70460   0.43427   0.00000  Uiso   1.00
H849   H     0.89063   0.91418   0.56908   0.00000  Uiso   1.00
H850   H     0.92151   0.96207   0.56573   0.00000  Uiso   1.00
H851   H     0.88207   0.96018   0.60836   0.00000  Uiso   1.00
H852   H     0.89064   0.75248   0.56907   0.00000  Uiso   1.00
H853   H     0.88200   0.70651   0.60838   0.00000  Uiso   1.00
H854   H     0.92149   0.70456   0.56581   0.00000  Uiso   1.00
N855   N     0.83333   0.95069   0.50000   0.00000  Uiso   1.00
N856   N     0.83333   0.71598   0.50000   0.00000  Uiso   1.00
O857   O     0.77321   0.87291   0.50000   0.00000  Uiso   1.00
O858   O     0.89345   0.79375   0.50000   0.00000  Uiso   1.00
O859   O     0.89345   0.87291   0.50000   0.00000  Uiso   1.00
O860   O     0.77321   0.79375   0.50000   0.00000  Uiso   1.00
O861   O     0.83333   0.87292   0.42946   0.00000  Uiso   1.00
O862   O     0.83333   0.79375   0.57054   0.00000  Uiso   1.00
O863   O     0.83333   0.87292   0.57054   0.00000  Uiso   1.00
O864   O     0.83333   0.79375   0.42946   0.00000  Uiso   1.00
C865   C     0.08751   0.16667   0.83341   0.00000  Uiso   1.00
C866   C     0.02118   0.20851   0.83358   0.00000  Uiso   1.00
C867   C     0.29050   0.16667   0.83302   0.00000  Uiso   1.00
C868   C     0.04283   0.16667   0.83365   0.00000  Uiso   1.00
C869   C     0.14032   0.02471   0.80051   0.00000  Uiso   1.00
C870   C     0.19301   0.30862   0.86616   0.00000  Uiso   1.00
C871   C     0.19301   0.02471   0.86616   0.00000  Uiso   1.00
C872   C     0.14033   0.30862   0.80051   0.00000  Uiso   1.00
C873   C     0.11043   0.04861   0.76278   0.00000  Uiso   1.00
C874   C     0.22290   0.28472   0.90388   0.00000  Uiso   1.00
C875   C     0.22288   0.04861   0.90391   0.00000  Uiso   1.00
C876   C     0.24582   0.16667   0.83326   0.00000  Uiso   1.00
C877   C     0.11045   0.28472   0.76276   0.00000  Uiso   1.00
C878   C     0.16649   0.16667   0.74035   0.00000  Uiso   1.00
C879   C     0.16684   0.16667   0.92632   0.00000  Uiso   1.00
C880   C     0.16660   0.16667   0.68854   0.00000  Uiso   1.00
C881   C     0.16673   0.16667   0.97812   0.00000  Uiso   1.00
C882   C     0.02119   0.12483   0.83370   0.00000  Uiso   1.00
C883   C     0.31214   0.20851   0.83297   0.00000  Uiso   1.00
C884   C     0.31215   0.12482   0.83308   0.00000  Uiso   1.00
Cu885  Cu    0.16667   0.21355   0.83333   0.00000  Uiso   1.00
Cu886  Cu    0.16667   0.11978   0.83333   0.00000  Uiso   1.00
F887   F     0.04069   0.08353   0.83463   0.00000  Uiso   1.00
F888   F     0.29264   0.24980   0.83204   0.00000  Uiso   1.00
F889   F     0.29267   0.08352   0.83228   0.00000  Uiso   1.00
F890   F     0.04067   0.24981   0.83439   0.00000  Uiso   1.00
H891   H     0.10937   0.08582   0.76426   0.00000  Uiso   1.00
H892   H     0.10936   0.24752   0.76426   0.00000  Uiso   1.00
H893   H     0.07851   0.29544   0.76752   0.00000  Uiso   1.00
H894   H     0.11800   0.29349   0.72495   0.00000  Uiso   1.00
H895   H     0.11793   0.03982   0.72497   0.00000  Uiso   1.00
H896   H     0.07849   0.03793   0.76761   0.00000  Uiso   1.00
H897   H     0.22397   0.24752   0.90241   0.00000  Uiso   1.00
H898   H     0.25484   0.29540   0.89906   0.00000  Uiso   1.00
H899   H     0.21540   0.29351   0.94170   0.00000  Uiso   1.00
H900   H     0.22397   0.08581   0.90240   0.00000  Uiso   1.00
H901   H     0.21533   0.03985   0.94171   0.00000  Uiso   1.00
H902   H     0.25482   0.03790   0.89915   0.00000  Uiso   1.00
N903   N     0.16667   0.28402   0.83333   0.00000  Uiso   1.00
N904   N     0.16667   0.04931   0.83333   0.00000  Uiso   1.00
O905   O     0.10655   0.20625   0.83333   0.00000  Uiso   1.00
O906   O     0.22679   0.12709   0.83334   0.00000  Uiso   1.00
O907   O     0.22679   0.20625   0.83334   0.00000  Uiso   1.00
O908   O     0.10655   0.12709   0.83333   0.00000  Uiso   1.00
O909   O     0.16667   0.20625   0.76280   0.00000  Uiso   1.00
O910   O     0.16667   0.12708   0.90387   0.00000  Uiso   1.00
O911   O     0.16667   0.20625   0.90387   0.00000  Uiso   1.00
O912   O     0.16667   0.12708   0.76280   0.00000  Uiso   1.00
C913   C     0.42085   0.16667   0.83341   0.00000  Uiso   1.00
C914   C     0.35451   0.20851   0.83358   0.00000  Uiso   1.00
C915   C     0.62384   0.16667   0.83302   0.00000  Uiso   1.00
C916   C     0.37616   0.16667   0.83365   0.00000  Uiso   1.00
C917   C     0.47366   0.02471   0.80051   0.00000  Uiso   1.00
C918   C     0.52634   0.30862   0.86616   0.00000  Uiso   1.00
C919   C     0.52634   0.02471   0.86616   0.00000  Uiso   1.00
C920   C     0.47366   0.30862   0.80051   0.00000  Uiso   1.00
C921   C     0.44376   0.04861   0.76278   0.00000  Uiso   1.00
C922   C     0.55624   0.28472   0.90388   0.00000  Uiso   1.00
C923   C     0.55621   0.04861   0.90391   0.00000  Uiso   1.00
C924   C     0.57915   0.16667   0.83326   0.00000  Uiso   1.00
C925   C     0.44379   0.28472   0.76276   0.00000  Uiso   1.00
C926   C     0.49983   0.16667   0.74035   0.00000  Uiso   1.00
C927   C     0.50017   0.16667   0.92632   0.00000  Uiso   1.00
C928   C     0.49994   0.16667   0.68854   0.00000  Uiso   1.00
C929   C     0.50006   0.16667   0.97812   0.00000  Uiso   1.00
C930   C     0.35452   0.12483   0.83370   0.00000  Uiso   1.00
C931   C     0.64548   0.20851   0.83297   0.00000  Uiso   1.00
C932   C     0.64549   0.12482   0.83308   0.00000  Uiso   1.00
Cu933  Cu    0.50000   0.21355   0.83333   0.00000  Uiso   1.00
Cu934  Cu    0.50000   0.11978   0.83333   0.00000  Uiso   1.00
F935   F     0.37402   0.08353   0.83463   0.00000  Uiso   1.00
F936   F     0.62598   0.24980   0.83204   0.00000  Uiso   1.00
F937   F     0.62600   0.08352   0.83228   0.00000  Uiso   1.00
F938   F     0.37400   0.24981   0.83439   0.00000  Uiso   1.00
H939   H     0.44270   0.08582   0.76426   0.00000  Uiso   1.00
H940   H     0.44270   0.24752   0.76426   0.00000  Uiso   1.00
H941   H     0.41184   0.29544   0.76752   0.00000  Uiso   1.00
H942   H     0.45133   0.29349   0.72495   0.00000  Uiso   1.00
H943   H     0.45126   0.03982   0.72497   0.00000  Uiso   1.00
H944   H     0.41182   0.03793   0.76761   0.00000  Uiso   1.00
H945   H     0.55730   0.24752   0.90241   0.00000  Uiso   1.00
H946   H     0.58818   0.29540   0.89906   0.00000  Uiso   1.00
H947   H     0.54874   0.29351   0.94170   0.00000  Uiso   1.00
H948   H     0.55731   0.08581   0.90240   0.00000  Uiso   1.00
H949   H     0.54867   0.03985   0.94171   0.00000  Uiso   1.00
H950   H     0.58816   0.03790   0.89915   0.00000  Uiso   1.00
N951   N     0.50000   0.28402   0.83333   0.00000  Uiso   1.00
N952   N     0.50000   0.04931   0.83333   0.00000  Uiso   1.00
O953   O     0.43988   0.20625   0.83333   0.00000  Uiso   1.00
O954   O     0.56012   0.12709   0.83334   0.00000  Uiso   1.00
O955   O     0.56012   0.20625   0.83334   0.00000  Uiso   1.00
O956   O     0.43988   0.12709   0.83333   0.00000  Uiso   1.00
O957   O     0.50000   0.20625   0.76280   0.00000  Uiso   1.00
O958   O     0.50000   0.12708   0.90387   0.00000  Uiso   1.00
O959   O     0.50000   0.20625   0.90387   0.00000  Uiso   1.00
O960   O     0.50000   0.12708   0.76280   0.00000  Uiso   1.00
C961   C     0.75418   0.16667   0.83341   0.00000  Uiso   1.00
C962   C     0.68785   0.20851   0.83358   0.00000  Uiso   1.00
C963   C     0.95717   0.16667   0.83302   0.00000  Uiso   1.00
C964   C     0.70950   0.16667   0.83365   0.00000  Uiso   1.00
C965   C     0.80699   0.02471   0.80051   0.00000  Uiso   1.00
C966   C     0.85968   0.30862   0.86616   0.00000  Uiso   1.00
C967   C     0.85967   0.02471   0.86616   0.00000  Uiso   1.00
C968   C     0.80699   0.30862   0.80051   0.00000  Uiso   1.00
C969   C     0.77710   0.04861   0.76278   0.00000  Uiso   1.00
C970   C     0.88957   0.28472   0.90388   0.00000  Uiso   1.00
C971   C     0.88955   0.04861   0.90391   0.00000  Uiso   1.00
C972   C     0.91249   0.16667   0.83326   0.00000  Uiso   1.00
C973   C     0.77712   0.28472   0.76276   0.00000  Uiso   1.00
C974   C     0.83316   0.16667   0.74035   0.00000  Uiso   1.00
C975   C     0.83351   0.16667   0.92632   0.00000  Uiso   1.00
C976   C     0.83327   0.16667   0.68854   0.00000  Uiso   1.00
C977   C     0.83340   0.16667   0.97812   0.00000  Uiso   1.00
C978   C     0.68786   0.12483   0.83370   0.00000  Uiso   1.00
C979   C     0.97881   0.20851   0.83297   0.00000  Uiso   1.00
C980   C     0.97882   0.12482   0.83308   0.00000  Uiso   1.00
Cu981  Cu    0.83333   0.21355   0.83333   0.00000  Uiso   1.00
Cu982  Cu    0.83333   0.11978   0.83333   0.00000  Uiso   1.00
F983   F     0.70736   0.08353   0.83463   0.00000  Uiso   1.00
F984   F     0.95931   0.24980   0.83204   0.00000  Uiso   1.00
F985   F     0.95933   0.08352   0.83228   0.00000  Uiso   1.00
F986   F     0.70733   0.24981   0.83439   0.00000  Uiso   1.00
H987   H     0.77603   0.08582   0.76426   0.00000  Uiso   1.00
H988   H     0.77603   0.24752   0.76426   0.00000  Uiso   1.00
H989   H     0.74518   0.29544   0.76752   0.00000  Uiso   1.00
H990   H     0.78467   0.29349   0.72495   0.00000  Uiso   1.00
H991   H     0.78460   0.03982   0.72497   0.00000  Uiso   1.00
H992   H     0.74516   0.03793   0.76761   0.00000  Uiso   1.00
H993   H     0.89063   0.24752   0.90241   0.00000  Uiso   1.00
H994   H     0.92151   0.29540   0.89906   0.00000  Uiso   1.00
H995   H     0.88207   0.29351   0.94170   0.00000  Uiso   1.00
H996   H     0.89064   0.08581   0.90240   0.00000  Uiso   1.00
H997   H     0.88200   0.03985   0.94171   0.00000  Uiso   1.00
H998   H     0.92149   0.03790   0.89915   0.00000  Uiso   1.00
N999   N     0.83333   0.28402   0.83333   0.00000  Uiso   1.00
N1000  N     0.83333   0.04931   0.83333   0.00000  Uiso   1.00
O1001  O     0.77321   0.20625   0.83333   0.00000  Uiso   1.00
O1002  O     0.89345   0.12709   0.83334   0.00000  Uiso   1.00
O1003  O     0.89345   0.20625   0.83334   0.00000  Uiso   1.00
O1004  O     0.77321   0.12709   0.83333   0.00000  Uiso   1.00
O1005  O     0.83333   0.20625   0.76280   0.00000  Uiso   1.00
O1006  O     0.83333   0.12708   0.90387   0.00000  Uiso   1.00
O1007  O     0.83333   0.20625   0.90387   0.00000  Uiso   1.00
O1008  O     0.83333   0.12708   0.76280   0.00000  Uiso   1.00
C1009  C     0.08751   0.50000   0.83341   0.00000  Uiso   1.00
C1010  C     0.02118   0.54184   0.83358   0.00000  Uiso   1.00
C1011  C     0.29050   0.50000   0.83302   0.00000  Uiso   1.00
C1012  C     0.04283   0.50000   0.83365   0.00000  Uiso   1.00
C1013  C     0.14032   0.35804   0.80051   0.00000  Uiso   1.00
C1014  C     0.19301   0.64196   0.86616   0.00000  Uiso   1.00
C1015  C     0.19301   0.35804   0.86616   0.00000  Uiso   1.00
C1016  C     0.14033   0.64196   0.80051   0.00000  Uiso   1.00
C1017  C     0.11043   0.38195   0.76278   0.00000  Uiso   1.00
C1018  C     0.22290   0.61805   0.90388   0.00000  Uiso   1.00
C1019  C     0.22288   0.38194   0.90391   0.00000  Uiso   1.00
C1020  C     0.24582   0.50000   0.83326   0.00000  Uiso   1.00
C1021  C     0.11045   0.61806   0.76276   0.00000  Uiso   1.00
C1022  C     0.16649   0.50000   0.74035   0.00000  Uiso   1.00
C1023  C     0.16684   0.50000   0.92632   0.00000  Uiso   1.00
C1024  C     0.16660   0.50000   0.68854   0.00000  Uiso   1.00
C1025  C     0.16673   0.50000   0.97812   0.00000  Uiso   1.00
C1026  C     0.02119   0.45816   0.83370   0.00000  Uiso   1.00
C1027  C     0.31214   0.54184   0.83297   0.00000  Uiso   1.00
C1028  C     0.31215   0.45816   0.83308   0.00000  Uiso   1.00
Cu1029 Cu    0.16667   0.54689   0.83333   0.00000  Uiso   1.00
Cu1030 Cu    0.16667   0.45311   0.83333   0.00000  Uiso   1.00
F1031  F     0.04069   0.41686   0.83463   0.00000  Uiso   1.00
F1032  F     0.29264   0.58314   0.83204   0.00000  Uiso   1.00
F1033  F     0.29267   0.41686   0.83228   0.00000  Uiso   1.00
F1034  F     0.04067   0.58314   0.83439   0.00000  Uiso   1.00
H1035  H     0.10937   0.41915   0.76426   0.00000  Uiso   1.00
H1036  H     0.10936   0.58086   0.76426   0.00000  Uiso   1.00
H1037  H     0.07851   0.62877   0.76752   0.00000  Uiso   1.00
H1038  H     0.11800   0.62682   0.72495   0.00000  Uiso   1.00
H1039  H     0.11793   0.37315   0.72497   0.00000  Uiso   1.00
H1040  H     0.07849   0.37127   0.76761   0.00000  Uiso   1.00
H1041  H     0.22397   0.58085   0.90241   0.00000  Uiso   1.00
H1042  H     0.25484   0.62873   0.89906   0.00000  Uiso   1.00
H1043  H     0.21540   0.62685   0.94170   0.00000  Uiso   1.00
H1044  H     0.22397   0.41914   0.90240   0.00000  Uiso   1.00
H1045  H     0.21533   0.37318   0.94171   0.00000  Uiso   1.00
H1046  H     0.25482   0.37123   0.89915   0.00000  Uiso   1.00
N1047  N     0.16667   0.61736   0.83333   0.00000  Uiso   1.00
N1048  N     0.16667   0.38264   0.83333   0.00000  Uiso   1.00
O1049  O     0.10655   0.53958   0.83333   0.00000  Uiso   1.00
O1050  O     0.22679   0.46042   0.83334   0.00000  Uiso   1.00
O1051  O     0.22679   0.53958   0.83334   0.00000  Uiso   1.00
O1052  O     0.10655   0.46042   0.83333   0.00000  Uiso   1.00
O1053  O     0.16667   0.53959   0.76280   0.00000  Uiso   1.00
O1054  O     0.16667   0.46041   0.90387   0.00000  Uiso   1.00
O1055  O     0.16667   0.53959   0.90387   0.00000  Uiso   1.00
O1056  O     0.16667   0.46041   0.76280   0.00000  Uiso   1.00
C1057  C     0.42085   0.50000   0.83341   0.00000  Uiso   1.00
C1058  C     0.35451   0.54184   0.83358   0.00000  Uiso   1.00
C1059  C     0.62384   0.50000   0.83302   0.00000  Uiso   1.00
C1060  C     0.37616   0.50000   0.83365   0.00000  Uiso   1.00
C1061  C     0.47366   0.35804   0.80051   0.00000  Uiso   1.00
C1062  C     0.52634   0.64196   0.86616   0.00000  Uiso   1.00
C1063  C     0.52634   0.35804   0.86616   0.00000  Uiso   1.00
C1064  C     0.47366   0.64196   0.80051   0.00000  Uiso   1.00
C1065  C     0.44376   0.38195   0.76278   0.00000  Uiso   1.00
C1066  C     0.55624   0.61805   0.90388   0.00000  Uiso   1.00
C1067  C     0.55621   0.38194   0.90391   0.00000  Uiso   1.00
C1068  C     0.57915   0.50000   0.83326   0.00000  Uiso   1.00
C1069  C     0.44379   0.61806   0.76276   0.00000  Uiso   1.00
C1070  C     0.49983   0.50000   0.74035   0.00000  Uiso   1.00
C1071  C     0.50017   0.50000   0.92632   0.00000  Uiso   1.00
C1072  C     0.49994   0.50000   0.68854   0.00000  Uiso   1.00
C1073  C     0.50006   0.50000   0.97812   0.00000  Uiso   1.00
C1074  C     0.35452   0.45816   0.83370   0.00000  Uiso   1.00
C1075  C     0.64548   0.54184   0.83297   0.00000  Uiso   1.00
C1076  C     0.64549   0.45816   0.83308   0.00000  Uiso   1.00
Cu1077 Cu    0.50000   0.54689   0.83333   0.00000  Uiso   1.00
Cu1078 Cu    0.50000   0.45311   0.83333   0.00000  Uiso   1.00
F1079  F     0.37402   0.41686   0.83463   0.00000  Uiso   1.00
F1080  F     0.62598   0.58314   0.83204   0.00000  Uiso   1.00
F1081  F     0.62600   0.41686   0.83228   0.00000  Uiso   1.00
F1082  F     0.37400   0.58314   0.83439   0.00000  Uiso   1.00
H1083  H     0.44270   0.41915   0.76426   0.00000  Uiso   1.00
H1084  H     0.44270   0.58086   0.76426   0.00000  Uiso   1.00
H1085  H     0.41184   0.62877   0.76752   0.00000  Uiso   1.00
H1086  H     0.45133   0.62682   0.72495   0.00000  Uiso   1.00
H1087  H     0.45126   0.37315   0.72497   0.00000  Uiso   1.00
H1088  H     0.41182   0.37127   0.76761   0.00000  Uiso   1.00
H1089  H     0.55730   0.58085   0.90241   0.00000  Uiso   1.00
H1090  H     0.58818   0.62873   0.89906   0.00000  Uiso   1.00
H1091  H     0.54874   0.62685   0.94170   0.00000  Uiso   1.00
H1092  H     0.55731   0.41914   0.90240   0.00000  Uiso   1.00
H1093  H     0.54867   0.37318   0.94171   0.00000  Uiso   1.00
H1094  H     0.58816   0.37123   0.89915   0.00000  Uiso   1.00
N1095  N     0.50000   0.61736   0.83333   0.00000  Uiso   1.00
N1096  N     0.50000   0.38264   0.83333   0.00000  Uiso   1.00
O1097  O     0.43988   0.53958   0.83333   0.00000  Uiso   1.00
O1098  O     0.56012   0.46042   0.83334   0.00000  Uiso   1.00
O1099  O     0.56012   0.53958   0.83334   0.00000  Uiso   1.00
O1100  O     0.43988   0.46042   0.83333   0.00000  Uiso   1.00
O1101  O     0.50000   0.53959   0.76280   0.00000  Uiso   1.00
O1102  O     0.50000   0.46041   0.90387   0.00000  Uiso   1.00
O1103  O     0.50000   0.53959   0.90387   0.00000  Uiso   1.00
O1104  O     0.50000   0.46041   0.76280   0.00000  Uiso   1.00
C1105  C     0.75418   0.50000   0.83341   0.00000  Uiso   1.00
C1106  C     0.68785   0.54184   0.83358   0.00000  Uiso   1.00
C1107  C     0.95717   0.50000   0.83302   0.00000  Uiso   1.00
C1108  C     0.70950   0.50000   0.83365   0.00000  Uiso   1.00
C1109  C     0.80699   0.35804   0.80051   0.00000  Uiso   1.00
C1110  C     0.85968   0.64196   0.86616   0.00000  Uiso   1.00
C1111  C     0.85967   0.35804   0.86616   0.00000  Uiso   1.00
C1112  C     0.80699   0.64196   0.80051   0.00000  Uiso   1.00
C1113  C     0.77710   0.38195   0.76278   0.00000  Uiso   1.00
C1114  C     0.88957   0.61805   0.90388   0.00000  Uiso   1.00
C1115  C     0.88955   0.38194   0.90391   0.00000  Uiso   1.00
C1116  C     0.91249   0.50000   0.83326   0.00000  Uiso   1.00
C1117  C     0.77712   0.61806   0.76276   0.00000  Uiso   1.00
C1118  C     0.83316   0.50000   0.74035   0.00000  Uiso   1.00
C1119  C     0.83351   0.50000   0.92632   0.00000  Uiso   1.00
C1120  C     0.83327   0.50000   0.68854   0.00000  Uiso   1.00
C1121  C     0.83340   0.50000   0.97812   0.00000  Uiso   1.00
C1122  C     0.68786   0.45816   0.83370   0.00000  Uiso   1.00
C1123  C     0.97881   0.54184   0.83297   0.00000  Uiso   1.00
C1124  C     0.97882   0.45816   0.83308   0.00000  Uiso   1.00
Cu1125 Cu    0.83333   0.54689   0.83333   0.00000  Uiso   1.00
Cu1126 Cu    0.83333   0.45311   0.83333   0.00000  Uiso   1.00
F1127  F     0.70736   0.41686   0.83463   0.00000  Uiso   1.00
F1128  F     0.95931   0.58314   0.83204   0.00000  Uiso   1.00
F1129  F     0.95933   0.41686   0.83228   0.00000  Uiso   1.00
F1130  F     0.70733   0.58314   0.83439   0.00000  Uiso   1.00
H1131  H     0.77603   0.41915   0.76426   0.00000  Uiso   1.00
H1132  H     0.77603   0.58086   0.76426   0.00000  Uiso   1.00
H1133  H     0.74518   0.62877   0.76752   0.00000  Uiso   1.00
H1134  H     0.78467   0.62682   0.72495   0.00000  Uiso   1.00
H1135  H     0.78460   0.37315   0.72497   0.00000  Uiso   1.00
H1136  H     0.74516   0.37127   0.76761   0.00000  Uiso   1.00
H1137  H     0.89063   0.58085   0.90241   0.00000  Uiso   1.00
H1138  H     0.92151   0.62873   0.89906   0.00000  Uiso   1.00
H1139  H     0.88207   0.62685   0.94170   0.00000  Uiso   1.00
H1140  H     0.89064   0.41914   0.90240   0.00000  Uiso   1.00
H1141  H     0.88200   0.37318   0.94171   0.00000  Uiso   1.00
H1142  H     0.92149   0.37123   0.89915   0.00000  Uiso   1.00
N1143  N     0.83333   0.61736   0.83333   0.00000  Uiso   1.00
N1144  N     0.83333   0.38264   0.83333   0.00000  Uiso   1.00
O1145  O     0.77321   0.53958   0.83333   0.00000  Uiso   1.00
O1146  O     0.89345   0.46042   0.83334   0.00000  Uiso   1.00
O1147  O     0.89345   0.53958   0.83334   0.00000  Uiso   1.00
O1148  O     0.77321   0.46042   0.83333   0.00000  Uiso   1.00
O1149  O     0.83333   0.53959   0.76280   0.00000  Uiso   1.00
O1150  O     0.83333   0.46041   0.90387   0.00000  Uiso   1.00
O1151  O     0.83333   0.53959   0.90387   0.00000  Uiso   1.00
O1152  O     0.83333   0.46041   0.76280   0.00000  Uiso   1.00
C1153  C     0.08751   0.83333   0.83341   0.00000  Uiso   1.00
C1154  C     0.02118   0.87518   0.83358   0.00000  Uiso   1.00
C1155  C     0.29050   0.83333   0.83302   0.00000  Uiso   1.00
C1156  C     0.04283   0.83333   0.83365   0.00000  Uiso   1.00
C1157  C     0.14032   0.69138   0.80051   0.00000  Uiso   1.00
C1158  C     0.19301   0.97529   0.86616   0.00000  Uiso   1.00
C1159  C     0.19301   0.69138   0.86616   0.00000  Uiso   1.00
C1160  C     0.14033   0.97529   0.80051   0.00000  Uiso   1.00
C1161  C     0.11043   0.71528   0.76278   0.00000  Uiso   1.00
C1162  C     0.22290   0.95139   0.90388   0.00000  Uiso   1.00
C1163  C     0.22288   0.71528   0.90391   0.00000  Uiso   1.00
C1164  C     0.24582   0.83333   0.83326   0.00000  Uiso   1.00
C1165  C     0.11045   0.95139   0.76276   0.00000  Uiso   1.00
C1166  C     0.16649   0.83333   0.74035   0.00000  Uiso   1.00
C1167  C     0.16684   0.83333   0.92632   0.00000  Uiso   1.00
C1168  C     0.16660   0.83333   0.68854   0.00000  Uiso   1.00
C1169  C     0.16673   0.83333   0.97812   0.00000  Uiso   1.00
C1170  C     0.02119   0.79149   0.83370   0.00000  Uiso   1.00
C1171  C     0.31214   0.87517   0.83297   0.00000  Uiso   1.00
C1172  C     0.31215   0.79149   0.83308   0.00000  Uiso   1.00
Cu1173 Cu    0.16667   0.88022   0.83333   0.00000  Uiso   1.00
Cu1174 Cu    0.16667   0.78645   0.83333   0.00000  Uiso   1.00
F1175  F     0.04069   0.75020   0.83463   0.00000  Uiso   1.00
F1176  F     0.29264   0.91647   0.83204   0.00000  Uiso   1.00
F1177  F     0.29267   0.75019   0.83228   0.00000  Uiso   1.00
F1178  F     0.04067   0.91648   0.83439   0.00000  Uiso   1.00
H1179  H     0.10937   0.75248   0.76426   0.00000  Uiso   1.00
H1180  H     0.10936   0.91419   0.76426   0.00000  Uiso   1.00
H1181  H     0.07851   0.96210   0.76752   0.00000  Uiso   1.00
H1182  H     0.11800   0.96015   0.72495   0.00000  Uiso   1.00
H1183  H     0.11793   0.70649   0.72497   0.00000  Uiso   1.00
H1184  H     0.07849   0.70460   0.76761   0.00000  Uiso   1.00
H1185  H     0.22397   0.91418   0.90241   0.00000  Uiso   1.00
H1186  H     0.25484   0.96207   0.89906   0.00000  Uiso   1.00
H1187  H     0.21540   0.96018   0.94170   0.00000  Uiso   1.00
H1188  H     0.22397   0.75248   0.90240   0.00000  Uiso   1.00
H1189  H     0.21533   0.70651   0.94171   0.00000  Uiso   1.00
H1190  H     0.25482   0.70456   0.89915   0.00000  Uiso   1.00
N1191  N     0.16667   0.95069   0.83333   0.00000  Uiso   1.00
N1192  N     0.16667   0.71598   0.83333   0.00000  Uiso   1.00
O1193  O     0.10655   0.87291   0.83333   0.00000  Uiso   1.00
O1194  O     0.22679   0.79375   0.83334   0.00000  Uiso   1.00
O1195  O     0.22679   0.87291   0.83334   0.00000  Uiso   1.00
O1196  O     0.10655   0.79375   0.83333   0.00000  Uiso   1.00
O1197  O     0.16667   0.87292   0.76280   0.00000  Uiso   1.00
O1198  O     0.16667   0.79375   0.90387   0.00000  Uiso   1.00
O1199  O     0.16667   0.87292   0.90387   0.00000  Uiso   1.00
O1200  O     0.16667   0.79375   0.76280   0.00000  Uiso   1.00
C1201  C     0.42085   0.83333   0.83341   0.00000  Uiso   1.00
C1202  C     0.35451   0.87518   0.83358   0.00000  Uiso   1.00
C1203  C     0.62384   0.83333   0.83302   0.00000  Uiso   1.00
C1204  C     0.37616   0.83333   0.83365   0.00000  Uiso   1.00
C1205  C     0.47366   0.69138   0.80051   0.00000  Uiso   1.00
C1206  C     0.52634   0.97529   0.86616   0.00000  Uiso   1.00
C1207  C     0.52634   0.69138   0.86616   0.00000  Uiso   1.00
C1208  C     0.47366   0.97529   0.80051   0.00000  Uiso   1.00
C1209  C     0.44376   0.71528   0.76278   0.00000  Uiso   1.00
C1210  C     0.55624   0.95139   0.90388   0.00000  Uiso   1.00
C1211  C     0.55621   0.71528   0.90391   0.00000  Uiso   1.00
C1212  C     0.57915   0.83333   0.83326   0.00000  Uiso   1.00
C1213  C     0.44379   0.95139   0.76276   0.00000  Uiso   1.00
C1214  C     0.49983   0.83333   0.74035   0.00000  Uiso   1.00
C1215  C     0.50017   0.83333   0.92632   0.00000  Uiso   1.00
C1216  C     0.49994   0.83333   0.68854   0.00000  Uiso   1.00
C1217  C     0.50006   0.83333   0.97812   0.00000  Uiso   1.00
C1218  C     0.35452   0.79149   0.83370   0.00000  Uiso   1.00
C1219  C     0.64548   0.87517   0.83297   0.00000  Uiso   1.00
C1220  C     0.64549   0.79149   0.83308   0.00000  Uiso   1.00
Cu1221 Cu    0.50000   0.88022   0.83333   0.00000  Uiso   1.00
Cu1222 Cu    0.50000   0.78645   0.83333   0.00000  Uiso   1.00
F1223  F     0.37402   0.75020   0.83463   0.00000  Uiso   1.00
F1224  F     0.62598   0.91647   0.83204   0.00000  Uiso   1.00
F1225  F     0.62600   0.75019   0.83228   0.00000  Uiso   1.00
F1226  F     0.37400   0.91648   0.83439   0.00000  Uiso   1.00
H1227  H     0.44270   0.75248   0.76426   0.00000  Uiso   1.00
H1228  H     0.44270   0.91419   0.76426   0.00000  Uiso   1.00
H1229  H     0.41184   0.96210   0.76752   0.00000  Uiso   1.00
H1230  H     0.45133   0.96015   0.72495   0.00000  Uiso   1.00
H1231  H     0.45126   0.70649   0.72497   0.00000  Uiso   1.00
H1232  H     0.41182   0.70460   0.76761   0.00000  Uiso   1.00
H1233  H     0.55730   0.91418   0.90241   0.00000  Uiso   1.00
H1234  H     0.58818   0.96207   0.89906   0.00000  Uiso   1.00
H1235  H     0.54874   0.96018   0.94170   0.00000  Uiso   1.00
H1236  H     0.55731   0.75248   0.90240   0.00000  Uiso   1.00
H1237  H     0.54867   0.70651   0.94171   0.00000  Uiso   1.00
H1238  H     0.58816   0.70456   0.89915   0.00000  Uiso   1.00
N1239  N     0.50000   0.95069   0.83333   0.00000  Uiso   1.00
N1240  N     0.50000   0.71598   0.83333   0.00000  Uiso   1.00
O1241  O     0.43988   0.87291   0.83333   0.00000  Uiso   1.00
O1242  O     0.56012   0.79375   0.83334   0.00000  Uiso   1.00
O1243  O     0.56012   0.87291   0.83334   0.00000  Uiso   1.00
O1244  O     0.43988   0.79375   0.83333   0.00000  Uiso   1.00
O1245  O     0.50000   0.87292   0.76280   0.00000  Uiso   1.00
O1246  O     0.50000   0.79375   0.90387   0.00000  Uiso   1.00
O1247  O     0.50000   0.87292   0.90387   0.00000  Uiso   1.00
O1248  O     0.50000   0.79375   0.76280   0.00000  Uiso   1.00
C1249  C     0.75418   0.83333   0.83341   0.00000  Uiso   1.00
C1250  C     0.68785   0.87518   0.83358   0.00000  Uiso   1.00
C1251  C     0.95717   0.83333   0.83302   0.00000  Uiso   1.00
C1252  C     0.70950   0.83333   0.83365   0.00000  Uiso   1.00
C1253  C     0.80699   0.69138   0.80051   0.00000  Uiso   1.00
C1254  C     0.85968   0.97529   0.86616   0.00000  Uiso   1.00
C1255  C     0.85967   0.69138   0.86616   0.00000  Uiso   1.00
C1256  C     0.80699   0.97529   0.80051   0.00000  Uiso   1.00
C1257  C     0.77710   0.71528   0.76278   0.00000  Uiso   1.00
C1258  C     0.88957   0.95139   0.90388   0.00000  Uiso   1.00
C1259  C     0.88955   0.71528   0.90391   0.00000  Uiso   1.00
C1260  C     0.91249   0.83333   0.83326   0.00000  Uiso   1.00
C1261  C     0.77712   0.95139   0.76276   0.00000  Uiso   1.00
C1262  C     0.83316   0.83333   0.74035   0.00000  Uiso   1.00
C1263  C     0.83351   0.83333   0.92632   0.00000  Uiso   1.00
C1264  C     0.83327   0.83333   0.68854   0.00000  Uiso   1.00
C1265  C     0.83340   0.83333   0.97812   0.00000  Uiso   1.00
C1266  C     0.68786   0.79149   0.83370   0.00000  Uiso   1.00
C1267  C     0.97881   0.87517   0.83297   0.00000  Uiso   1.00
C1268  C     0.97882   0.79149   0.83308   0.00000  Uiso   1.00
Cu1269 Cu    0.83333   0.88022   0.83333   0.00000  Uiso   1.00
Cu1270 Cu    0.83333   0.78645   0.83333   0.00000  Uiso   1.00
F1271  F     0.70736   0.75020   0.83463   0.00000  Uiso   1.00
F1272  F     0.95931   0.91647   0.83204   0.00000  Uiso   1.00
F1273  F     0.95933   0.75019   0.83228   0.00000  Uiso   1.00
F1274  F     0.70733   0.91648   0.83439   0.00000  Uiso   1.00
H1275  H     0.77603   0.75248   0.76426   0.00000  Uiso   1.00
H1276  H     0.77603   0.91419   0.76426   0.00000  Uiso   1.00
H1277  H     0.74518   0.96210   0.76752   0.00000  Uiso   1.00
H1278  H     0.78467   0.96015   0.72495   0.00000  Uiso   1.00
H1279  H     0.78460   0.70649   0.72497   0.00000  Uiso   1.00
H1280  H     0.74516   0.70460   0.76761   0.00000  Uiso   1.00
H1281  H     0.89063   0.91418   0.90241   0.00000  Uiso   1.00
H1282  H     0.92151   0.96207   0.89906   0.00000  Uiso   1.00
H1283  H     0.88207   0.96018   0.94170   0.00000  Uiso   1.00
H1284  H     0.89064   0.75248   0.90240   0.00000  Uiso   1.00
H1285  H     0.88200   0.70651   0.94171   0.00000  Uiso   1.00
H1286  H     0.92149   0.70456   0.89915   0.00000  Uiso   1.00
N1287  N     0.83333   0.95069   0.83333   0.00000  Uiso   1.00
N1288  N     0.83333   0.71598   0.83333   0.00000  Uiso   1.00
O1289  O     0.77321   0.87291   0.83333   0.00000  Uiso   1.00
O1290  O     0.89345   0.79375   0.83334   0.00000  Uiso   1.00
O1291  O     0.89345   0.87291   0.83334   0.00000  Uiso   1.00
O1292  O     0.77321   0.79375   0.83333   0.00000  Uiso   1.00
O1293  O     0.83333   0.87292   0.76280   0.00000  Uiso   1.00
O1294  O     0.83333   0.79375   0.90387   0.00000  Uiso   1.00
O1295  O     0.83333   0.87292   0.90387   0.00000  Uiso   1.00
O1296  O     0.83333   0.79375   0.76280   0.00000  Uiso   1.00
loop_
_geom_bond_atom_site_label_1
_geom_bond_atom_site_label_2
_geom_bond_distance
_geom_bond_site_symmetry_2
_ccdc_geom_bond_type
C1     O44     1.308   .     A
C1     C4      1.461   .     S
C1     O41     1.308   .     A
C2     C4      1.406   .     A
C2     F26     1.358   .     S
C2     C115    1.383   1_455 S
C3     C20     1.406   .     A
C3     C19     1.406   .     A
C3     C12     1.461   .     S
C4     C18     1.406   .     A
C5     C9      1.520   .     S
C5     N40     1.383   .     A
C5     C296    1.436   1_545 S
C6     C10     1.520   .     S
C6     N39     1.383   .     A
C6     C151    1.436   .     S
C7     N40     1.383   .     A
C7     C11     1.520   .     S
C7     C294    1.436   1_545 S
C8     N39     1.383   .     A
C8     C13     1.520   .     S
C8     C149    1.436   .     S
C9     H32     1.108   .     S
C9     H31     1.110   .     S
C9     H27     1.082   .     S
C10    H33     1.082   .     S
C10    H34     1.108   .     S
C10    H35     1.110   .     S
C11    H38     1.108   .     S
C11    H36     1.082   .     S
C11    H37     1.110   .     S
C12    O43     1.308   .     A
C12    O42     1.308   .     A
C13    H28     1.082   .     S
C13    H29     1.108   .     S
C13    H30     1.110   .     S
C14    C16     1.411   .     S
C14    O48     1.302   .     A
C14    O45     1.302   .     A
C15    O47     1.302   .     A
C15    C17     1.411   .     S
C15    O46     1.302   .     A
C16    C881    1.192   1_554 S
C17    C448    1.192   .     S
C18    F23     1.358   .     S
C18    C116    1.383   1_455 S
C19    F24     1.358   .     S
C19    C50     1.383   .     S
C20    F25     1.358   .     S
C20    C66     1.383   .     S
Cu21   N39     2.047   .     S
Cu21   Cu22    2.725   .     S
Cu21   O45     1.933   .     S
Cu21   O41     1.976   .     S
Cu21   O43     1.976   .     S
Cu21   O47     1.933   .     S
Cu22   O48     1.933   .     S
Cu22   N40     2.047   .     S
Cu22   O42     1.976   .     S
Cu22   O46     1.933   .     S
Cu22   O44     1.976   .     S
C49    O92     1.308   .     A
C49    C52     1.461   .     S
C49    O89     1.308   .     A
C50    C52     1.406   .     A
C50    F74     1.358   .     S
C51    C68     1.406   .     A
C51    C67     1.406   .     A
C51    C60     1.461   .     S
C52    C66     1.406   .     A
C53    C57     1.520   .     S
C53    N88     1.383   .     A
C53    C344    1.436   1_545 S
C54    C58     1.520   .     S
C54    N87     1.383   .     A
C54    C199    1.436   .     S
C55    N88     1.383   .     A
C55    C59     1.520   .     S
C55    C342    1.436   1_545 S
C56    N87     1.383   .     A
C56    C61     1.520   .     S
C56    C197    1.436   .     S
C57    H80     1.108   .     S
C57    H79     1.110   .     S
C57    H75     1.082   .     S
C58    H81     1.082   .     S
C58    H82     1.108   .     S
C58    H83     1.110   .     S
C59    H86     1.108   .     S
C59    H84     1.082   .     S
C59    H85     1.110   .     S
C60    O91     1.308   .     A
C60    O90     1.308   .     A
C61    H76     1.082   .     S
C61    H77     1.108   .     S
C61    H78     1.110   .     S
C62    C64     1.411   .     S
C62    O96     1.302   .     A
C62    O93     1.302   .     A
C63    O95     1.302   .     A
C63    C65     1.411   .     S
C63    O94     1.302   .     A
C64    C929    1.192   1_554 S
C65    C496    1.192   .     S
C66    F71     1.358   .     S
C67    F72     1.358   .     S
C67    C98     1.383   .     S
C68    F73     1.358   .     S
C68    C114    1.383   .     S
Cu69   N87     2.047   .     S
Cu69   Cu70    2.725   .     S
Cu69   O93     1.933   .     S
Cu69   O89     1.976   .     S
Cu69   O91     1.976   .     S
Cu69   O95     1.933   .     S
Cu70   O96     1.933   .     S
Cu70   N88     2.047   .     S
Cu70   O90     1.976   .     S
Cu70   O94     1.933   .     S
Cu70   O92     1.976   .     S
C97    O140    1.308   .     A
C97    C100    1.461   .     S
C97    O137    1.308   .     A
C98    C100    1.406   .     A
C98    F122    1.358   .     S
C99    C116    1.406   .     A
C99    C115    1.406   .     A
C99    C108    1.461   .     S
C100   C114    1.406   .     A
C101   C105    1.520   .     S
C101   N136    1.383   .     A
C101   C392    1.436   1_545 S
C102   C106    1.520   .     S
C102   N135    1.383   .     A
C102   C247    1.436   .     S
C103   N136    1.383   .     A
C103   C107    1.520   .     S
C103   C390    1.436   1_545 S
C104   N135    1.383   .     A
C104   C109    1.520   .     S
C104   C245    1.436   .     S
C105   H128    1.108   .     S
C105   H127    1.110   .     S
C105   H123    1.082   .     S
C106   H129    1.082   .     S
C106   H130    1.108   .     S
C106   H131    1.110   .     S
C107   H134    1.108   .     S
C107   H132    1.082   .     S
C107   H133    1.110   .     S
C108   O139    1.308   .     A
C108   O138    1.308   .     A
C109   H124    1.082   .     S
C109   H125    1.108   .     S
C109   H126    1.110   .     S
C110   C112    1.411   .     S
C110   O144    1.302   .     A
C110   O141    1.302   .     A
C111   O143    1.302   .     A
C111   C113    1.411   .     S
C111   O142    1.302   .     A
C112   C977    1.192   1_554 S
C113   C544    1.192   .     S
C114   F119    1.358   .     S
C115   F120    1.358   .     S
C115   C2      1.383   1_655 S
C116   F121    1.358   .     S
C116   C18     1.383   1_655 S
Cu117  N135    2.047   .     S
Cu117  Cu118   2.725   .     S
Cu117  O141    1.933   .     S
Cu117  O137    1.976   .     S
Cu117  O139    1.976   .     S
Cu117  O143    1.933   .     S
Cu118  O144    1.933   .     S
Cu118  N136    2.047   .     S
Cu118  O138    1.976   .     S
Cu118  O142    1.933   .     S
Cu118  O140    1.976   .     S
C145   O188    1.308   .     A
C145   C148    1.461   .     S
C145   O185    1.308   .     A
C146   C148    1.406   .     A
C146   F170    1.358   .     S
C146   C259    1.383   1_455 S
C147   C164    1.406   .     A
C147   C163    1.406   .     A
C147   C156    1.461   .     S
C148   C162    1.406   .     A
C149   C153    1.520   .     S
C149   N184    1.383   .     A
C150   C154    1.520   .     S
C150   N183    1.383   .     A
C150   C295    1.436   .     S
C151   N184    1.383   .     A
C151   C155    1.520   .     S
C152   N183    1.383   .     A
C152   C157    1.520   .     S
C152   C293    1.436   .     S
C153   H176    1.108   .     S
C153   H175    1.110   .     S
C153   H171    1.082   .     S
C154   H177    1.082   .     S
C154   H178    1.108   .     S
C154   H179    1.110   .     S
C155   H182    1.108   .     S
C155   H180    1.082   .     S
C155   H181    1.110   .     S
C156   O187    1.308   .     A
C156   O186    1.308   .     A
C157   H172    1.082   .     S
C157   H173    1.108   .     S
C157   H174    1.110   .     S
C158   C160    1.411   .     S
C158   O192    1.302   .     A
C158   O189    1.302   .     A
C159   O191    1.302   .     A
C159   C161    1.411   .     S
C159   O190    1.302   .     A
C160   C1025   1.192   1_554 S
C161   C592    1.192   .     S
C162   F167    1.358   .     S
C162   C260    1.383   1_455 S
C163   F168    1.358   .     S
C163   C194    1.383   .     S
C164   F169    1.358   .     S
C164   C210    1.383   .     S
Cu165  N183    2.047   .     S
Cu165  Cu166   2.725   .     S
Cu165  O189    1.933   .     S
Cu165  O185    1.976   .     S
Cu165  O187    1.976   .     S
Cu165  O191    1.933   .     S
Cu166  O192    1.933   .     S
Cu166  N184    2.047   .     S
Cu166  O186    1.976   .     S
Cu166  O190    1.933   .     S
Cu166  O188    1.976   .     S
C193   O236    1.308   .     A
C193   C196    1.461   .     S
C193   O233    1.308   .     A
C194   C196    1.406   .     A
C194   F218    1.358   .     S
C195   C212    1.406   .     A
C195   C211    1.406   .     A
C195   C204    1.461   .     S
C196   C210    1.406   .     A
C197   C201    1.520   .     S
C197   N232    1.383   .     A
C198   C202    1.520   .     S
C198   N231    1.383   .     A
C198   C343    1.436   .     S
C199   N232    1.383   .     A
C199   C203    1.520   .     S
C200   N231    1.383   .     A
C200   C205    1.520   .     S
C200   C341    1.436   .     S
C201   H224    1.108   .     S
C201   H223    1.110   .     S
C201   H219    1.082   .     S
C202   H225    1.082   .     S
C202   H226    1.108   .     S
C202   H227    1.110   .     S
C203   H230    1.108   .     S
C203   H228    1.082   .     S
C203   H229    1.110   .     S
C204   O235    1.308   .     A
C204   O234    1.308   .     A
C205   H220    1.082   .     S
C205   H221    1.108   .     S
C205   H222    1.110   .     S
C206   C208    1.411   .     S
C206   O240    1.302   .     A
C206   O237    1.302   .     A
C207   O239    1.302   .     A
C207   C209    1.411   .     S
C207   O238    1.302   .     A
C208   C1073   1.192   1_554 S
C209   C640    1.192   .     S
C210   F215    1.358   .     S
C211   F216    1.358   .     S
C211   C242    1.383   .     S
C212   F217    1.358   .     S
C212   C258    1.383   .     S
Cu213  N231    2.047   .     S
Cu213  Cu214   2.725   .     S
Cu213  O237    1.933   .     S
Cu213  O233    1.976   .     S
Cu213  O235    1.976   .     S
Cu213  O239    1.933   .     S
Cu214  O240    1.933   .     S
Cu214  N232    2.047   .     S
Cu214  O234    1.976   .     S
Cu214  O238    1.933   .     S
Cu214  O236    1.976   .     S
C241   O284    1.308   .     A
C241   C244    1.461   .     S
C241   O281    1.308   .     A
C242   C244    1.406   .     A
C242   F266    1.358   .     S
C243   C260    1.406   .     A
C243   C259    1.406   .     A
C243   C252    1.461   .     S
C244   C258    1.406   .     A
C245   C249    1.520   .     S
C245   N280    1.383   .     A
C246   C250    1.520   .     S
C246   N279    1.383   .     A
C246   C391    1.436   .     S
C247   N280    1.383   .     A
C247   C251    1.520   .     S
C248   N279    1.383   .     A
C248   C253    1.520   .     S
C248   C389    1.436   .     S
C249   H272    1.108   .     S
C249   H271    1.110   .     S
C249   H267    1.082   .     S
C250   H273    1.082   .     S
C250   H274    1.108   .     S
C250   H275    1.110   .     S
C251   H278    1.108   .     S
C251   H276    1.082   .     S
C251   H277    1.110   .     S
C252   O283    1.308   .     A
C252   O282    1.308   .     A
C253   H268    1.082   .     S
C253   H269    1.108   .     S
C253   H270    1.110   .     S
C254   C256    1.411   .     S
C254   O288    1.302   .     A
C254   O285    1.302   .     A
C255   O287    1.302   .     A
C255   C257    1.411   .     S
C255   O286    1.302   .     A
C256   C1121   1.192   1_554 S
C257   C688    1.192   .     S
C258   F263    1.358   .     S
C259   F264    1.358   .     S
C259   C146    1.383   1_655 S
C260   F265    1.358   .     S
C260   C162    1.383   1_655 S
Cu261  N279    2.047   .     S
Cu261  Cu262   2.725   .     S
Cu261  O285    1.933   .     S
Cu261  O281    1.976   .     S
Cu261  O283    1.976   .     S
Cu261  O287    1.933   .     S
Cu262  O288    1.933   .     S
Cu262  N280    2.047   .     S
Cu262  O282    1.976   .     S
Cu262  O286    1.933   .     S
Cu262  O284    1.976   .     S
C289   O332    1.308   .     A
C289   C292    1.461   .     S
C289   O329    1.308   .     A
C290   C292    1.406   .     A
C290   F314    1.358   .     S
C290   C403    1.383   1_455 S
C291   C308    1.406   .     A
C291   C307    1.406   .     A
C291   C300    1.461   .     S
C292   C306    1.406   .     A
C293   C297    1.520   .     S
C293   N328    1.383   .     A
C294   C298    1.520   .     S
C294   N327    1.383   .     A
C294   C7      1.436   1_565 S
C295   N328    1.383   .     A
C295   C299    1.520   .     S
C296   N327    1.383   .     A
C296   C301    1.520   .     S
C296   C5      1.436   1_565 S
C297   H320    1.108   .     S
C297   H319    1.110   .     S
C297   H315    1.082   .     S
C298   H321    1.082   .     S
C298   H322    1.108   .     S
C298   H323    1.110   .     S
C299   H326    1.108   .     S
C299   H324    1.082   .     S
C299   H325    1.110   .     S
C300   O331    1.308   .     A
C300   O330    1.308   .     A
C301   H316    1.082   .     S
C301   H317    1.108   .     S
C301   H318    1.110   .     S
C302   C304    1.411   .     S
C302   O336    1.302   .     A
C302   O333    1.302   .     A
C303   O335    1.302   .     A
C303   C305    1.411   .     S
C303   O334    1.302   .     A
C304   C1169   1.192   1_554 S
C305   C736    1.192   .     S
C306   F311    1.358   .     S
C306   C404    1.383   1_455 S
C307   F312    1.358   .     S
C307   C338    1.383   .     S
C308   F313    1.358   .     S
C308   C354    1.383   .     S
Cu309  N327    2.047   .     S
Cu309  Cu310   2.725   .     S
Cu309  O333    1.933   .     S
Cu309  O329    1.976   .     S
Cu309  O331    1.976   .     S
Cu309  O335    1.933   .     S
Cu310  O336    1.933   .     S
Cu310  N328    2.047   .     S
Cu310  O330    1.976   .     S
Cu310  O334    1.933   .     S
Cu310  O332    1.976   .     S
C337   O380    1.308   .     A
C337   C340    1.461   .     S
C337   O377    1.308   .     A
C338   C340    1.406   .     A
C338   F362    1.358   .     S
C339   C356    1.406   .     A
C339   C355    1.406   .     A
C339   C348    1.461   .     S
C340   C354    1.406   .     A
C341   C345    1.520   .     S
C341   N376    1.383   .     A
C342   C346    1.520   .     S
C342   N375    1.383   .     A
C342   C55     1.436   1_565 S
C343   N376    1.383   .     A
C343   C347    1.520   .     S
C344   N375    1.383   .     A
C344   C349    1.520   .     S
C344   C53     1.436   1_565 S
C345   H368    1.108   .     S
C345   H367    1.110   .     S
C345   H363    1.082   .     S
C346   H369    1.082   .     S
C346   H370    1.108   .     S
C346   H371    1.110   .     S
C347   H374    1.108   .     S
C347   H372    1.082   .     S
C347   H373    1.110   .     S
C348   O379    1.308   .     A
C348   O378    1.308   .     A
C349   H364    1.082   .     S
C349   H365    1.108   .     S
C349   H366    1.110   .     S
C350   C352    1.411   .     S
C350   O384    1.302   .     A
C350   O381    1.302   .     A
C351   O383    1.302   .     A
C351   C353    1.411   .     S
C351   O382    1.302   .     A
C352   C1217   1.192   1_554 S
C353   C784    1.192   .     S
C354   F359    1.358   .     S
C355   F360    1.358   .     S
C355   C386    1.383   .     S
C356   F361    1.358   .     S
C356   C402    1.383   .     S
Cu357  N375    2.047   .     S
Cu357  Cu358   2.725   .     S
Cu357  O381    1.933   .     S
Cu357  O377    1.976   .     S
Cu357  O379    1.976   .     S
Cu357  O383    1.933   .     S
Cu358  O384    1.933   .     S
Cu358  N376    2.047   .     S
Cu358  O378    1.976   .     S
Cu358  O382    1.933   .     S
Cu358  O380    1.976   .     S
C385   O428    1.308   .     A
C385   C388    1.461   .     S
C385   O425    1.308   .     A
C386   C388    1.406   .     A
C386   F410    1.358   .     S
C387   C404    1.406   .     A
C387   C403    1.406   .     A
C387   C396    1.461   .     S
C388   C402    1.406   .     A
C389   C393    1.520   .     S
C389   N424    1.383   .     A
C390   C394    1.520   .     S
C390   N423    1.383   .     A
C390   C103    1.436   1_565 S
C391   N424    1.383   .     A
C391   C395    1.520   .     S
C392   N423    1.383   .     A
C392   C397    1.520   .     S
C392   C101    1.436   1_565 S
C393   H416    1.108   .     S
C393   H415    1.110   .     S
C393   H411    1.082   .     S
C394   H417    1.082   .     S
C394   H418    1.108   .     S
C394   H419    1.110   .     S
C395   H422    1.108   .     S
C395   H420    1.082   .     S
C395   H421    1.110   .     S
C396   O427    1.308   .     A
C396   O426    1.308   .     A
C397   H412    1.082   .     S
C397   H413    1.108   .     S
C397   H414    1.110   .     S
C398   C400    1.411   .     S
C398   O432    1.302   .     A
C398   O429    1.302   .     A
C399   O431    1.302   .     A
C399   C401    1.411   .     S
C399   O430    1.302   .     A
C400   C1265   1.192   1_554 S
C401   C832    1.192   .     S
C402   F407    1.358   .     S
C403   F408    1.358   .     S
C403   C290    1.383   1_655 S
C404   F409    1.358   .     S
C404   C306    1.383   1_655 S
Cu405  N423    2.047   .     S
Cu405  Cu406   2.725   .     S
Cu405  O429    1.933   .     S
Cu405  O425    1.976   .     S
Cu405  O427    1.976   .     S
Cu405  O431    1.933   .     S
Cu406  O432    1.933   .     S
Cu406  N424    2.047   .     S
Cu406  O426    1.976   .     S
Cu406  O430    1.933   .     S
Cu406  O428    1.976   .     S
C433   O476    1.308   .     A
C433   C436    1.461   .     S
C433   O473    1.308   .     A
C434   C436    1.406   .     A
C434   F458    1.358   .     S
C434   C547    1.383   1_455 S
C435   C452    1.406   .     A
C435   C451    1.406   .     A
C435   C444    1.461   .     S
C436   C450    1.406   .     A
C437   C441    1.520   .     S
C437   N472    1.383   .     A
C437   C728    1.436   1_545 S
C438   C442    1.520   .     S
C438   N471    1.383   .     A
C438   C583    1.436   .     S
C439   N472    1.383   .     A
C439   C443    1.520   .     S
C439   C726    1.436   1_545 S
C440   N471    1.383   .     A
C440   C445    1.520   .     S
C440   C581    1.436   .     S
C441   H464    1.108   .     S
C441   H463    1.110   .     S
C441   H459    1.082   .     S
C442   H465    1.082   .     S
C442   H466    1.108   .     S
C442   H467    1.110   .     S
C443   H470    1.108   .     S
C443   H468    1.082   .     S
C443   H469    1.110   .     S
C444   O475    1.308   .     A
C444   O474    1.308   .     A
C445   H460    1.082   .     S
C445   H461    1.108   .     S
C445   H462    1.110   .     S
C446   C448    1.411   .     S
C446   O480    1.302   .     A
C446   O477    1.302   .     A
C447   O479    1.302   .     A
C447   C449    1.411   .     S
C447   O478    1.302   .     A
C449   C880    1.192   .     S
C450   F455    1.358   .     S
C450   C548    1.383   1_455 S
C451   F456    1.358   .     S
C451   C482    1.383   .     S
C452   F457    1.358   .     S
C452   C498    1.383   .     S
Cu453  N471    2.047   .     S
Cu453  Cu454   2.725   .     S
Cu453  O477    1.933   .     S
Cu453  O473    1.976   .     S
Cu453  O475    1.976   .     S
Cu453  O479    1.933   .     S
Cu454  O480    1.933   .     S
Cu454  N472    2.047   .     S
Cu454  O474    1.976   .     S
Cu454  O478    1.933   .     S
Cu454  O476    1.976   .     S
C481   O524    1.308   .     A
C481   C484    1.461   .     S
C481   O521    1.308   .     A
C482   C484    1.406   .     A
C482   F506    1.358   .     S
C483   C500    1.406   .     A
C483   C499    1.406   .     A
C483   C492    1.461   .     S
C484   C498    1.406   .     A
C485   C489    1.520   .     S
C485   N520    1.383   .     A
C485   C776    1.436   1_545 S
C486   C490    1.520   .     S
C486   N519    1.383   .     A
C486   C631    1.436   .     S
C487   N520    1.383   .     A
C487   C491    1.520   .     S
C487   C774    1.436   1_545 S
C488   N519    1.383   .     A
C488   C493    1.520   .     S
C488   C629    1.436   .     S
C489   H512    1.108   .     S
C489   H511    1.110   .     S
C489   H507    1.082   .     S
C490   H513    1.082   .     S
C490   H514    1.108   .     S
C490   H515    1.110   .     S
C491   H518    1.108   .     S
C491   H516    1.082   .     S
C491   H517    1.110   .     S
C492   O523    1.308   .     A
C492   O522    1.308   .     A
C493   H508    1.082   .     S
C493   H509    1.108   .     S
C493   H510    1.110   .     S
C494   C496    1.411   .     S
C494   O528    1.302   .     A
C494   O525    1.302   .     A
C495   O527    1.302   .     A
C495   C497    1.411   .     S
C495   O526    1.302   .     A
C497   C928    1.192   .     S
C498   F503    1.358   .     S
C499   F504    1.358   .     S
C499   C530    1.383   .     S
C500   F505    1.358   .     S
C500   C546    1.383   .     S
Cu501  N519    2.047   .     S
Cu501  Cu502   2.725   .     S
Cu501  O525    1.933   .     S
Cu501  O521    1.976   .     S
Cu501  O523    1.976   .     S
Cu501  O527    1.933   .     S
Cu502  O528    1.933   .     S
Cu502  N520    2.047   .     S
Cu502  O522    1.976   .     S
Cu502  O526    1.933   .     S
Cu502  O524    1.976   .     S
C529   O572    1.308   .     A
C529   C532    1.461   .     S
C529   O569    1.308   .     A
C530   C532    1.406   .     A
C530   F554    1.358   .     S
C531   C548    1.406   .     A
C531   C547    1.406   .     A
C531   C540    1.461   .     S
C532   C546    1.406   .     A
C533   C537    1.520   .     S
C533   N568    1.383   .     A
C533   C824    1.436   1_545 S
C534   C538    1.520   .     S
C534   N567    1.383   .     A
C534   C679    1.436   .     S
C535   N568    1.383   .     A
C535   C539    1.520   .     S
C535   C822    1.436   1_545 S
C536   N567    1.383   .     A
C536   C541    1.520   .     S
C536   C677    1.436   .     S
C537   H560    1.108   .     S
C537   H559    1.110   .     S
C537   H555    1.082   .     S
C538   H561    1.082   .     S
C538   H562    1.108   .     S
C538   H563    1.110   .     S
C539   H566    1.108   .     S
C539   H564    1.082   .     S
C539   H565    1.110   .     S
C540   O571    1.308   .     A
C540   O570    1.308   .     A
C541   H556    1.082   .     S
C541   H557    1.108   .     S
C541   H558    1.110   .     S
C542   C544    1.411   .     S
C542   O576    1.302   .     A
C542   O573    1.302   .     A
C543   O575    1.302   .     A
C543   C545    1.411   .     S
C543   O574    1.302   .     A
C545   C976    1.192   .     S
C546   F551    1.358   .     S
C547   F552    1.358   .     S
C547   C434    1.383   1_655 S
C548   F553    1.358   .     S
C548   C450    1.383   1_655 S
Cu549  N567    2.047   .     S
Cu549  Cu550   2.725   .     S
Cu549  O573    1.933   .     S
Cu549  O569    1.976   .     S
Cu549  O571    1.976   .     S
Cu549  O575    1.933   .     S
Cu550  O576    1.933   .     S
Cu550  N568    2.047   .     S
Cu550  O570    1.976   .     S
Cu550  O574    1.933   .     S
Cu550  O572    1.976   .     S
C577   O620    1.308   .     A
C577   C580    1.461   .     S
C577   O617    1.308   .     A
C578   C580    1.406   .     A
C578   F602    1.358   .     S
C578   C691    1.383   1_455 S
C579   C596    1.406   .     A
C579   C595    1.406   .     A
C579   C588    1.461   .     S
C580   C594    1.406   .     A
C581   C585    1.520   .     S
C581   N616    1.383   .     A
C582   C586    1.520   .     S
C582   N615    1.383   .     A
C582   C727    1.436   .     S
C583   N616    1.383   .     A
C583   C587    1.520   .     S
C584   N615    1.383   .     A
C584   C589    1.520   .     S
C584   C725    1.436   .     S
C585   H608    1.108   .     S
C585   H607    1.110   .     S
C585   H603    1.082   .     S
C586   H609    1.082   .     S
C586   H610    1.108   .     S
C586   H611    1.110   .     S
C587   H614    1.108   .     S
C587   H612    1.082   .     S
C587   H613    1.110   .     S
C588   O619    1.308   .     A
C588   O618    1.308   .     A
C589   H604    1.082   .     S
C589   H605    1.108   .     S
C589   H606    1.110   .     S
C590   C592    1.411   .     S
C590   O624    1.302   .     A
C590   O621    1.302   .     A
C591   O623    1.302   .     A
C591   C593    1.411   .     S
C591   O622    1.302   .     A
C593   C1024   1.192   .     S
C594   F599    1.358   .     S
C594   C692    1.383   1_455 S
C595   F600    1.358   .     S
C595   C626    1.383   .     S
C596   F601    1.358   .     S
C596   C642    1.383   .     S
Cu597  N615    2.047   .     S
Cu597  Cu598   2.725   .     S
Cu597  O621    1.933   .     S
Cu597  O617    1.976   .     S
Cu597  O619    1.976   .     S
Cu597  O623    1.933   .     S
Cu598  O624    1.933   .     S
Cu598  N616    2.047   .     S
Cu598  O618    1.976   .     S
Cu598  O622    1.933   .     S
Cu598  O620    1.976   .     S
C625   O668    1.308   .     A
C625   C628    1.461   .     S
C625   O665    1.308   .     A
C626   C628    1.406   .     A
C626   F650    1.358   .     S
C627   C644    1.406   .     A
C627   C643    1.406   .     A
C627   C636    1.461   .     S
C628   C642    1.406   .     A
C629   C633    1.520   .     S
C629   N664    1.383   .     A
C630   C634    1.520   .     S
C630   N663    1.383   .     A
C630   C775    1.436   .     S
C631   N664    1.383   .     A
C631   C635    1.520   .     S
C632   N663    1.383   .     A
C632   C637    1.520   .     S
C632   C773    1.436   .     S
C633   H656    1.108   .     S
C633   H655    1.110   .     S
C633   H651    1.082   .     S
C634   H657    1.082   .     S
C634   H658    1.108   .     S
C634   H659    1.110   .     S
C635   H662    1.108   .     S
C635   H660    1.082   .     S
C635   H661    1.110   .     S
C636   O667    1.308   .     A
C636   O666    1.308   .     A
C637   H652    1.082   .     S
C637   H653    1.108   .     S
C637   H654    1.110   .     S
C638   C640    1.411   .     S
C638   O672    1.302   .     A
C638   O669    1.302   .     A
C639   O671    1.302   .     A
C639   C641    1.411   .     S
C639   O670    1.302   .     A
C641   C1072   1.192   .     S
C642   F647    1.358   .     S
C643   F648    1.358   .     S
C643   C674    1.383   .     S
C644   F649    1.358   .     S
C644   C690    1.383   .     S
Cu645  N663    2.047   .     S
Cu645  Cu646   2.725   .     S
Cu645  O669    1.933   .     S
Cu645  O665    1.976   .     S
Cu645  O667    1.976   .     S
Cu645  O671    1.933   .     S
Cu646  O672    1.933   .     S
Cu646  N664    2.047   .     S
Cu646  O666    1.976   .     S
Cu646  O670    1.933   .     S
Cu646  O668    1.976   .     S
C673   O716    1.308   .     A
C673   C676    1.461   .     S
C673   O713    1.308   .     A
C674   C676    1.406   .     A
C674   F698    1.358   .     S
C675   C692    1.406   .     A
C675   C691    1.406   .     A
C675   C684    1.461   .     S
C676   C690    1.406   .     A
C677   C681    1.520   .     S
C677   N712    1.383   .     A
C678   C682    1.520   .     S
C678   N711    1.383   .     A
C678   C823    1.436   .     S
C679   N712    1.383   .     A
C679   C683    1.520   .     S
C680   N711    1.383   .     A
C680   C685    1.520   .     S
C680   C821    1.436   .     S
C681   H704    1.108   .     S
C681   H703    1.110   .     S
C681   H699    1.082   .     S
C682   H705    1.082   .     S
C682   H706    1.108   .     S
C682   H707    1.110   .     S
C683   H710    1.108   .     S
C683   H708    1.082   .     S
C683   H709    1.110   .     S
C684   O715    1.308   .     A
C684   O714    1.308   .     A
C685   H700    1.082   .     S
C685   H701    1.108   .     S
C685   H702    1.110   .     S
C686   C688    1.411   .     S
C686   O720    1.302   .     A
C686   O717    1.302   .     A
C687   O719    1.302   .     A
C687   C689    1.411   .     S
C687   O718    1.302   .     A
C689   C1120   1.192   .     S
C690   F695    1.358   .     S
C691   F696    1.358   .     S
C691   C578    1.383   1_655 S
C692   F697    1.358   .     S
C692   C594    1.383   1_655 S
Cu693  N711    2.047   .     S
Cu693  Cu694   2.725   .     S
Cu693  O717    1.933   .     S
Cu693  O713    1.976   .     S
Cu693  O715    1.976   .     S
Cu693  O719    1.933   .     S
Cu694  O720    1.933   .     S
Cu694  N712    2.047   .     S
Cu694  O714    1.976   .     S
Cu694  O718    1.933   .     S
Cu694  O716    1.976   .     S
C721   O764    1.308   .     A
C721   C724    1.461   .     S
C721   O761    1.308   .     A
C722   C724    1.406   .     A
C722   F746    1.358   .     S
C722   C835    1.383   1_455 S
C723   C740    1.406   .     A
C723   C739    1.406   .     A
C723   C732    1.461   .     S
C724   C738    1.406   .     A
C725   C729    1.520   .     S
C725   N760    1.383   .     A
C726   C730    1.520   .     S
C726   N759    1.383   .     A
C726   C439    1.436   1_565 S
C727   N760    1.383   .     A
C727   C731    1.520   .     S
C728   N759    1.383   .     A
C728   C733    1.520   .     S
C728   C437    1.436   1_565 S
C729   H752    1.108   .     S
C729   H751    1.110   .     S
C729   H747    1.082   .     S
C730   H753    1.082   .     S
C730   H754    1.108   .     S
C730   H755    1.110   .     S
C731   H758    1.108   .     S
C731   H756    1.082   .     S
C731   H757    1.110   .     S
C732   O763    1.308   .     A
C732   O762    1.308   .     A
C733   H748    1.082   .     S
C733   H749    1.108   .     S
C733   H750    1.110   .     S
C734   C736    1.411   .     S
C734   O768    1.302   .     A
C734   O765    1.302   .     A
C735   O767    1.302   .     A
C735   C737    1.411   .     S
C735   O766    1.302   .     A
C737   C1168   1.192   .     S
C738   F743    1.358   .     S
C738   C836    1.383   1_455 S
C739   F744    1.358   .     S
C739   C770    1.383   .     S
C740   F745    1.358   .     S
C740   C786    1.383   .     S
Cu741  N759    2.047   .     S
Cu741  Cu742   2.725   .     S
Cu741  O765    1.933   .     S
Cu741  O761    1.976   .     S
Cu741  O763    1.976   .     S
Cu741  O767    1.933   .     S
Cu742  O768    1.933   .     S
Cu742  N760    2.047   .     S
Cu742  O762    1.976   .     S
Cu742  O766    1.933   .     S
Cu742  O764    1.976   .     S
C769   O812    1.308   .     A
C769   C772    1.461   .     S
C769   O809    1.308   .     A
C770   C772    1.406   .     A
C770   F794    1.358   .     S
C771   C788    1.406   .     A
C771   C787    1.406   .     A
C771   C780    1.461   .     S
C772   C786    1.406   .     A
C773   C777    1.520   .     S
C773   N808    1.383   .     A
C774   C778    1.520   .     S
C774   N807    1.383   .     A
C774   C487    1.436   1_565 S
C775   N808    1.383   .     A
C775   C779    1.520   .     S
C776   N807    1.383   .     A
C776   C781    1.520   .     S
C776   C485    1.436   1_565 S
C777   H800    1.108   .     S
C777   H799    1.110   .     S
C777   H795    1.082   .     S
C778   H801    1.082   .     S
C778   H802    1.108   .     S
C778   H803    1.110   .     S
C779   H806    1.108   .     S
C779   H804    1.082   .     S
C779   H805    1.110   .     S
C780   O811    1.308   .     A
C780   O810    1.308   .     A
C781   H796    1.082   .     S
C781   H797    1.108   .     S
C781   H798    1.110   .     S
C782   C784    1.411   .     S
C782   O816    1.302   .     A
C782   O813    1.302   .     A
C783   O815    1.302   .     A
C783   C785    1.411   .     S
C783   O814    1.302   .     A
C785   C1216   1.192   .     S
C786   F791    1.358   .     S
C787   F792    1.358   .     S
C787   C818    1.383   .     S
C788   F793    1.358   .     S
C788   C834    1.383   .     S
Cu789  N807    2.047   .     S
Cu789  Cu790   2.725   .     S
Cu789  O813    1.933   .     S
Cu789  O809    1.976   .     S
Cu789  O811    1.976   .     S
Cu789  O815    1.933   .     S
Cu790  O816    1.933   .     S
Cu790  N808    2.047   .     S
Cu790  O810    1.976   .     S
Cu790  O814    1.933   .     S
Cu790  O812    1.976   .     S
C817   O860    1.308   .     A
C817   C820    1.461   .     S
C817   O857    1.308   .     A
C818   C820    1.406   .     A
C818   F842    1.358   .     S
C819   C836    1.406   .     A
C819   C835    1.406   .     A
C819   C828    1.461   .     S
C820   C834    1.406   .     A
C821   C825    1.520   .     S
C821   N856    1.383   .     A
C822   C826    1.520   .     S
C822   N855    1.383   .     A
C822   C535    1.436   1_565 S
C823   N856    1.383   .     A
C823   C827    1.520   .     S
C824   N855    1.383   .     A
C824   C829    1.520   .     S
C824   C533    1.436   1_565 S
C825   H848    1.108   .     S
C825   H847    1.110   .     S
C825   H843    1.082   .     S
C826   H849    1.082   .     S
C826   H850    1.108   .     S
C826   H851    1.110   .     S
C827   H854    1.108   .     S
C827   H852    1.082   .     S
C827   H853    1.110   .     S
C828   O859    1.308   .     A
C828   O858    1.308   .     A
C829   H844    1.082   .     S
C829   H845    1.108   .     S
C829   H846    1.110   .     S
C830   C832    1.411   .     S
C830   O864    1.302   .     A
C830   O861    1.302   .     A
C831   O863    1.302   .     A
C831   C833    1.411   .     S
C831   O862    1.302   .     A
C833   C1264   1.192   .     S
C834   F839    1.358   .     S
C835   F840    1.358   .     S
C835   C722    1.383   1_655 S
C836   F841    1.358   .     S
C836   C738    1.383   1_655 S
Cu837  N855    2.047   .     S
Cu837  Cu838   2.725   .     S
Cu837  O861    1.933   .     S
Cu837  O857    1.976   .     S
Cu837  O859    1.976   .     S
Cu837  O863    1.933   .     S
Cu838  O864    1.933   .     S
Cu838  N856    2.047   .     S
Cu838  O858    1.976   .     S
Cu838  O862    1.933   .     S
Cu838  O860    1.976   .     S
C865   O908    1.308   .     A
C865   C868    1.461   .     S
C865   O905    1.308   .     A
C866   C868    1.406   .     A
C866   F890    1.358   .     S
C866   C979    1.383   1_455 S
C867   C884    1.406   .     A
C867   C883    1.406   .     A
C867   C876    1.461   .     S
C868   C882    1.406   .     A
C869   C873    1.520   .     S
C869   N904    1.383   .     A
C869   C1160   1.436   1_545 S
C870   C874    1.520   .     S
C870   N903    1.383   .     A
C870   C1015   1.436   .     S
C871   N904    1.383   .     A
C871   C875    1.520   .     S
C871   C1158   1.436   1_545 S
C872   N903    1.383   .     A
C872   C877    1.520   .     S
C872   C1013   1.436   .     S
C873   H896    1.108   .     S
C873   H895    1.110   .     S
C873   H891    1.082   .     S
C874   H897    1.082   .     S
C874   H898    1.108   .     S
C874   H899    1.110   .     S
C875   H902    1.108   .     S
C875   H900    1.082   .     S
C875   H901    1.110   .     S
C876   O907    1.308   .     A
C876   O906    1.308   .     A
C877   H892    1.082   .     S
C877   H893    1.108   .     S
C877   H894    1.110   .     S
C878   C880    1.411   .     S
C878   O912    1.302   .     A
C878   O909    1.302   .     A
C879   O911    1.302   .     A
C879   C881    1.411   .     S
C879   O910    1.302   .     A
C881   C16     1.192   1_556 S
C882   F887    1.358   .     S
C882   C980    1.383   1_455 S
C883   F888    1.358   .     S
C883   C914    1.383   .     S
C884   F889    1.358   .     S
C884   C930    1.383   .     S
Cu885  N903    2.047   .     S
Cu885  Cu886   2.725   .     S
Cu885  O909    1.933   .     S
Cu885  O905    1.976   .     S
Cu885  O907    1.976   .     S
Cu885  O911    1.933   .     S
Cu886  O912    1.933   .     S
Cu886  N904    2.047   .     S
Cu886  O906    1.976   .     S
Cu886  O910    1.933   .     S
Cu886  O908    1.976   .     S
C913   O956    1.308   .     A
C913   C916    1.461   .     S
C913   O953    1.308   .     A
C914   C916    1.406   .     A
C914   F938    1.358   .     S
C915   C932    1.406   .     A
C915   C931    1.406   .     A
C915   C924    1.461   .     S
C916   C930    1.406   .     A
C917   C921    1.520   .     S
C917   N952    1.383   .     A
C917   C1208   1.436   1_545 S
C918   C922    1.520   .     S
C918   N951    1.383   .     A
C918   C1063   1.436   .     S
C919   N952    1.383   .     A
C919   C923    1.520   .     S
C919   C1206   1.436   1_545 S
C920   N951    1.383   .     A
C920   C925    1.520   .     S
C920   C1061   1.436   .     S
C921   H944    1.108   .     S
C921   H943    1.110   .     S
C921   H939    1.082   .     S
C922   H945    1.082   .     S
C922   H946    1.108   .     S
C922   H947    1.110   .     S
C923   H950    1.108   .     S
C923   H948    1.082   .     S
C923   H949    1.110   .     S
C924   O955    1.308   .     A
C924   O954    1.308   .     A
C925   H940    1.082   .     S
C925   H941    1.108   .     S
C925   H942    1.110   .     S
C926   C928    1.411   .     S
C926   O960    1.302   .     A
C926   O957    1.302   .     A
C927   O959    1.302   .     A
C927   C929    1.411   .     S
C927   O958    1.302   .     A
C929   C64     1.192   1_556 S
C930   F935    1.358   .     S
C931   F936    1.358   .     S
C931   C962    1.383   .     S
C932   F937    1.358   .     S
C932   C978    1.383   .     S
Cu933  N951    2.047   .     S
Cu933  Cu934   2.725   .     S
Cu933  O957    1.933   .     S
Cu933  O953    1.976   .     S
Cu933  O955    1.976   .     S
Cu933  O959    1.933   .     S
Cu934  O960    1.933   .     S
Cu934  N952    2.047   .     S
Cu934  O954    1.976   .     S
Cu934  O958    1.933   .     S
Cu934  O956    1.976   .     S
C961   O1004   1.308   .     A
C961   C964    1.461   .     S
C961   O1001   1.308   .     A
C962   C964    1.406   .     A
C962   F986    1.358   .     S
C963   C980    1.406   .     A
C963   C979    1.406   .     A
C963   C972    1.461   .     S
C964   C978    1.406   .     A
C965   C969    1.520   .     S
C965   N1000   1.383   .     A
C965   C1256   1.436   1_545 S
C966   C970    1.520   .     S
C966   N999    1.383   .     A
C966   C1111   1.436   .     S
C967   N1000   1.383   .     A
C967   C971    1.520   .     S
C967   C1254   1.436   1_545 S
C968   N999    1.383   .     A
C968   C973    1.520   .     S
C968   C1109   1.436   .     S
C969   H992    1.108   .     S
C969   H991    1.110   .     S
C969   H987    1.082   .     S
C970   H993    1.082   .     S
C970   H994    1.108   .     S
C970   H995    1.110   .     S
C971   H998    1.108   .     S
C971   H996    1.082   .     S
C971   H997    1.110   .     S
C972   O1003   1.308   .     A
C972   O1002   1.308   .     A
C973   H988    1.082   .     S
C973   H989    1.108   .     S
C973   H990    1.110   .     S
C974   C976    1.411   .     S
C974   O1008   1.302   .     A
C974   O1005   1.302   .     A
C975   O1007   1.302   .     A
C975   C977    1.411   .     S
C975   O1006   1.302   .     A
C977   C112    1.192   1_556 S
C978   F983    1.358   .     S
C979   F984    1.358   .     S
C979   C866    1.383   1_655 S
C980   F985    1.358   .     S
C980   C882    1.383   1_655 S
Cu981  N999    2.047   .     S
Cu981  Cu982   2.725   .     S
Cu981  O1005   1.933   .     S
Cu981  O1001   1.976   .     S
Cu981  O1003   1.976   .     S
Cu981  O1007   1.933   .     S
Cu982  O1008   1.933   .     S
Cu982  N1000   2.047   .     S
Cu982  O1002   1.976   .     S
Cu982  O1006   1.933   .     S
Cu982  O1004   1.976   .     S
C1009  O1052   1.308   .     A
C1009  C1012   1.461   .     S
C1009  O1049   1.308   .     A
C1010  C1012   1.406   .     A
C1010  F1034   1.358   .     S
C1010  C1123   1.383   1_455 S
C1011  C1028   1.406   .     A
C1011  C1027   1.406   .     A
C1011  C1020   1.461   .     S
C1012  C1026   1.406   .     A
C1013  C1017   1.520   .     S
C1013  N1048   1.383   .     A
C1014  C1018   1.520   .     S
C1014  N1047   1.383   .     A
C1014  C1159   1.436   .     S
C1015  N1048   1.383   .     A
C1015  C1019   1.520   .     S
C1016  N1047   1.383   .     A
C1016  C1021   1.520   .     S
C1016  C1157   1.436   .     S
C1017  H1040   1.108   .     S
C1017  H1039   1.110   .     S
C1017  H1035   1.082   .     S
C1018  H1041   1.082   .     S
C1018  H1042   1.108   .     S
C1018  H1043   1.110   .     S
C1019  H1046   1.108   .     S
C1019  H1044   1.082   .     S
C1019  H1045   1.110   .     S
C1020  O1051   1.308   .     A
C1020  O1050   1.308   .     A
C1021  H1036   1.082   .     S
C1021  H1037   1.108   .     S
C1021  H1038   1.110   .     S
C1022  C1024   1.411   .     S
C1022  O1056   1.302   .     A
C1022  O1053   1.302   .     A
C1023  O1055   1.302   .     A
C1023  C1025   1.411   .     S
C1023  O1054   1.302   .     A
C1025  C160    1.192   1_556 S
C1026  F1031   1.358   .     S
C1026  C1124   1.383   1_455 S
C1027  F1032   1.358   .     S
C1027  C1058   1.383   .     S
C1028  F1033   1.358   .     S
C1028  C1074   1.383   .     S
Cu1029 N1047   2.047   .     S
Cu1029 Cu1030  2.725   .     S
Cu1029 O1053   1.933   .     S
Cu1029 O1049   1.976   .     S
Cu1029 O1051   1.976   .     S
Cu1029 O1055   1.933   .     S
Cu1030 O1056   1.933   .     S
Cu1030 N1048   2.047   .     S
Cu1030 O1050   1.976   .     S
Cu1030 O1054   1.933   .     S
Cu1030 O1052   1.976   .     S
C1057  O1100   1.308   .     A
C1057  C1060   1.461   .     S
C1057  O1097   1.308   .     A
C1058  C1060   1.406   .     A
C1058  F1082   1.358   .     S
C1059  C1076   1.406   .     A
C1059  C1075   1.406   .     A
C1059  C1068   1.461   .     S
C1060  C1074   1.406   .     A
C1061  C1065   1.520   .     S
C1061  N1096   1.383   .     A
C1062  C1066   1.520   .     S
C1062  N1095   1.383   .     A
C1062  C1207   1.436   .     S
C1063  N1096   1.383   .     A
C1063  C1067   1.520   .     S
C1064  N1095   1.383   .     A
C1064  C1069   1.520   .     S
C1064  C1205   1.436   .     S
C1065  H1088   1.108   .     S
C1065  H1087   1.110   .     S
C1065  H1083   1.082   .     S
C1066  H1089   1.082   .     S
C1066  H1090   1.108   .     S
C1066  H1091   1.110   .     S
C1067  H1094   1.108   .     S
C1067  H1092   1.082   .     S
C1067  H1093   1.110   .     S
C1068  O1099   1.308   .     A
C1068  O1098   1.308   .     A
C1069  H1084   1.082   .     S
C1069  H1085   1.108   .     S
C1069  H1086   1.110   .     S
C1070  C1072   1.411   .     S
C1070  O1104   1.302   .     A
C1070  O1101   1.302   .     A
C1071  O1103   1.302   .     A
C1071  C1073   1.411   .     S
C1071  O1102   1.302   .     A
C1073  C208    1.192   1_556 S
C1074  F1079   1.358   .     S
C1075  F1080   1.358   .     S
C1075  C1106   1.383   .     S
C1076  F1081   1.358   .     S
C1076  C1122   1.383   .     S
Cu1077 N1095   2.047   .     S
Cu1077 Cu1078  2.725   .     S
Cu1077 O1101   1.933   .     S
Cu1077 O1097   1.976   .     S
Cu1077 O1099   1.976   .     S
Cu1077 O1103   1.933   .     S
Cu1078 O1104   1.933   .     S
Cu1078 N1096   2.047   .     S
Cu1078 O1098   1.976   .     S
Cu1078 O1102   1.933   .     S
Cu1078 O1100   1.976   .     S
C1105  O1148   1.308   .     A
C1105  C1108   1.461   .     S
C1105  O1145   1.308   .     A
C1106  C1108   1.406   .     A
C1106  F1130   1.358   .     S
C1107  C1124   1.406   .     A
C1107  C1123   1.406   .     A
C1107  C1116   1.461   .     S
C1108  C1122   1.406   .     A
C1109  C1113   1.520   .     S
C1109  N1144   1.383   .     A
C1110  C1114   1.520   .     S
C1110  N1143   1.383   .     A
C1110  C1255   1.436   .     S
C1111  N1144   1.383   .     A
C1111  C1115   1.520   .     S
C1112  N1143   1.383   .     A
C1112  C1117   1.520   .     S
C1112  C1253   1.436   .     S
C1113  H1136   1.108   .     S
C1113  H1135   1.110   .     S
C1113  H1131   1.082   .     S
C1114  H1137   1.082   .     S
C1114  H1138   1.108   .     S
C1114  H1139   1.110   .     S
C1115  H1142   1.108   .     S
C1115  H1140   1.082   .     S
C1115  H1141   1.110   .     S
C1116  O1147   1.308   .     A
C1116  O1146   1.308   .     A
C1117  H1132   1.082   .     S
C1117  H1133   1.108   .     S
C1117  H1134   1.110   .     S
C1118  C1120   1.411   .     S
C1118  O1152   1.302   .     A
C1118  O1149   1.302   .     A
C1119  O1151   1.302   .     A
C1119  C1121   1.411   .     S
C1119  O1150   1.302   .     A
C1121  C256    1.192   1_556 S
C1122  F1127   1.358   .     S
C1123  F1128   1.358   .     S
C1123  C1010   1.383   1_655 S
C1124  F1129   1.358   .     S
C1124  C1026   1.383   1_655 S
Cu1125 N1143   2.047   .     S
Cu1125 Cu1126  2.725   .     S
Cu1125 O1149   1.933   .     S
Cu1125 O1145   1.976   .     S
Cu1125 O1147   1.976   .     S
Cu1125 O1151   1.933   .     S
Cu1126 O1152   1.933   .     S
Cu1126 N1144   2.047   .     S
Cu1126 O1146   1.976   .     S
Cu1126 O1150   1.933   .     S
Cu1126 O1148   1.976   .     S
C1153  O1196   1.308   .     A
C1153  C1156   1.461   .     S
C1153  O1193   1.308   .     A
C1154  C1156   1.406   .     A
C1154  F1178   1.358   .     S
C1154  C1267   1.383   1_455 S
C1155  C1172   1.406   .     A
C1155  C1171   1.406   .     A
C1155  C1164   1.461   .     S
C1156  C1170   1.406   .     A
C1157  C1161   1.520   .     S
C1157  N1192   1.383   .     A
C1158  C1162   1.520   .     S
C1158  N1191   1.383   .     A
C1158  C871    1.436   1_565 S
C1159  N1192   1.383   .     A
C1159  C1163   1.520   .     S
C1160  N1191   1.383   .     A
C1160  C1165   1.520   .     S
C1160  C869    1.436   1_565 S
C1161  H1184   1.108   .     S
C1161  H1183   1.110   .     S
C1161  H1179   1.082   .     S
C1162  H1185   1.082   .     S
C1162  H1186   1.108   .     S
C1162  H1187   1.110   .     S
C1163  H1190   1.108   .     S
C1163  H1188   1.082   .     S
C1163  H1189   1.110   .     S
C1164  O1195   1.308   .     A
C1164  O1194   1.308   .     A
C1165  H1180   1.082   .     S
C1165  H1181   1.108   .     S
C1165  H1182   1.110   .     S
C1166  C1168   1.411   .     S
C1166  O1200   1.302   .     A
C1166  O1197   1.302   .     A
C1167  O1199   1.302   .     A
C1167  C1169   1.411   .     S
C1167  O1198   1.302   .     A
C1169  C304    1.192   1_556 S
C1170  F1175   1.358   .     S
C1170  C1268   1.383   1_455 S
C1171  F1176   1.358   .     S
C1171  C1202   1.383   .     S
C1172  F1177   1.358   .     S
C1172  C1218   1.383   .     S
Cu1173 N1191   2.047   .     S
Cu1173 Cu1174  2.725   .     S
Cu1173 O1197   1.933   .     S
Cu1173 O1193   1.976   .     S
Cu1173 O1195   1.976   .     S
Cu1173 O1199   1.933   .     S
Cu1174 O1200   1.933   .     S
Cu1174 N1192   2.047   .     S
Cu1174 O1194   1.976   .     S
Cu1174 O1198   1.933   .     S
Cu1174 O1196   1.976   .     S
C1201  O1244   1.308   .     A
C1201  C1204   1.461   .     S
C1201  O1241   1.308   .     A
C1202  C1204   1.406   .     A
C1202  F1226   1.358   .     S
C1203  C1220   1.406   .     A
C1203  C1219   1.406   .     A
C1203  C1212   1.461   .     S
C1204  C1218   1.406   .     A
C1205  C1209   1.520   .     S
C1205  N1240   1.383   .     A
C1206  C1210   1.520   .     S
C1206  N1239   1.383   .     A
C1206  C919    1.436   1_565 S
C1207  N1240   1.383   .     A
C1207  C1211   1.520   .     S
C1208  N1239   1.383   .     A
C1208  C1213   1.520   .     S
C1208  C917    1.436   1_565 S
C1209  H1232   1.108   .     S
C1209  H1231   1.110   .     S
C1209  H1227   1.082   .     S
C1210  H1233   1.082   .     S
C1210  H1234   1.108   .     S
C1210  H1235   1.110   .     S
C1211  H1238   1.108   .     S
C1211  H1236   1.082   .     S
C1211  H1237   1.110   .     S
C1212  O1243   1.308   .     A
C1212  O1242   1.308   .     A
C1213  H1228   1.082   .     S
C1213  H1229   1.108   .     S
C1213  H1230   1.110   .     S
C1214  C1216   1.411   .     S
C1214  O1248   1.302   .     A
C1214  O1245   1.302   .     A
C1215  O1247   1.302   .     A
C1215  C1217   1.411   .     S
C1215  O1246   1.302   .     A
C1217  C352    1.192   1_556 S
C1218  F1223   1.358   .     S
C1219  F1224   1.358   .     S
C1219  C1250   1.383   .     S
C1220  F1225   1.358   .     S
C1220  C1266   1.383   .     S
Cu1221 N1239   2.047   .     S
Cu1221 Cu1222  2.725   .     S
Cu1221 O1245   1.933   .     S
Cu1221 O1241   1.976   .     S
Cu1221 O1243   1.976   .     S
Cu1221 O1247   1.933   .     S
Cu1222 O1248   1.933   .     S
Cu1222 N1240   2.047   .     S
Cu1222 O1242   1.976   .     S
Cu1222 O1246   1.933   .     S
Cu1222 O1244   1.976   .     S
C1249  O1292   1.308   .     A
C1249  C1252   1.461   .     S
C1249  O1289   1.308   .     A
C1250  C1252   1.406   .     A
C1250  F1274   1.358   .     S
C1251  C1268   1.406   .     A
C1251  C1267   1.406   .     A
C1251  C1260   1.461   .     S
C1252  C1266   1.406   .     A
C1253  C1257   1.520   .     S
C1253  N1288   1.383   .     A
C1254  C1258   1.520   .     S
C1254  N1287   1.383   .     A
C1254  C967    1.436   1_565 S
C1255  N1288   1.383   .     A
C1255  C1259   1.520   .     S
C1256  N1287   1.383   .     A
C1256  C1261   1.520   .     S
C1256  C965    1.436   1_565 S
C1257  H1280   1.108   .     S
C1257  H1279   1.110   .     S
C1257  H1275   1.082   .     S
C1258  H1281   1.082   .     S
C1258  H1282   1.108   .     S
C1258  H1283   1.110   .     S
C1259  H1286   1.108   .     S
C1259  H1284   1.082   .     S
C1259  H1285   1.110   .     S
C1260  O1291   1.308   .     A
C1260  O1290   1.308   .     A
C1261  H1276   1.082   .     S
C1261  H1277   1.108   .     S
C1261  H1278   1.110   .     S
C1262  C1264   1.411   .     S
C1262  O1296   1.302   .     A
C1262  O1293   1.302   .     A
C1263  O1295   1.302   .     A
C1263  C1265   1.411   .     S
C1263  O1294   1.302   .     A
C1265  C400    1.192   1_556 S
C1266  F1271   1.358   .     S
C1267  F1272   1.358   .     S
C1267  C1154   1.383   1_655 S
C1268  F1273   1.358   .     S
C1268  C1170   1.383   1_655 S
Cu1269 N1287   2.047   .     S
Cu1269 Cu1270  2.725   .     S
Cu1269 O1293   1.933   .     S
Cu1269 O1289   1.976   .     S
Cu1269 O1291   1.976   .     S
Cu1269 O1295   1.933   .     S
Cu1270 O1296   1.933   .     S
Cu1270 N1288   2.047   .     S
Cu1270 O1290   1.976   .     S
Cu1270 O1294   1.933   .     S
Cu1270 O1292   1.976   .     S
