data_str_m2_o2_o5_pcu_sym.93
_audit_creation_date              2020-01-03
_audit_creation_method            'Materials Studio'
_symmetry_space_group_name_H-M    'P1'
_symmetry_Int_Tables_number       1
_symmetry_cell_setting            triclinic
loop_
_symmetry_equiv_pos_as_xyz
  x,y,z
_cell_length_a                    30.3303
_cell_length_b                    27.7377
_cell_length_c                    27.2816
_cell_angle_alpha                 89.9972
_cell_angle_beta                  90.1769
_cell_angle_gamma                 89.8567
loop_
_atom_site_label
_atom_site_type_symbol
_atom_site_fract_x
_atom_site_fract_y
_atom_site_fract_z
_atom_site_U_iso_or_equiv
_atom_site_adp_type
_atom_site_occupancy
C1     C     0.16489   0.25004   0.16681   0.00000  Uiso   1.00
C2     C     0.28949   0.44633   0.16132   0.00000  Uiso   1.00
C3     C     0.24999   0.25000   0.07351   0.00000  Uiso   1.00
C4     C     0.25001   0.25000   0.25983   0.00000  Uiso   1.00
C5     C     0.24990   0.02754   0.16675   0.00000  Uiso   1.00
C6     C     0.24992   0.47293   0.16672   0.00000  Uiso   1.00
C7     C     0.24999   0.24999   0.02183   0.00000  Uiso   1.00
C8     C     0.25000   0.24999   0.31151   0.00000  Uiso   1.00
C9     C     0.04707   0.28866   0.18809   0.00000  Uiso   1.00
C10    C     0.45335   0.21117   0.18644   0.00000  Uiso   1.00
C11    C     0.45300   0.28906   0.14644   0.00000  Uiso   1.00
C12    C     0.33517   0.24986   0.16628   0.00000  Uiso   1.00
C13    C     0.04704   0.21178   0.14604   0.00000  Uiso   1.00
C14    C     0.09324   0.28875   0.18886   0.00000  Uiso   1.00
C15    C     0.40757   0.21013   0.18552   0.00000  Uiso   1.00
C16    C     0.40680   0.28893   0.14510   0.00000  Uiso   1.00
C17    C     0.09319   0.21141   0.14541   0.00000  Uiso   1.00
C18    C     0.11644   0.25010   0.16701   0.00000  Uiso   1.00
C19    C     0.38371   0.24949   0.16545   0.00000  Uiso   1.00
C20    C     0.02419   0.25030   0.16701   0.00000  Uiso   1.00
C21    C     0.47606   0.25033   0.16690   0.00000  Uiso   1.00
C22    C     0.28439   0.01706   0.27310   0.00000  Uiso   1.00
C23    C     0.27725   0.10478   0.19764   0.00000  Uiso   1.00
C24    C     0.31700   0.49320   0.30790   0.00000  Uiso   1.00
C25    C     0.16103   0.47861   0.22537   0.00000  Uiso   1.00
C26    C     0.11448   0.49851   0.22987   0.00000  Uiso   1.00
C27    C     0.21531   0.01733   0.06037   0.00000  Uiso   1.00
C28    C     0.18267   0.49362   0.02565   0.00000  Uiso   1.00
C29    C     0.33883   0.47838   0.10812   0.00000  Uiso   1.00
C30    C     0.38526   0.49839   0.10372   0.00000  Uiso   1.00
C31    C     0.21138   0.39566   0.17113   0.00000  Uiso   1.00
C32    C     0.22268   0.10495   0.13576   0.00000  Uiso   1.00
C33    C     0.28858   0.39554   0.16224   0.00000  Uiso   1.00
C34    C     0.27744   0.05402   0.19911   0.00000  Uiso   1.00
C35    C     0.21039   0.44647   0.17209   0.00000  Uiso   1.00
C36    C     0.22239   0.05418   0.13437   0.00000  Uiso   1.00
Cu37   Cu    0.25000   0.29821   0.16667   0.00000  Uiso   1.00
Cu38   Cu    0.25000   0.20178   0.16667   0.00000  Uiso   1.00
H39    H     0.29888   0.12467   0.22186   0.00000  Uiso   1.00
H40    H     0.37448   0.15253   0.17830   0.00000  Uiso   1.00
H41    H     0.40493   0.35066   0.11090   0.00000  Uiso   1.00
H42    H     0.09479   0.15037   0.10994   0.00000  Uiso   1.00
H43    H     0.25833   0.49025   0.26455   0.00000  Uiso   1.00
H44    H     0.26946   0.04878   0.29190   0.00000  Uiso   1.00
H45    H     0.33366   0.46256   0.28931   0.00000  Uiso   1.00
H46    H     0.29930   0.47923   0.00706   0.00000  Uiso   1.00
H47    H     0.34215   0.01972   0.32000   0.00000  Uiso   1.00
H48    H     0.18416   0.00607   0.24018   0.00000  Uiso   1.00
H49    H     0.16322   0.44500   0.24770   0.00000  Uiso   1.00
H50    H     0.18062   0.37665   0.17437   0.00000  Uiso   1.00
H51    H     0.09037   0.47185   0.21560   0.00000  Uiso   1.00
H52    H     0.10695   0.00603   0.26894   0.00000  Uiso   1.00
H53    H     0.11137   0.03252   0.20862   0.00000  Uiso   1.00
H54    H     0.24143   0.49042   0.06884   0.00000  Uiso   1.00
H55    H     0.23016   0.04901   0.04154   0.00000  Uiso   1.00
H56    H     0.15744   0.02022   0.01365   0.00000  Uiso   1.00
H57    H     0.20032   0.47964   0.32641   0.00000  Uiso   1.00
H58    H     0.16612   0.46300   0.04425   0.00000  Uiso   1.00
H59    H     0.31555   0.00579   0.09327   0.00000  Uiso   1.00
H60    H     0.33689   0.44476   0.08579   0.00000  Uiso   1.00
H61    H     0.20103   0.12496   0.11157   0.00000  Uiso   1.00
H62    H     0.38810   0.03241   0.12497   0.00000  Uiso   1.00
H63    H     0.39280   0.00592   0.06467   0.00000  Uiso   1.00
H64    H     0.40952   0.47180   0.11805   0.00000  Uiso   1.00
H65    H     0.31937   0.37645   0.15905   0.00000  Uiso   1.00
H66    H     0.02887   0.31802   0.20479   0.00000  Uiso   1.00
H67    H     0.47129   0.18120   0.20249   0.00000  Uiso   1.00
H68    H     0.47109   0.31891   0.13070   0.00000  Uiso   1.00
H69    H     0.02881   0.18244   0.12940   0.00000  Uiso   1.00
H70    H     0.09496   0.34945   0.22491   0.00000  Uiso   1.00
N71    N     0.25000   0.12934   0.16667   0.00000  Uiso   1.00
N72    N     0.25000   0.37065   0.16667   0.00000  Uiso   1.00
O73    O     0.18573   0.29071   0.16667   0.00000  Uiso   1.00
O74    O     0.38695   0.17108   0.20612   0.00000  Uiso   1.00
O75    O     0.38383   0.32611   0.12289   0.00000  Uiso   1.00
O76    O     0.11603   0.17429   0.12303   0.00000  Uiso   1.00
O77    O     0.30680   0.03119   0.23026   0.00000  Uiso   1.00
O78    O     0.17009   0.46951   0.17556   0.00000  Uiso   1.00
O79    O     0.19298   0.03152   0.10328   0.00000  Uiso   1.00
O80    O     0.32976   0.46923   0.15791   0.00000  Uiso   1.00
O81    O     0.31427   0.20928   0.16666   0.00000  Uiso   1.00
O82    O     0.31427   0.29071   0.16666   0.00000  Uiso   1.00
O83    O     0.18573   0.20928   0.16667   0.00000  Uiso   1.00
O84    O     0.25000   0.29071   0.09613   0.00000  Uiso   1.00
O85    O     0.25000   0.20929   0.23720   0.00000  Uiso   1.00
O86    O     0.25000   0.29071   0.23720   0.00000  Uiso   1.00
O87    O     0.25000   0.20929   0.09613   0.00000  Uiso   1.00
O88    O     0.11614   0.32540   0.21186   0.00000  Uiso   1.00
C89    C     0.66489   0.25004   0.16681   0.00000  Uiso   1.00
C90    C     0.78949   0.44633   0.16132   0.00000  Uiso   1.00
C91    C     0.74999   0.25000   0.07351   0.00000  Uiso   1.00
C92    C     0.75001   0.25000   0.25983   0.00000  Uiso   1.00
C93    C     0.74990   0.02754   0.16675   0.00000  Uiso   1.00
C94    C     0.74992   0.47293   0.16672   0.00000  Uiso   1.00
C95    C     0.74999   0.24999   0.02183   0.00000  Uiso   1.00
C96    C     0.75000   0.24999   0.31151   0.00000  Uiso   1.00
C97    C     0.54707   0.28866   0.18809   0.00000  Uiso   1.00
C98    C     0.95335   0.21117   0.18644   0.00000  Uiso   1.00
C99    C     0.95300   0.28906   0.14644   0.00000  Uiso   1.00
C100   C     0.83517   0.24986   0.16628   0.00000  Uiso   1.00
C101   C     0.54704   0.21178   0.14604   0.00000  Uiso   1.00
C102   C     0.59324   0.28875   0.18886   0.00000  Uiso   1.00
C103   C     0.90757   0.21013   0.18552   0.00000  Uiso   1.00
C104   C     0.90680   0.28893   0.14510   0.00000  Uiso   1.00
C105   C     0.59319   0.21141   0.14541   0.00000  Uiso   1.00
C106   C     0.61644   0.25010   0.16701   0.00000  Uiso   1.00
C107   C     0.88371   0.24949   0.16545   0.00000  Uiso   1.00
C108   C     0.52419   0.25030   0.16701   0.00000  Uiso   1.00
C109   C     0.97606   0.25033   0.16690   0.00000  Uiso   1.00
C110   C     0.78439   0.01706   0.27310   0.00000  Uiso   1.00
C111   C     0.77725   0.10478   0.19764   0.00000  Uiso   1.00
C112   C     0.81700   0.49320   0.30790   0.00000  Uiso   1.00
C113   C     0.66103   0.47861   0.22537   0.00000  Uiso   1.00
C114   C     0.61448   0.49851   0.22987   0.00000  Uiso   1.00
C115   C     0.71531   0.01733   0.06037   0.00000  Uiso   1.00
C116   C     0.68267   0.49362   0.02565   0.00000  Uiso   1.00
C117   C     0.83883   0.47838   0.10812   0.00000  Uiso   1.00
C118   C     0.88526   0.49839   0.10372   0.00000  Uiso   1.00
C119   C     0.71138   0.39566   0.17113   0.00000  Uiso   1.00
C120   C     0.72268   0.10495   0.13576   0.00000  Uiso   1.00
C121   C     0.78858   0.39554   0.16224   0.00000  Uiso   1.00
C122   C     0.77744   0.05402   0.19911   0.00000  Uiso   1.00
C123   C     0.71039   0.44647   0.17209   0.00000  Uiso   1.00
C124   C     0.72239   0.05418   0.13437   0.00000  Uiso   1.00
Cu125  Cu    0.75000   0.29821   0.16667   0.00000  Uiso   1.00
Cu126  Cu    0.75000   0.20178   0.16667   0.00000  Uiso   1.00
H127   H     0.79888   0.12467   0.22186   0.00000  Uiso   1.00
H128   H     0.87448   0.15253   0.17830   0.00000  Uiso   1.00
H129   H     0.90493   0.35066   0.11090   0.00000  Uiso   1.00
H130   H     0.59479   0.15037   0.10994   0.00000  Uiso   1.00
H131   H     0.75833   0.49025   0.26455   0.00000  Uiso   1.00
H132   H     0.76946   0.04878   0.29190   0.00000  Uiso   1.00
H133   H     0.83366   0.46256   0.28931   0.00000  Uiso   1.00
H134   H     0.79930   0.47923   0.00706   0.00000  Uiso   1.00
H135   H     0.84215   0.01972   0.32000   0.00000  Uiso   1.00
H136   H     0.68416   0.00607   0.24018   0.00000  Uiso   1.00
H137   H     0.66322   0.44500   0.24770   0.00000  Uiso   1.00
H138   H     0.68062   0.37665   0.17437   0.00000  Uiso   1.00
H139   H     0.59037   0.47185   0.21560   0.00000  Uiso   1.00
H140   H     0.60695   0.00603   0.26894   0.00000  Uiso   1.00
H141   H     0.61137   0.03252   0.20862   0.00000  Uiso   1.00
H142   H     0.74143   0.49042   0.06884   0.00000  Uiso   1.00
H143   H     0.73016   0.04901   0.04154   0.00000  Uiso   1.00
H144   H     0.65744   0.02022   0.01365   0.00000  Uiso   1.00
H145   H     0.70032   0.47964   0.32641   0.00000  Uiso   1.00
H146   H     0.66612   0.46300   0.04425   0.00000  Uiso   1.00
H147   H     0.81555   0.00579   0.09327   0.00000  Uiso   1.00
H148   H     0.83689   0.44476   0.08579   0.00000  Uiso   1.00
H149   H     0.70103   0.12496   0.11157   0.00000  Uiso   1.00
H150   H     0.88810   0.03241   0.12497   0.00000  Uiso   1.00
H151   H     0.89280   0.00592   0.06467   0.00000  Uiso   1.00
H152   H     0.90952   0.47180   0.11805   0.00000  Uiso   1.00
H153   H     0.81937   0.37645   0.15905   0.00000  Uiso   1.00
H154   H     0.52887   0.31802   0.20479   0.00000  Uiso   1.00
H155   H     0.97129   0.18120   0.20249   0.00000  Uiso   1.00
H156   H     0.97109   0.31891   0.13070   0.00000  Uiso   1.00
H157   H     0.52881   0.18244   0.12940   0.00000  Uiso   1.00
H158   H     0.59496   0.34945   0.22491   0.00000  Uiso   1.00
N159   N     0.75000   0.12934   0.16667   0.00000  Uiso   1.00
N160   N     0.75000   0.37065   0.16667   0.00000  Uiso   1.00
O161   O     0.68573   0.29071   0.16667   0.00000  Uiso   1.00
O162   O     0.88695   0.17108   0.20612   0.00000  Uiso   1.00
O163   O     0.88383   0.32611   0.12289   0.00000  Uiso   1.00
O164   O     0.61603   0.17429   0.12303   0.00000  Uiso   1.00
O165   O     0.80680   0.03119   0.23026   0.00000  Uiso   1.00
O166   O     0.67009   0.46951   0.17556   0.00000  Uiso   1.00
O167   O     0.69298   0.03152   0.10328   0.00000  Uiso   1.00
O168   O     0.82976   0.46923   0.15791   0.00000  Uiso   1.00
O169   O     0.81427   0.20928   0.16666   0.00000  Uiso   1.00
O170   O     0.81427   0.29071   0.16666   0.00000  Uiso   1.00
O171   O     0.68573   0.20928   0.16667   0.00000  Uiso   1.00
O172   O     0.75000   0.29071   0.09613   0.00000  Uiso   1.00
O173   O     0.75000   0.20929   0.23720   0.00000  Uiso   1.00
O174   O     0.75000   0.29071   0.23720   0.00000  Uiso   1.00
O175   O     0.75000   0.20929   0.09613   0.00000  Uiso   1.00
O176   O     0.61614   0.32540   0.21186   0.00000  Uiso   1.00
C177   C     0.16489   0.75004   0.16681   0.00000  Uiso   1.00
C178   C     0.28949   0.94633   0.16132   0.00000  Uiso   1.00
C179   C     0.24999   0.75000   0.07351   0.00000  Uiso   1.00
C180   C     0.25001   0.75000   0.25983   0.00000  Uiso   1.00
C181   C     0.24990   0.52754   0.16675   0.00000  Uiso   1.00
C182   C     0.24992   0.97293   0.16672   0.00000  Uiso   1.00
C183   C     0.24999   0.74999   0.02183   0.00000  Uiso   1.00
C184   C     0.25000   0.74999   0.31151   0.00000  Uiso   1.00
C185   C     0.04707   0.78866   0.18809   0.00000  Uiso   1.00
C186   C     0.45335   0.71117   0.18644   0.00000  Uiso   1.00
C187   C     0.45300   0.78906   0.14644   0.00000  Uiso   1.00
C188   C     0.33517   0.74986   0.16628   0.00000  Uiso   1.00
C189   C     0.04704   0.71178   0.14604   0.00000  Uiso   1.00
C190   C     0.09324   0.78875   0.18886   0.00000  Uiso   1.00
C191   C     0.40757   0.71013   0.18552   0.00000  Uiso   1.00
C192   C     0.40680   0.78893   0.14510   0.00000  Uiso   1.00
C193   C     0.09319   0.71141   0.14541   0.00000  Uiso   1.00
C194   C     0.11644   0.75010   0.16701   0.00000  Uiso   1.00
C195   C     0.38371   0.74949   0.16545   0.00000  Uiso   1.00
C196   C     0.02419   0.75030   0.16701   0.00000  Uiso   1.00
C197   C     0.47606   0.75033   0.16690   0.00000  Uiso   1.00
C198   C     0.28439   0.51706   0.27310   0.00000  Uiso   1.00
C199   C     0.27725   0.60478   0.19764   0.00000  Uiso   1.00
C200   C     0.31700   0.99320   0.30790   0.00000  Uiso   1.00
C201   C     0.16103   0.97861   0.22537   0.00000  Uiso   1.00
C202   C     0.11448   0.99851   0.22987   0.00000  Uiso   1.00
C203   C     0.21531   0.51733   0.06037   0.00000  Uiso   1.00
C204   C     0.18267   0.99362   0.02565   0.00000  Uiso   1.00
C205   C     0.33883   0.97838   0.10812   0.00000  Uiso   1.00
C206   C     0.38526   0.99839   0.10372   0.00000  Uiso   1.00
C207   C     0.21138   0.89566   0.17113   0.00000  Uiso   1.00
C208   C     0.22268   0.60495   0.13576   0.00000  Uiso   1.00
C209   C     0.28858   0.89554   0.16224   0.00000  Uiso   1.00
C210   C     0.27744   0.55402   0.19911   0.00000  Uiso   1.00
C211   C     0.21039   0.94647   0.17209   0.00000  Uiso   1.00
C212   C     0.22239   0.55418   0.13437   0.00000  Uiso   1.00
Cu213  Cu    0.25000   0.79821   0.16667   0.00000  Uiso   1.00
Cu214  Cu    0.25000   0.70178   0.16667   0.00000  Uiso   1.00
H215   H     0.29888   0.62467   0.22186   0.00000  Uiso   1.00
H216   H     0.37448   0.65253   0.17830   0.00000  Uiso   1.00
H217   H     0.40493   0.85066   0.11090   0.00000  Uiso   1.00
H218   H     0.09479   0.65037   0.10994   0.00000  Uiso   1.00
H219   H     0.25833   0.99025   0.26455   0.00000  Uiso   1.00
H220   H     0.26946   0.54878   0.29190   0.00000  Uiso   1.00
H221   H     0.33366   0.96256   0.28931   0.00000  Uiso   1.00
H222   H     0.29930   0.97923   0.00706   0.00000  Uiso   1.00
H223   H     0.34215   0.51972   0.32000   0.00000  Uiso   1.00
H224   H     0.18416   0.50607   0.24018   0.00000  Uiso   1.00
H225   H     0.16322   0.94500   0.24770   0.00000  Uiso   1.00
H226   H     0.18062   0.87665   0.17437   0.00000  Uiso   1.00
H227   H     0.09037   0.97185   0.21560   0.00000  Uiso   1.00
H228   H     0.10695   0.50603   0.26894   0.00000  Uiso   1.00
H229   H     0.11137   0.53252   0.20862   0.00000  Uiso   1.00
H230   H     0.24143   0.99042   0.06884   0.00000  Uiso   1.00
H231   H     0.23016   0.54901   0.04154   0.00000  Uiso   1.00
H232   H     0.15744   0.52022   0.01365   0.00000  Uiso   1.00
H233   H     0.20032   0.97964   0.32641   0.00000  Uiso   1.00
H234   H     0.16612   0.96300   0.04425   0.00000  Uiso   1.00
H235   H     0.31555   0.50579   0.09327   0.00000  Uiso   1.00
H236   H     0.33689   0.94476   0.08579   0.00000  Uiso   1.00
H237   H     0.20103   0.62496   0.11157   0.00000  Uiso   1.00
H238   H     0.38810   0.53241   0.12497   0.00000  Uiso   1.00
H239   H     0.39280   0.50592   0.06467   0.00000  Uiso   1.00
H240   H     0.40952   0.97180   0.11805   0.00000  Uiso   1.00
H241   H     0.31937   0.87645   0.15905   0.00000  Uiso   1.00
H242   H     0.02887   0.81802   0.20479   0.00000  Uiso   1.00
H243   H     0.47129   0.68120   0.20249   0.00000  Uiso   1.00
H244   H     0.47109   0.81891   0.13070   0.00000  Uiso   1.00
H245   H     0.02881   0.68244   0.12940   0.00000  Uiso   1.00
H246   H     0.09496   0.84945   0.22491   0.00000  Uiso   1.00
N247   N     0.25000   0.62934   0.16667   0.00000  Uiso   1.00
N248   N     0.25000   0.87065   0.16667   0.00000  Uiso   1.00
O249   O     0.18573   0.79071   0.16667   0.00000  Uiso   1.00
O250   O     0.38695   0.67108   0.20612   0.00000  Uiso   1.00
O251   O     0.38383   0.82611   0.12289   0.00000  Uiso   1.00
O252   O     0.11603   0.67429   0.12303   0.00000  Uiso   1.00
O253   O     0.30680   0.53119   0.23026   0.00000  Uiso   1.00
O254   O     0.17009   0.96951   0.17556   0.00000  Uiso   1.00
O255   O     0.19298   0.53152   0.10328   0.00000  Uiso   1.00
O256   O     0.32976   0.96923   0.15791   0.00000  Uiso   1.00
O257   O     0.31427   0.70928   0.16666   0.00000  Uiso   1.00
O258   O     0.31427   0.79071   0.16666   0.00000  Uiso   1.00
O259   O     0.18573   0.70928   0.16667   0.00000  Uiso   1.00
O260   O     0.25000   0.79071   0.09613   0.00000  Uiso   1.00
O261   O     0.25000   0.70929   0.23720   0.00000  Uiso   1.00
O262   O     0.25000   0.79071   0.23720   0.00000  Uiso   1.00
O263   O     0.25000   0.70929   0.09613   0.00000  Uiso   1.00
O264   O     0.11614   0.82540   0.21186   0.00000  Uiso   1.00
C265   C     0.66489   0.75004   0.16681   0.00000  Uiso   1.00
C266   C     0.78949   0.94633   0.16132   0.00000  Uiso   1.00
C267   C     0.74999   0.75000   0.07351   0.00000  Uiso   1.00
C268   C     0.75001   0.75000   0.25983   0.00000  Uiso   1.00
C269   C     0.74990   0.52754   0.16675   0.00000  Uiso   1.00
C270   C     0.74992   0.97293   0.16672   0.00000  Uiso   1.00
C271   C     0.74999   0.74999   0.02183   0.00000  Uiso   1.00
C272   C     0.75000   0.74999   0.31151   0.00000  Uiso   1.00
C273   C     0.54707   0.78866   0.18809   0.00000  Uiso   1.00
C274   C     0.95335   0.71117   0.18644   0.00000  Uiso   1.00
C275   C     0.95300   0.78906   0.14644   0.00000  Uiso   1.00
C276   C     0.83517   0.74986   0.16628   0.00000  Uiso   1.00
C277   C     0.54704   0.71178   0.14604   0.00000  Uiso   1.00
C278   C     0.59324   0.78875   0.18886   0.00000  Uiso   1.00
C279   C     0.90757   0.71013   0.18552   0.00000  Uiso   1.00
C280   C     0.90680   0.78893   0.14510   0.00000  Uiso   1.00
C281   C     0.59319   0.71141   0.14541   0.00000  Uiso   1.00
C282   C     0.61644   0.75010   0.16701   0.00000  Uiso   1.00
C283   C     0.88371   0.74949   0.16545   0.00000  Uiso   1.00
C284   C     0.52419   0.75030   0.16701   0.00000  Uiso   1.00
C285   C     0.97606   0.75033   0.16690   0.00000  Uiso   1.00
C286   C     0.78439   0.51706   0.27310   0.00000  Uiso   1.00
C287   C     0.77725   0.60478   0.19764   0.00000  Uiso   1.00
C288   C     0.81700   0.99320   0.30790   0.00000  Uiso   1.00
C289   C     0.66103   0.97861   0.22537   0.00000  Uiso   1.00
C290   C     0.61448   0.99851   0.22987   0.00000  Uiso   1.00
C291   C     0.71531   0.51733   0.06037   0.00000  Uiso   1.00
C292   C     0.68267   0.99362   0.02565   0.00000  Uiso   1.00
C293   C     0.83883   0.97838   0.10812   0.00000  Uiso   1.00
C294   C     0.88526   0.99839   0.10372   0.00000  Uiso   1.00
C295   C     0.71138   0.89566   0.17113   0.00000  Uiso   1.00
C296   C     0.72268   0.60495   0.13576   0.00000  Uiso   1.00
C297   C     0.78858   0.89554   0.16224   0.00000  Uiso   1.00
C298   C     0.77744   0.55402   0.19911   0.00000  Uiso   1.00
C299   C     0.71039   0.94647   0.17209   0.00000  Uiso   1.00
C300   C     0.72239   0.55418   0.13437   0.00000  Uiso   1.00
Cu301  Cu    0.75000   0.79821   0.16667   0.00000  Uiso   1.00
Cu302  Cu    0.75000   0.70178   0.16667   0.00000  Uiso   1.00
H303   H     0.79888   0.62467   0.22186   0.00000  Uiso   1.00
H304   H     0.87448   0.65253   0.17830   0.00000  Uiso   1.00
H305   H     0.90493   0.85066   0.11090   0.00000  Uiso   1.00
H306   H     0.59479   0.65037   0.10994   0.00000  Uiso   1.00
H307   H     0.75833   0.99025   0.26455   0.00000  Uiso   1.00
H308   H     0.76946   0.54878   0.29190   0.00000  Uiso   1.00
H309   H     0.83366   0.96256   0.28931   0.00000  Uiso   1.00
H310   H     0.79930   0.97923   0.00706   0.00000  Uiso   1.00
H311   H     0.84215   0.51972   0.32000   0.00000  Uiso   1.00
H312   H     0.68416   0.50607   0.24018   0.00000  Uiso   1.00
H313   H     0.66322   0.94500   0.24770   0.00000  Uiso   1.00
H314   H     0.68062   0.87665   0.17437   0.00000  Uiso   1.00
H315   H     0.59037   0.97185   0.21560   0.00000  Uiso   1.00
H316   H     0.60695   0.50603   0.26894   0.00000  Uiso   1.00
H317   H     0.61137   0.53252   0.20862   0.00000  Uiso   1.00
H318   H     0.74143   0.99042   0.06884   0.00000  Uiso   1.00
H319   H     0.73016   0.54901   0.04154   0.00000  Uiso   1.00
H320   H     0.65744   0.52022   0.01365   0.00000  Uiso   1.00
H321   H     0.70032   0.97964   0.32641   0.00000  Uiso   1.00
H322   H     0.66612   0.96300   0.04425   0.00000  Uiso   1.00
H323   H     0.81555   0.50579   0.09327   0.00000  Uiso   1.00
H324   H     0.83689   0.94476   0.08579   0.00000  Uiso   1.00
H325   H     0.70103   0.62496   0.11157   0.00000  Uiso   1.00
H326   H     0.88810   0.53241   0.12497   0.00000  Uiso   1.00
H327   H     0.89280   0.50592   0.06467   0.00000  Uiso   1.00
H328   H     0.90952   0.97180   0.11805   0.00000  Uiso   1.00
H329   H     0.81937   0.87645   0.15905   0.00000  Uiso   1.00
H330   H     0.52887   0.81802   0.20479   0.00000  Uiso   1.00
H331   H     0.97129   0.68120   0.20249   0.00000  Uiso   1.00
H332   H     0.97109   0.81891   0.13070   0.00000  Uiso   1.00
H333   H     0.52881   0.68244   0.12940   0.00000  Uiso   1.00
H334   H     0.59496   0.84945   0.22491   0.00000  Uiso   1.00
N335   N     0.75000   0.62934   0.16667   0.00000  Uiso   1.00
N336   N     0.75000   0.87065   0.16667   0.00000  Uiso   1.00
O337   O     0.68573   0.79071   0.16667   0.00000  Uiso   1.00
O338   O     0.88695   0.67108   0.20612   0.00000  Uiso   1.00
O339   O     0.88383   0.82611   0.12289   0.00000  Uiso   1.00
O340   O     0.61603   0.67429   0.12303   0.00000  Uiso   1.00
O341   O     0.80680   0.53119   0.23026   0.00000  Uiso   1.00
O342   O     0.67009   0.96951   0.17556   0.00000  Uiso   1.00
O343   O     0.69298   0.53152   0.10328   0.00000  Uiso   1.00
O344   O     0.82976   0.96923   0.15791   0.00000  Uiso   1.00
O345   O     0.81427   0.70928   0.16666   0.00000  Uiso   1.00
O346   O     0.81427   0.79071   0.16666   0.00000  Uiso   1.00
O347   O     0.68573   0.70928   0.16667   0.00000  Uiso   1.00
O348   O     0.75000   0.79071   0.09613   0.00000  Uiso   1.00
O349   O     0.75000   0.70929   0.23720   0.00000  Uiso   1.00
O350   O     0.75000   0.79071   0.23720   0.00000  Uiso   1.00
O351   O     0.75000   0.70929   0.09613   0.00000  Uiso   1.00
O352   O     0.61614   0.82540   0.21186   0.00000  Uiso   1.00
C353   C     0.16489   0.25004   0.50015   0.00000  Uiso   1.00
C354   C     0.28949   0.44633   0.49465   0.00000  Uiso   1.00
C355   C     0.24999   0.25000   0.40684   0.00000  Uiso   1.00
C356   C     0.25001   0.25000   0.59316   0.00000  Uiso   1.00
C357   C     0.24990   0.02754   0.50008   0.00000  Uiso   1.00
C358   C     0.24992   0.47293   0.50005   0.00000  Uiso   1.00
C359   C     0.24999   0.24999   0.35516   0.00000  Uiso   1.00
C360   C     0.25000   0.24999   0.64484   0.00000  Uiso   1.00
C361   C     0.04707   0.28866   0.52143   0.00000  Uiso   1.00
C362   C     0.45335   0.21117   0.51977   0.00000  Uiso   1.00
C363   C     0.45300   0.28906   0.47978   0.00000  Uiso   1.00
C364   C     0.33517   0.24986   0.49962   0.00000  Uiso   1.00
C365   C     0.04704   0.21178   0.47938   0.00000  Uiso   1.00
C366   C     0.09324   0.28875   0.52220   0.00000  Uiso   1.00
C367   C     0.40757   0.21013   0.51886   0.00000  Uiso   1.00
C368   C     0.40680   0.28893   0.47843   0.00000  Uiso   1.00
C369   C     0.09319   0.21141   0.47874   0.00000  Uiso   1.00
C370   C     0.11644   0.25010   0.50035   0.00000  Uiso   1.00
C371   C     0.38371   0.24949   0.49878   0.00000  Uiso   1.00
C372   C     0.02419   0.25030   0.50035   0.00000  Uiso   1.00
C373   C     0.47606   0.25033   0.50024   0.00000  Uiso   1.00
C374   C     0.28439   0.01706   0.60643   0.00000  Uiso   1.00
C375   C     0.27725   0.10478   0.53098   0.00000  Uiso   1.00
C376   C     0.31700   0.49320   0.64123   0.00000  Uiso   1.00
C377   C     0.16103   0.47861   0.55870   0.00000  Uiso   1.00
C378   C     0.11448   0.49851   0.56320   0.00000  Uiso   1.00
C379   C     0.21531   0.01733   0.39371   0.00000  Uiso   1.00
C380   C     0.18267   0.49362   0.35898   0.00000  Uiso   1.00
C381   C     0.33883   0.47838   0.44146   0.00000  Uiso   1.00
C382   C     0.38526   0.49839   0.43706   0.00000  Uiso   1.00
C383   C     0.21138   0.39566   0.50447   0.00000  Uiso   1.00
C384   C     0.22268   0.10495   0.46910   0.00000  Uiso   1.00
C385   C     0.28858   0.39554   0.49557   0.00000  Uiso   1.00
C386   C     0.27744   0.05402   0.53244   0.00000  Uiso   1.00
C387   C     0.21039   0.44647   0.50543   0.00000  Uiso   1.00
C388   C     0.22239   0.05418   0.46771   0.00000  Uiso   1.00
Cu389  Cu    0.25000   0.29821   0.50000   0.00000  Uiso   1.00
Cu390  Cu    0.25000   0.20178   0.50000   0.00000  Uiso   1.00
H391   H     0.29888   0.12467   0.55519   0.00000  Uiso   1.00
H392   H     0.37448   0.15253   0.51163   0.00000  Uiso   1.00
H393   H     0.40493   0.35066   0.44423   0.00000  Uiso   1.00
H394   H     0.09479   0.15037   0.44328   0.00000  Uiso   1.00
H395   H     0.25833   0.49025   0.59789   0.00000  Uiso   1.00
H396   H     0.26946   0.04878   0.62524   0.00000  Uiso   1.00
H397   H     0.33366   0.46256   0.62265   0.00000  Uiso   1.00
H398   H     0.29930   0.47923   0.34039   0.00000  Uiso   1.00
H399   H     0.34215   0.01972   0.65334   0.00000  Uiso   1.00
H400   H     0.18416   0.00607   0.57351   0.00000  Uiso   1.00
H401   H     0.16322   0.44500   0.58104   0.00000  Uiso   1.00
H402   H     0.18062   0.37665   0.50771   0.00000  Uiso   1.00
H403   H     0.09037   0.47185   0.54893   0.00000  Uiso   1.00
H404   H     0.10695   0.00603   0.60227   0.00000  Uiso   1.00
H405   H     0.11137   0.03252   0.54195   0.00000  Uiso   1.00
H406   H     0.24143   0.49042   0.40217   0.00000  Uiso   1.00
H407   H     0.23016   0.04901   0.37488   0.00000  Uiso   1.00
H408   H     0.15744   0.02022   0.34699   0.00000  Uiso   1.00
H409   H     0.20032   0.47964   0.65975   0.00000  Uiso   1.00
H410   H     0.16612   0.46300   0.37758   0.00000  Uiso   1.00
H411   H     0.31555   0.00579   0.42660   0.00000  Uiso   1.00
H412   H     0.33689   0.44476   0.41912   0.00000  Uiso   1.00
H413   H     0.20103   0.12496   0.44491   0.00000  Uiso   1.00
H414   H     0.38810   0.03241   0.45831   0.00000  Uiso   1.00
H415   H     0.39280   0.00592   0.39800   0.00000  Uiso   1.00
H416   H     0.40952   0.47180   0.45138   0.00000  Uiso   1.00
H417   H     0.31937   0.37645   0.49238   0.00000  Uiso   1.00
H418   H     0.02887   0.31802   0.53812   0.00000  Uiso   1.00
H419   H     0.47129   0.18120   0.53583   0.00000  Uiso   1.00
H420   H     0.47109   0.31891   0.46403   0.00000  Uiso   1.00
H421   H     0.02881   0.18244   0.46273   0.00000  Uiso   1.00
H422   H     0.09496   0.34945   0.55824   0.00000  Uiso   1.00
N423   N     0.25000   0.12934   0.50000   0.00000  Uiso   1.00
N424   N     0.25000   0.37065   0.50000   0.00000  Uiso   1.00
O425   O     0.18573   0.29071   0.50000   0.00000  Uiso   1.00
O426   O     0.38695   0.17108   0.53945   0.00000  Uiso   1.00
O427   O     0.38383   0.32611   0.45623   0.00000  Uiso   1.00
O428   O     0.11603   0.17429   0.45636   0.00000  Uiso   1.00
O429   O     0.30680   0.03119   0.56360   0.00000  Uiso   1.00
O430   O     0.17009   0.46951   0.50889   0.00000  Uiso   1.00
O431   O     0.19298   0.03152   0.43661   0.00000  Uiso   1.00
O432   O     0.32976   0.46923   0.49124   0.00000  Uiso   1.00
O433   O     0.31427   0.20928   0.50000   0.00000  Uiso   1.00
O434   O     0.31427   0.29071   0.50000   0.00000  Uiso   1.00
O435   O     0.18573   0.20928   0.50000   0.00000  Uiso   1.00
O436   O     0.25000   0.29071   0.42946   0.00000  Uiso   1.00
O437   O     0.25000   0.20929   0.57054   0.00000  Uiso   1.00
O438   O     0.25000   0.29071   0.57054   0.00000  Uiso   1.00
O439   O     0.25000   0.20929   0.42946   0.00000  Uiso   1.00
O440   O     0.11614   0.32540   0.54520   0.00000  Uiso   1.00
C441   C     0.66489   0.25004   0.50015   0.00000  Uiso   1.00
C442   C     0.78949   0.44633   0.49465   0.00000  Uiso   1.00
C443   C     0.74999   0.25000   0.40684   0.00000  Uiso   1.00
C444   C     0.75001   0.25000   0.59316   0.00000  Uiso   1.00
C445   C     0.74990   0.02754   0.50008   0.00000  Uiso   1.00
C446   C     0.74992   0.47293   0.50005   0.00000  Uiso   1.00
C447   C     0.74999   0.24999   0.35516   0.00000  Uiso   1.00
C448   C     0.75000   0.24999   0.64484   0.00000  Uiso   1.00
C449   C     0.54707   0.28866   0.52143   0.00000  Uiso   1.00
C450   C     0.95335   0.21117   0.51977   0.00000  Uiso   1.00
C451   C     0.95300   0.28906   0.47978   0.00000  Uiso   1.00
C452   C     0.83517   0.24986   0.49962   0.00000  Uiso   1.00
C453   C     0.54704   0.21178   0.47938   0.00000  Uiso   1.00
C454   C     0.59324   0.28875   0.52220   0.00000  Uiso   1.00
C455   C     0.90757   0.21013   0.51886   0.00000  Uiso   1.00
C456   C     0.90680   0.28893   0.47843   0.00000  Uiso   1.00
C457   C     0.59319   0.21141   0.47874   0.00000  Uiso   1.00
C458   C     0.61644   0.25010   0.50035   0.00000  Uiso   1.00
C459   C     0.88371   0.24949   0.49878   0.00000  Uiso   1.00
C460   C     0.52419   0.25030   0.50035   0.00000  Uiso   1.00
C461   C     0.97606   0.25033   0.50024   0.00000  Uiso   1.00
C462   C     0.78439   0.01706   0.60643   0.00000  Uiso   1.00
C463   C     0.77725   0.10478   0.53098   0.00000  Uiso   1.00
C464   C     0.81700   0.49320   0.64123   0.00000  Uiso   1.00
C465   C     0.66103   0.47861   0.55870   0.00000  Uiso   1.00
C466   C     0.61448   0.49851   0.56320   0.00000  Uiso   1.00
C467   C     0.71531   0.01733   0.39371   0.00000  Uiso   1.00
C468   C     0.68267   0.49362   0.35898   0.00000  Uiso   1.00
C469   C     0.83883   0.47838   0.44146   0.00000  Uiso   1.00
C470   C     0.88526   0.49839   0.43706   0.00000  Uiso   1.00
C471   C     0.71138   0.39566   0.50447   0.00000  Uiso   1.00
C472   C     0.72268   0.10495   0.46910   0.00000  Uiso   1.00
C473   C     0.78858   0.39554   0.49557   0.00000  Uiso   1.00
C474   C     0.77744   0.05402   0.53244   0.00000  Uiso   1.00
C475   C     0.71039   0.44647   0.50543   0.00000  Uiso   1.00
C476   C     0.72239   0.05418   0.46771   0.00000  Uiso   1.00
Cu477  Cu    0.75000   0.29821   0.50000   0.00000  Uiso   1.00
Cu478  Cu    0.75000   0.20178   0.50000   0.00000  Uiso   1.00
H479   H     0.79888   0.12467   0.55519   0.00000  Uiso   1.00
H480   H     0.87448   0.15253   0.51163   0.00000  Uiso   1.00
H481   H     0.90493   0.35066   0.44423   0.00000  Uiso   1.00
H482   H     0.59479   0.15037   0.44328   0.00000  Uiso   1.00
H483   H     0.75833   0.49025   0.59789   0.00000  Uiso   1.00
H484   H     0.76946   0.04878   0.62524   0.00000  Uiso   1.00
H485   H     0.83366   0.46256   0.62265   0.00000  Uiso   1.00
H486   H     0.79930   0.47923   0.34039   0.00000  Uiso   1.00
H487   H     0.84215   0.01972   0.65334   0.00000  Uiso   1.00
H488   H     0.68416   0.00607   0.57351   0.00000  Uiso   1.00
H489   H     0.66322   0.44500   0.58104   0.00000  Uiso   1.00
H490   H     0.68062   0.37665   0.50771   0.00000  Uiso   1.00
H491   H     0.59037   0.47185   0.54893   0.00000  Uiso   1.00
H492   H     0.60695   0.00603   0.60227   0.00000  Uiso   1.00
H493   H     0.61137   0.03252   0.54195   0.00000  Uiso   1.00
H494   H     0.74143   0.49042   0.40217   0.00000  Uiso   1.00
H495   H     0.73016   0.04901   0.37488   0.00000  Uiso   1.00
H496   H     0.65744   0.02022   0.34699   0.00000  Uiso   1.00
H497   H     0.70032   0.47964   0.65975   0.00000  Uiso   1.00
H498   H     0.66612   0.46300   0.37758   0.00000  Uiso   1.00
H499   H     0.81555   0.00579   0.42660   0.00000  Uiso   1.00
H500   H     0.83689   0.44476   0.41912   0.00000  Uiso   1.00
H501   H     0.70103   0.12496   0.44491   0.00000  Uiso   1.00
H502   H     0.88810   0.03241   0.45831   0.00000  Uiso   1.00
H503   H     0.89280   0.00592   0.39800   0.00000  Uiso   1.00
H504   H     0.90952   0.47180   0.45138   0.00000  Uiso   1.00
H505   H     0.81937   0.37645   0.49238   0.00000  Uiso   1.00
H506   H     0.52887   0.31802   0.53812   0.00000  Uiso   1.00
H507   H     0.97129   0.18120   0.53583   0.00000  Uiso   1.00
H508   H     0.97109   0.31891   0.46403   0.00000  Uiso   1.00
H509   H     0.52881   0.18244   0.46273   0.00000  Uiso   1.00
H510   H     0.59496   0.34945   0.55824   0.00000  Uiso   1.00
N511   N     0.75000   0.12934   0.50000   0.00000  Uiso   1.00
N512   N     0.75000   0.37065   0.50000   0.00000  Uiso   1.00
O513   O     0.68573   0.29071   0.50000   0.00000  Uiso   1.00
O514   O     0.88695   0.17108   0.53945   0.00000  Uiso   1.00
O515   O     0.88383   0.32611   0.45623   0.00000  Uiso   1.00
O516   O     0.61603   0.17429   0.45636   0.00000  Uiso   1.00
O517   O     0.80680   0.03119   0.56360   0.00000  Uiso   1.00
O518   O     0.67009   0.46951   0.50889   0.00000  Uiso   1.00
O519   O     0.69298   0.03152   0.43661   0.00000  Uiso   1.00
O520   O     0.82976   0.46923   0.49124   0.00000  Uiso   1.00
O521   O     0.81427   0.20928   0.50000   0.00000  Uiso   1.00
O522   O     0.81427   0.29071   0.50000   0.00000  Uiso   1.00
O523   O     0.68573   0.20928   0.50000   0.00000  Uiso   1.00
O524   O     0.75000   0.29071   0.42946   0.00000  Uiso   1.00
O525   O     0.75000   0.20929   0.57054   0.00000  Uiso   1.00
O526   O     0.75000   0.29071   0.57054   0.00000  Uiso   1.00
O527   O     0.75000   0.20929   0.42946   0.00000  Uiso   1.00
O528   O     0.61614   0.32540   0.54520   0.00000  Uiso   1.00
C529   C     0.16489   0.75004   0.50015   0.00000  Uiso   1.00
C530   C     0.28949   0.94633   0.49465   0.00000  Uiso   1.00
C531   C     0.24999   0.75000   0.40684   0.00000  Uiso   1.00
C532   C     0.25001   0.75000   0.59316   0.00000  Uiso   1.00
C533   C     0.24990   0.52754   0.50008   0.00000  Uiso   1.00
C534   C     0.24992   0.97293   0.50005   0.00000  Uiso   1.00
C535   C     0.24999   0.74999   0.35516   0.00000  Uiso   1.00
C536   C     0.25000   0.74999   0.64484   0.00000  Uiso   1.00
C537   C     0.04707   0.78866   0.52143   0.00000  Uiso   1.00
C538   C     0.45335   0.71117   0.51977   0.00000  Uiso   1.00
C539   C     0.45300   0.78906   0.47978   0.00000  Uiso   1.00
C540   C     0.33517   0.74986   0.49962   0.00000  Uiso   1.00
C541   C     0.04704   0.71178   0.47938   0.00000  Uiso   1.00
C542   C     0.09324   0.78875   0.52220   0.00000  Uiso   1.00
C543   C     0.40757   0.71013   0.51886   0.00000  Uiso   1.00
C544   C     0.40680   0.78893   0.47843   0.00000  Uiso   1.00
C545   C     0.09319   0.71141   0.47874   0.00000  Uiso   1.00
C546   C     0.11644   0.75010   0.50035   0.00000  Uiso   1.00
C547   C     0.38371   0.74949   0.49878   0.00000  Uiso   1.00
C548   C     0.02419   0.75030   0.50035   0.00000  Uiso   1.00
C549   C     0.47606   0.75033   0.50024   0.00000  Uiso   1.00
C550   C     0.28439   0.51706   0.60643   0.00000  Uiso   1.00
C551   C     0.27725   0.60478   0.53098   0.00000  Uiso   1.00
C552   C     0.31700   0.99320   0.64123   0.00000  Uiso   1.00
C553   C     0.16103   0.97861   0.55870   0.00000  Uiso   1.00
C554   C     0.11448   0.99851   0.56320   0.00000  Uiso   1.00
C555   C     0.21531   0.51733   0.39371   0.00000  Uiso   1.00
C556   C     0.18267   0.99362   0.35898   0.00000  Uiso   1.00
C557   C     0.33883   0.97838   0.44146   0.00000  Uiso   1.00
C558   C     0.38526   0.99839   0.43706   0.00000  Uiso   1.00
C559   C     0.21138   0.89566   0.50447   0.00000  Uiso   1.00
C560   C     0.22268   0.60495   0.46910   0.00000  Uiso   1.00
C561   C     0.28858   0.89554   0.49557   0.00000  Uiso   1.00
C562   C     0.27744   0.55402   0.53244   0.00000  Uiso   1.00
C563   C     0.21039   0.94647   0.50543   0.00000  Uiso   1.00
C564   C     0.22239   0.55418   0.46771   0.00000  Uiso   1.00
Cu565  Cu    0.25000   0.79821   0.50000   0.00000  Uiso   1.00
Cu566  Cu    0.25000   0.70178   0.50000   0.00000  Uiso   1.00
H567   H     0.29888   0.62467   0.55519   0.00000  Uiso   1.00
H568   H     0.37448   0.65253   0.51163   0.00000  Uiso   1.00
H569   H     0.40493   0.85066   0.44423   0.00000  Uiso   1.00
H570   H     0.09479   0.65037   0.44328   0.00000  Uiso   1.00
H571   H     0.25833   0.99025   0.59789   0.00000  Uiso   1.00
H572   H     0.26946   0.54878   0.62524   0.00000  Uiso   1.00
H573   H     0.33366   0.96256   0.62265   0.00000  Uiso   1.00
H574   H     0.29930   0.97923   0.34039   0.00000  Uiso   1.00
H575   H     0.34215   0.51972   0.65334   0.00000  Uiso   1.00
H576   H     0.18416   0.50607   0.57351   0.00000  Uiso   1.00
H577   H     0.16322   0.94500   0.58104   0.00000  Uiso   1.00
H578   H     0.18062   0.87665   0.50771   0.00000  Uiso   1.00
H579   H     0.09037   0.97185   0.54893   0.00000  Uiso   1.00
H580   H     0.10695   0.50603   0.60227   0.00000  Uiso   1.00
H581   H     0.11137   0.53252   0.54195   0.00000  Uiso   1.00
H582   H     0.24143   0.99042   0.40217   0.00000  Uiso   1.00
H583   H     0.23016   0.54901   0.37488   0.00000  Uiso   1.00
H584   H     0.15744   0.52022   0.34699   0.00000  Uiso   1.00
H585   H     0.20032   0.97964   0.65975   0.00000  Uiso   1.00
H586   H     0.16612   0.96300   0.37758   0.00000  Uiso   1.00
H587   H     0.31555   0.50579   0.42660   0.00000  Uiso   1.00
H588   H     0.33689   0.94476   0.41912   0.00000  Uiso   1.00
H589   H     0.20103   0.62496   0.44491   0.00000  Uiso   1.00
H590   H     0.38810   0.53241   0.45831   0.00000  Uiso   1.00
H591   H     0.39280   0.50592   0.39800   0.00000  Uiso   1.00
H592   H     0.40952   0.97180   0.45138   0.00000  Uiso   1.00
H593   H     0.31937   0.87645   0.49238   0.00000  Uiso   1.00
H594   H     0.02887   0.81802   0.53812   0.00000  Uiso   1.00
H595   H     0.47129   0.68120   0.53583   0.00000  Uiso   1.00
H596   H     0.47109   0.81891   0.46403   0.00000  Uiso   1.00
H597   H     0.02881   0.68244   0.46273   0.00000  Uiso   1.00
H598   H     0.09496   0.84945   0.55824   0.00000  Uiso   1.00
N599   N     0.25000   0.62934   0.50000   0.00000  Uiso   1.00
N600   N     0.25000   0.87065   0.50000   0.00000  Uiso   1.00
O601   O     0.18573   0.79071   0.50000   0.00000  Uiso   1.00
O602   O     0.38695   0.67108   0.53945   0.00000  Uiso   1.00
O603   O     0.38383   0.82611   0.45623   0.00000  Uiso   1.00
O604   O     0.11603   0.67429   0.45636   0.00000  Uiso   1.00
O605   O     0.30680   0.53119   0.56360   0.00000  Uiso   1.00
O606   O     0.17009   0.96951   0.50889   0.00000  Uiso   1.00
O607   O     0.19298   0.53152   0.43661   0.00000  Uiso   1.00
O608   O     0.32976   0.96923   0.49124   0.00000  Uiso   1.00
O609   O     0.31427   0.70928   0.50000   0.00000  Uiso   1.00
O610   O     0.31427   0.79071   0.50000   0.00000  Uiso   1.00
O611   O     0.18573   0.70928   0.50000   0.00000  Uiso   1.00
O612   O     0.25000   0.79071   0.42946   0.00000  Uiso   1.00
O613   O     0.25000   0.70929   0.57054   0.00000  Uiso   1.00
O614   O     0.25000   0.79071   0.57054   0.00000  Uiso   1.00
O615   O     0.25000   0.70929   0.42946   0.00000  Uiso   1.00
O616   O     0.11614   0.82540   0.54520   0.00000  Uiso   1.00
C617   C     0.66489   0.75004   0.50015   0.00000  Uiso   1.00
C618   C     0.78949   0.94633   0.49465   0.00000  Uiso   1.00
C619   C     0.74999   0.75000   0.40684   0.00000  Uiso   1.00
C620   C     0.75001   0.75000   0.59316   0.00000  Uiso   1.00
C621   C     0.74990   0.52754   0.50008   0.00000  Uiso   1.00
C622   C     0.74992   0.97293   0.50005   0.00000  Uiso   1.00
C623   C     0.74999   0.74999   0.35516   0.00000  Uiso   1.00
C624   C     0.75000   0.74999   0.64484   0.00000  Uiso   1.00
C625   C     0.54707   0.78866   0.52143   0.00000  Uiso   1.00
C626   C     0.95335   0.71117   0.51977   0.00000  Uiso   1.00
C627   C     0.95300   0.78906   0.47978   0.00000  Uiso   1.00
C628   C     0.83517   0.74986   0.49962   0.00000  Uiso   1.00
C629   C     0.54704   0.71178   0.47938   0.00000  Uiso   1.00
C630   C     0.59324   0.78875   0.52220   0.00000  Uiso   1.00
C631   C     0.90757   0.71013   0.51886   0.00000  Uiso   1.00
C632   C     0.90680   0.78893   0.47843   0.00000  Uiso   1.00
C633   C     0.59319   0.71141   0.47874   0.00000  Uiso   1.00
C634   C     0.61644   0.75010   0.50035   0.00000  Uiso   1.00
C635   C     0.88371   0.74949   0.49878   0.00000  Uiso   1.00
C636   C     0.52419   0.75030   0.50035   0.00000  Uiso   1.00
C637   C     0.97606   0.75033   0.50024   0.00000  Uiso   1.00
C638   C     0.78439   0.51706   0.60643   0.00000  Uiso   1.00
C639   C     0.77725   0.60478   0.53098   0.00000  Uiso   1.00
C640   C     0.81700   0.99320   0.64123   0.00000  Uiso   1.00
C641   C     0.66103   0.97861   0.55870   0.00000  Uiso   1.00
C642   C     0.61448   0.99851   0.56320   0.00000  Uiso   1.00
C643   C     0.71531   0.51733   0.39371   0.00000  Uiso   1.00
C644   C     0.68267   0.99362   0.35898   0.00000  Uiso   1.00
C645   C     0.83883   0.97838   0.44146   0.00000  Uiso   1.00
C646   C     0.88526   0.99839   0.43706   0.00000  Uiso   1.00
C647   C     0.71138   0.89566   0.50447   0.00000  Uiso   1.00
C648   C     0.72268   0.60495   0.46910   0.00000  Uiso   1.00
C649   C     0.78858   0.89554   0.49557   0.00000  Uiso   1.00
C650   C     0.77744   0.55402   0.53244   0.00000  Uiso   1.00
C651   C     0.71039   0.94647   0.50543   0.00000  Uiso   1.00
C652   C     0.72239   0.55418   0.46771   0.00000  Uiso   1.00
Cu653  Cu    0.75000   0.79821   0.50000   0.00000  Uiso   1.00
Cu654  Cu    0.75000   0.70178   0.50000   0.00000  Uiso   1.00
H655   H     0.79888   0.62467   0.55519   0.00000  Uiso   1.00
H656   H     0.87448   0.65253   0.51163   0.00000  Uiso   1.00
H657   H     0.90493   0.85066   0.44423   0.00000  Uiso   1.00
H658   H     0.59479   0.65037   0.44328   0.00000  Uiso   1.00
H659   H     0.75833   0.99025   0.59789   0.00000  Uiso   1.00
H660   H     0.76946   0.54878   0.62524   0.00000  Uiso   1.00
H661   H     0.83366   0.96256   0.62265   0.00000  Uiso   1.00
H662   H     0.79930   0.97923   0.34039   0.00000  Uiso   1.00
H663   H     0.84215   0.51972   0.65334   0.00000  Uiso   1.00
H664   H     0.68416   0.50607   0.57351   0.00000  Uiso   1.00
H665   H     0.66322   0.94500   0.58104   0.00000  Uiso   1.00
H666   H     0.68062   0.87665   0.50771   0.00000  Uiso   1.00
H667   H     0.59037   0.97185   0.54893   0.00000  Uiso   1.00
H668   H     0.60695   0.50603   0.60227   0.00000  Uiso   1.00
H669   H     0.61137   0.53252   0.54195   0.00000  Uiso   1.00
H670   H     0.74143   0.99042   0.40217   0.00000  Uiso   1.00
H671   H     0.73016   0.54901   0.37488   0.00000  Uiso   1.00
H672   H     0.65744   0.52022   0.34699   0.00000  Uiso   1.00
H673   H     0.70032   0.97964   0.65975   0.00000  Uiso   1.00
H674   H     0.66612   0.96300   0.37758   0.00000  Uiso   1.00
H675   H     0.81555   0.50579   0.42660   0.00000  Uiso   1.00
H676   H     0.83689   0.94476   0.41912   0.00000  Uiso   1.00
H677   H     0.70103   0.62496   0.44491   0.00000  Uiso   1.00
H678   H     0.88810   0.53241   0.45831   0.00000  Uiso   1.00
H679   H     0.89280   0.50592   0.39800   0.00000  Uiso   1.00
H680   H     0.90952   0.97180   0.45138   0.00000  Uiso   1.00
H681   H     0.81937   0.87645   0.49238   0.00000  Uiso   1.00
H682   H     0.52887   0.81802   0.53812   0.00000  Uiso   1.00
H683   H     0.97129   0.68120   0.53583   0.00000  Uiso   1.00
H684   H     0.97109   0.81891   0.46403   0.00000  Uiso   1.00
H685   H     0.52881   0.68244   0.46273   0.00000  Uiso   1.00
H686   H     0.59496   0.84945   0.55824   0.00000  Uiso   1.00
N687   N     0.75000   0.62934   0.50000   0.00000  Uiso   1.00
N688   N     0.75000   0.87065   0.50000   0.00000  Uiso   1.00
O689   O     0.68573   0.79071   0.50000   0.00000  Uiso   1.00
O690   O     0.88695   0.67108   0.53945   0.00000  Uiso   1.00
O691   O     0.88383   0.82611   0.45623   0.00000  Uiso   1.00
O692   O     0.61603   0.67429   0.45636   0.00000  Uiso   1.00
O693   O     0.80680   0.53119   0.56360   0.00000  Uiso   1.00
O694   O     0.67009   0.96951   0.50889   0.00000  Uiso   1.00
O695   O     0.69298   0.53152   0.43661   0.00000  Uiso   1.00
O696   O     0.82976   0.96923   0.49124   0.00000  Uiso   1.00
O697   O     0.81427   0.70928   0.50000   0.00000  Uiso   1.00
O698   O     0.81427   0.79071   0.50000   0.00000  Uiso   1.00
O699   O     0.68573   0.70928   0.50000   0.00000  Uiso   1.00
O700   O     0.75000   0.79071   0.42946   0.00000  Uiso   1.00
O701   O     0.75000   0.70929   0.57054   0.00000  Uiso   1.00
O702   O     0.75000   0.79071   0.57054   0.00000  Uiso   1.00
O703   O     0.75000   0.70929   0.42946   0.00000  Uiso   1.00
O704   O     0.61614   0.82540   0.54520   0.00000  Uiso   1.00
C705   C     0.16489   0.25004   0.83348   0.00000  Uiso   1.00
C706   C     0.28949   0.44633   0.82799   0.00000  Uiso   1.00
C707   C     0.24999   0.25000   0.74017   0.00000  Uiso   1.00
C708   C     0.25001   0.25000   0.92649   0.00000  Uiso   1.00
C709   C     0.24990   0.02754   0.83341   0.00000  Uiso   1.00
C710   C     0.24992   0.47293   0.83338   0.00000  Uiso   1.00
C711   C     0.24999   0.24999   0.68850   0.00000  Uiso   1.00
C712   C     0.25000   0.24999   0.97817   0.00000  Uiso   1.00
C713   C     0.04707   0.28866   0.85476   0.00000  Uiso   1.00
C714   C     0.45335   0.21117   0.85310   0.00000  Uiso   1.00
C715   C     0.45300   0.28906   0.81311   0.00000  Uiso   1.00
C716   C     0.33517   0.24986   0.83295   0.00000  Uiso   1.00
C717   C     0.04704   0.21178   0.81271   0.00000  Uiso   1.00
C718   C     0.09324   0.28875   0.85553   0.00000  Uiso   1.00
C719   C     0.40757   0.21013   0.85219   0.00000  Uiso   1.00
C720   C     0.40680   0.28893   0.81176   0.00000  Uiso   1.00
C721   C     0.09319   0.21141   0.81208   0.00000  Uiso   1.00
C722   C     0.11644   0.25010   0.83368   0.00000  Uiso   1.00
C723   C     0.38371   0.24949   0.83212   0.00000  Uiso   1.00
C724   C     0.02419   0.25030   0.83368   0.00000  Uiso   1.00
C725   C     0.47606   0.25033   0.83357   0.00000  Uiso   1.00
C726   C     0.28439   0.01706   0.93976   0.00000  Uiso   1.00
C727   C     0.27725   0.10478   0.86431   0.00000  Uiso   1.00
C728   C     0.31700   0.49320   0.97456   0.00000  Uiso   1.00
C729   C     0.16103   0.47861   0.89203   0.00000  Uiso   1.00
C730   C     0.11448   0.49851   0.89654   0.00000  Uiso   1.00
C731   C     0.21531   0.01733   0.72704   0.00000  Uiso   1.00
C732   C     0.18267   0.49362   0.69232   0.00000  Uiso   1.00
C733   C     0.33883   0.47838   0.77479   0.00000  Uiso   1.00
C734   C     0.38526   0.49839   0.77039   0.00000  Uiso   1.00
C735   C     0.21138   0.39566   0.83780   0.00000  Uiso   1.00
C736   C     0.22268   0.10495   0.80243   0.00000  Uiso   1.00
C737   C     0.28858   0.39554   0.82891   0.00000  Uiso   1.00
C738   C     0.27744   0.05402   0.86577   0.00000  Uiso   1.00
C739   C     0.21039   0.44647   0.83876   0.00000  Uiso   1.00
C740   C     0.22239   0.05418   0.80104   0.00000  Uiso   1.00
Cu741  Cu    0.25000   0.29821   0.83333   0.00000  Uiso   1.00
Cu742  Cu    0.25000   0.20178   0.83333   0.00000  Uiso   1.00
H743   H     0.29888   0.12467   0.88852   0.00000  Uiso   1.00
H744   H     0.37448   0.15253   0.84496   0.00000  Uiso   1.00
H745   H     0.40493   0.35066   0.77757   0.00000  Uiso   1.00
H746   H     0.09479   0.15037   0.77661   0.00000  Uiso   1.00
H747   H     0.25833   0.49025   0.93122   0.00000  Uiso   1.00
H748   H     0.26946   0.04878   0.95857   0.00000  Uiso   1.00
H749   H     0.33366   0.46256   0.95598   0.00000  Uiso   1.00
H750   H     0.29930   0.47923   0.67373   0.00000  Uiso   1.00
H751   H     0.34215   0.01972   0.98667   0.00000  Uiso   1.00
H752   H     0.18416   0.00607   0.90684   0.00000  Uiso   1.00
H753   H     0.16322   0.44500   0.91437   0.00000  Uiso   1.00
H754   H     0.18062   0.37665   0.84104   0.00000  Uiso   1.00
H755   H     0.09037   0.47185   0.88227   0.00000  Uiso   1.00
H756   H     0.10695   0.00603   0.93560   0.00000  Uiso   1.00
H757   H     0.11137   0.03252   0.87528   0.00000  Uiso   1.00
H758   H     0.24143   0.49042   0.73550   0.00000  Uiso   1.00
H759   H     0.23016   0.04901   0.70821   0.00000  Uiso   1.00
H760   H     0.15744   0.02022   0.68032   0.00000  Uiso   1.00
H761   H     0.20032   0.47964   0.99308   0.00000  Uiso   1.00
H762   H     0.16612   0.46300   0.71091   0.00000  Uiso   1.00
H763   H     0.31555   0.00579   0.75993   0.00000  Uiso   1.00
H764   H     0.33689   0.44476   0.75246   0.00000  Uiso   1.00
H765   H     0.20103   0.12496   0.77824   0.00000  Uiso   1.00
H766   H     0.38810   0.03241   0.79164   0.00000  Uiso   1.00
H767   H     0.39280   0.00592   0.73134   0.00000  Uiso   1.00
H768   H     0.40952   0.47180   0.78472   0.00000  Uiso   1.00
H769   H     0.31937   0.37645   0.82571   0.00000  Uiso   1.00
H770   H     0.02887   0.31802   0.87146   0.00000  Uiso   1.00
H771   H     0.47129   0.18120   0.86916   0.00000  Uiso   1.00
H772   H     0.47109   0.31891   0.79736   0.00000  Uiso   1.00
H773   H     0.02881   0.18244   0.79607   0.00000  Uiso   1.00
H774   H     0.09496   0.34945   0.89157   0.00000  Uiso   1.00
N775   N     0.25000   0.12934   0.83333   0.00000  Uiso   1.00
N776   N     0.25000   0.37065   0.83333   0.00000  Uiso   1.00
O777   O     0.18573   0.29071   0.83334   0.00000  Uiso   1.00
O778   O     0.38695   0.17108   0.87279   0.00000  Uiso   1.00
O779   O     0.38383   0.32611   0.78956   0.00000  Uiso   1.00
O780   O     0.11603   0.17429   0.78970   0.00000  Uiso   1.00
O781   O     0.30680   0.03119   0.89693   0.00000  Uiso   1.00
O782   O     0.17009   0.46951   0.84223   0.00000  Uiso   1.00
O783   O     0.19298   0.03152   0.76994   0.00000  Uiso   1.00
O784   O     0.32976   0.46923   0.82458   0.00000  Uiso   1.00
O785   O     0.31427   0.20928   0.83333   0.00000  Uiso   1.00
O786   O     0.31427   0.29071   0.83333   0.00000  Uiso   1.00
O787   O     0.18573   0.20928   0.83334   0.00000  Uiso   1.00
O788   O     0.25000   0.29071   0.76280   0.00000  Uiso   1.00
O789   O     0.25000   0.20929   0.90387   0.00000  Uiso   1.00
O790   O     0.25000   0.29071   0.90387   0.00000  Uiso   1.00
O791   O     0.25000   0.20929   0.76280   0.00000  Uiso   1.00
O792   O     0.11614   0.32540   0.87853   0.00000  Uiso   1.00
C793   C     0.66489   0.25004   0.83348   0.00000  Uiso   1.00
C794   C     0.78949   0.44633   0.82799   0.00000  Uiso   1.00
C795   C     0.74999   0.25000   0.74017   0.00000  Uiso   1.00
C796   C     0.75001   0.25000   0.92649   0.00000  Uiso   1.00
C797   C     0.74990   0.02754   0.83341   0.00000  Uiso   1.00
C798   C     0.74992   0.47293   0.83338   0.00000  Uiso   1.00
C799   C     0.74999   0.24999   0.68850   0.00000  Uiso   1.00
C800   C     0.75000   0.24999   0.97817   0.00000  Uiso   1.00
C801   C     0.54707   0.28866   0.85476   0.00000  Uiso   1.00
C802   C     0.95335   0.21117   0.85310   0.00000  Uiso   1.00
C803   C     0.95300   0.28906   0.81311   0.00000  Uiso   1.00
C804   C     0.83517   0.24986   0.83295   0.00000  Uiso   1.00
C805   C     0.54704   0.21178   0.81271   0.00000  Uiso   1.00
C806   C     0.59324   0.28875   0.85553   0.00000  Uiso   1.00
C807   C     0.90757   0.21013   0.85219   0.00000  Uiso   1.00
C808   C     0.90680   0.28893   0.81176   0.00000  Uiso   1.00
C809   C     0.59319   0.21141   0.81208   0.00000  Uiso   1.00
C810   C     0.61644   0.25010   0.83368   0.00000  Uiso   1.00
C811   C     0.88371   0.24949   0.83212   0.00000  Uiso   1.00
C812   C     0.52419   0.25030   0.83368   0.00000  Uiso   1.00
C813   C     0.97606   0.25033   0.83357   0.00000  Uiso   1.00
C814   C     0.78439   0.01706   0.93976   0.00000  Uiso   1.00
C815   C     0.77725   0.10478   0.86431   0.00000  Uiso   1.00
C816   C     0.81700   0.49320   0.97456   0.00000  Uiso   1.00
C817   C     0.66103   0.47861   0.89203   0.00000  Uiso   1.00
C818   C     0.61448   0.49851   0.89654   0.00000  Uiso   1.00
C819   C     0.71531   0.01733   0.72704   0.00000  Uiso   1.00
C820   C     0.68267   0.49362   0.69232   0.00000  Uiso   1.00
C821   C     0.83883   0.47838   0.77479   0.00000  Uiso   1.00
C822   C     0.88526   0.49839   0.77039   0.00000  Uiso   1.00
C823   C     0.71138   0.39566   0.83780   0.00000  Uiso   1.00
C824   C     0.72268   0.10495   0.80243   0.00000  Uiso   1.00
C825   C     0.78858   0.39554   0.82891   0.00000  Uiso   1.00
C826   C     0.77744   0.05402   0.86577   0.00000  Uiso   1.00
C827   C     0.71039   0.44647   0.83876   0.00000  Uiso   1.00
C828   C     0.72239   0.05418   0.80104   0.00000  Uiso   1.00
Cu829  Cu    0.75000   0.29821   0.83333   0.00000  Uiso   1.00
Cu830  Cu    0.75000   0.20178   0.83333   0.00000  Uiso   1.00
H831   H     0.79888   0.12467   0.88852   0.00000  Uiso   1.00
H832   H     0.87448   0.15253   0.84496   0.00000  Uiso   1.00
H833   H     0.90493   0.35066   0.77757   0.00000  Uiso   1.00
H834   H     0.59479   0.15037   0.77661   0.00000  Uiso   1.00
H835   H     0.75833   0.49025   0.93122   0.00000  Uiso   1.00
H836   H     0.76946   0.04878   0.95857   0.00000  Uiso   1.00
H837   H     0.83366   0.46256   0.95598   0.00000  Uiso   1.00
H838   H     0.79930   0.47923   0.67373   0.00000  Uiso   1.00
H839   H     0.84215   0.01972   0.98667   0.00000  Uiso   1.00
H840   H     0.68416   0.00607   0.90684   0.00000  Uiso   1.00
H841   H     0.66322   0.44500   0.91437   0.00000  Uiso   1.00
H842   H     0.68062   0.37665   0.84104   0.00000  Uiso   1.00
H843   H     0.59037   0.47185   0.88227   0.00000  Uiso   1.00
H844   H     0.60695   0.00603   0.93560   0.00000  Uiso   1.00
H845   H     0.61137   0.03252   0.87528   0.00000  Uiso   1.00
H846   H     0.74143   0.49042   0.73550   0.00000  Uiso   1.00
H847   H     0.73016   0.04901   0.70821   0.00000  Uiso   1.00
H848   H     0.65744   0.02022   0.68032   0.00000  Uiso   1.00
H849   H     0.70032   0.47964   0.99308   0.00000  Uiso   1.00
H850   H     0.66612   0.46300   0.71091   0.00000  Uiso   1.00
H851   H     0.81555   0.00579   0.75993   0.00000  Uiso   1.00
H852   H     0.83689   0.44476   0.75246   0.00000  Uiso   1.00
H853   H     0.70103   0.12496   0.77824   0.00000  Uiso   1.00
H854   H     0.88810   0.03241   0.79164   0.00000  Uiso   1.00
H855   H     0.89280   0.00592   0.73134   0.00000  Uiso   1.00
H856   H     0.90952   0.47180   0.78472   0.00000  Uiso   1.00
H857   H     0.81937   0.37645   0.82571   0.00000  Uiso   1.00
H858   H     0.52887   0.31802   0.87146   0.00000  Uiso   1.00
H859   H     0.97129   0.18120   0.86916   0.00000  Uiso   1.00
H860   H     0.97109   0.31891   0.79736   0.00000  Uiso   1.00
H861   H     0.52881   0.18244   0.79607   0.00000  Uiso   1.00
H862   H     0.59496   0.34945   0.89157   0.00000  Uiso   1.00
N863   N     0.75000   0.12934   0.83333   0.00000  Uiso   1.00
N864   N     0.75000   0.37065   0.83333   0.00000  Uiso   1.00
O865   O     0.68573   0.29071   0.83334   0.00000  Uiso   1.00
O866   O     0.88695   0.17108   0.87279   0.00000  Uiso   1.00
O867   O     0.88383   0.32611   0.78956   0.00000  Uiso   1.00
O868   O     0.61603   0.17429   0.78970   0.00000  Uiso   1.00
O869   O     0.80680   0.03119   0.89693   0.00000  Uiso   1.00
O870   O     0.67009   0.46951   0.84223   0.00000  Uiso   1.00
O871   O     0.69298   0.03152   0.76994   0.00000  Uiso   1.00
O872   O     0.82976   0.46923   0.82458   0.00000  Uiso   1.00
O873   O     0.81427   0.20928   0.83333   0.00000  Uiso   1.00
O874   O     0.81427   0.29071   0.83333   0.00000  Uiso   1.00
O875   O     0.68573   0.20928   0.83334   0.00000  Uiso   1.00
O876   O     0.75000   0.29071   0.76280   0.00000  Uiso   1.00
O877   O     0.75000   0.20929   0.90387   0.00000  Uiso   1.00
O878   O     0.75000   0.29071   0.90387   0.00000  Uiso   1.00
O879   O     0.75000   0.20929   0.76280   0.00000  Uiso   1.00
O880   O     0.61614   0.32540   0.87853   0.00000  Uiso   1.00
C881   C     0.16489   0.75004   0.83348   0.00000  Uiso   1.00
C882   C     0.28949   0.94633   0.82799   0.00000  Uiso   1.00
C883   C     0.24999   0.75000   0.74017   0.00000  Uiso   1.00
C884   C     0.25001   0.75000   0.92649   0.00000  Uiso   1.00
C885   C     0.24990   0.52754   0.83341   0.00000  Uiso   1.00
C886   C     0.24992   0.97293   0.83338   0.00000  Uiso   1.00
C887   C     0.24999   0.74999   0.68850   0.00000  Uiso   1.00
C888   C     0.25000   0.74999   0.97817   0.00000  Uiso   1.00
C889   C     0.04707   0.78866   0.85476   0.00000  Uiso   1.00
C890   C     0.45335   0.71117   0.85310   0.00000  Uiso   1.00
C891   C     0.45300   0.78906   0.81311   0.00000  Uiso   1.00
C892   C     0.33517   0.74986   0.83295   0.00000  Uiso   1.00
C893   C     0.04704   0.71178   0.81271   0.00000  Uiso   1.00
C894   C     0.09324   0.78875   0.85553   0.00000  Uiso   1.00
C895   C     0.40757   0.71013   0.85219   0.00000  Uiso   1.00
C896   C     0.40680   0.78893   0.81176   0.00000  Uiso   1.00
C897   C     0.09319   0.71141   0.81208   0.00000  Uiso   1.00
C898   C     0.11644   0.75010   0.83368   0.00000  Uiso   1.00
C899   C     0.38371   0.74949   0.83212   0.00000  Uiso   1.00
C900   C     0.02419   0.75030   0.83368   0.00000  Uiso   1.00
C901   C     0.47606   0.75033   0.83357   0.00000  Uiso   1.00
C902   C     0.28439   0.51706   0.93976   0.00000  Uiso   1.00
C903   C     0.27725   0.60478   0.86431   0.00000  Uiso   1.00
C904   C     0.31700   0.99320   0.97456   0.00000  Uiso   1.00
C905   C     0.16103   0.97861   0.89203   0.00000  Uiso   1.00
C906   C     0.11448   0.99851   0.89654   0.00000  Uiso   1.00
C907   C     0.21531   0.51733   0.72704   0.00000  Uiso   1.00
C908   C     0.18267   0.99362   0.69232   0.00000  Uiso   1.00
C909   C     0.33883   0.97838   0.77479   0.00000  Uiso   1.00
C910   C     0.38526   0.99839   0.77039   0.00000  Uiso   1.00
C911   C     0.21138   0.89566   0.83780   0.00000  Uiso   1.00
C912   C     0.22268   0.60495   0.80243   0.00000  Uiso   1.00
C913   C     0.28858   0.89554   0.82891   0.00000  Uiso   1.00
C914   C     0.27744   0.55402   0.86577   0.00000  Uiso   1.00
C915   C     0.21039   0.94647   0.83876   0.00000  Uiso   1.00
C916   C     0.22239   0.55418   0.80104   0.00000  Uiso   1.00
Cu917  Cu    0.25000   0.79821   0.83333   0.00000  Uiso   1.00
Cu918  Cu    0.25000   0.70178   0.83333   0.00000  Uiso   1.00
H919   H     0.29888   0.62467   0.88852   0.00000  Uiso   1.00
H920   H     0.37448   0.65253   0.84496   0.00000  Uiso   1.00
H921   H     0.40493   0.85066   0.77757   0.00000  Uiso   1.00
H922   H     0.09479   0.65037   0.77661   0.00000  Uiso   1.00
H923   H     0.25833   0.99025   0.93122   0.00000  Uiso   1.00
H924   H     0.26946   0.54878   0.95857   0.00000  Uiso   1.00
H925   H     0.33366   0.96256   0.95598   0.00000  Uiso   1.00
H926   H     0.29930   0.97923   0.67373   0.00000  Uiso   1.00
H927   H     0.34215   0.51972   0.98667   0.00000  Uiso   1.00
H928   H     0.18416   0.50607   0.90684   0.00000  Uiso   1.00
H929   H     0.16322   0.94500   0.91437   0.00000  Uiso   1.00
H930   H     0.18062   0.87665   0.84104   0.00000  Uiso   1.00
H931   H     0.09037   0.97185   0.88227   0.00000  Uiso   1.00
H932   H     0.10695   0.50603   0.93560   0.00000  Uiso   1.00
H933   H     0.11137   0.53252   0.87528   0.00000  Uiso   1.00
H934   H     0.24143   0.99042   0.73550   0.00000  Uiso   1.00
H935   H     0.23016   0.54901   0.70821   0.00000  Uiso   1.00
H936   H     0.15744   0.52022   0.68032   0.00000  Uiso   1.00
H937   H     0.20032   0.97964   0.99308   0.00000  Uiso   1.00
H938   H     0.16612   0.96300   0.71091   0.00000  Uiso   1.00
H939   H     0.31555   0.50579   0.75993   0.00000  Uiso   1.00
H940   H     0.33689   0.94476   0.75246   0.00000  Uiso   1.00
H941   H     0.20103   0.62496   0.77824   0.00000  Uiso   1.00
H942   H     0.38810   0.53241   0.79164   0.00000  Uiso   1.00
H943   H     0.39280   0.50592   0.73134   0.00000  Uiso   1.00
H944   H     0.40952   0.97180   0.78472   0.00000  Uiso   1.00
H945   H     0.31937   0.87645   0.82571   0.00000  Uiso   1.00
H946   H     0.02887   0.81802   0.87146   0.00000  Uiso   1.00
H947   H     0.47129   0.68120   0.86916   0.00000  Uiso   1.00
H948   H     0.47109   0.81891   0.79736   0.00000  Uiso   1.00
H949   H     0.02881   0.68244   0.79607   0.00000  Uiso   1.00
H950   H     0.09496   0.84945   0.89157   0.00000  Uiso   1.00
N951   N     0.25000   0.62934   0.83333   0.00000  Uiso   1.00
N952   N     0.25000   0.87065   0.83333   0.00000  Uiso   1.00
O953   O     0.18573   0.79071   0.83334   0.00000  Uiso   1.00
O954   O     0.38695   0.67108   0.87279   0.00000  Uiso   1.00
O955   O     0.38383   0.82611   0.78956   0.00000  Uiso   1.00
O956   O     0.11603   0.67429   0.78970   0.00000  Uiso   1.00
O957   O     0.30680   0.53119   0.89693   0.00000  Uiso   1.00
O958   O     0.17009   0.96951   0.84223   0.00000  Uiso   1.00
O959   O     0.19298   0.53152   0.76994   0.00000  Uiso   1.00
O960   O     0.32976   0.96923   0.82458   0.00000  Uiso   1.00
O961   O     0.31427   0.70928   0.83333   0.00000  Uiso   1.00
O962   O     0.31427   0.79071   0.83333   0.00000  Uiso   1.00
O963   O     0.18573   0.70928   0.83334   0.00000  Uiso   1.00
O964   O     0.25000   0.79071   0.76280   0.00000  Uiso   1.00
O965   O     0.25000   0.70929   0.90387   0.00000  Uiso   1.00
O966   O     0.25000   0.79071   0.90387   0.00000  Uiso   1.00
O967   O     0.25000   0.70929   0.76280   0.00000  Uiso   1.00
O968   O     0.11614   0.82540   0.87853   0.00000  Uiso   1.00
C969   C     0.66489   0.75004   0.83348   0.00000  Uiso   1.00
C970   C     0.78949   0.94633   0.82799   0.00000  Uiso   1.00
C971   C     0.74999   0.75000   0.74017   0.00000  Uiso   1.00
C972   C     0.75001   0.75000   0.92649   0.00000  Uiso   1.00
C973   C     0.74990   0.52754   0.83341   0.00000  Uiso   1.00
C974   C     0.74992   0.97293   0.83338   0.00000  Uiso   1.00
C975   C     0.74999   0.74999   0.68850   0.00000  Uiso   1.00
C976   C     0.75000   0.74999   0.97817   0.00000  Uiso   1.00
C977   C     0.54707   0.78866   0.85476   0.00000  Uiso   1.00
C978   C     0.95335   0.71117   0.85310   0.00000  Uiso   1.00
C979   C     0.95300   0.78906   0.81311   0.00000  Uiso   1.00
C980   C     0.83517   0.74986   0.83295   0.00000  Uiso   1.00
C981   C     0.54704   0.71178   0.81271   0.00000  Uiso   1.00
C982   C     0.59324   0.78875   0.85553   0.00000  Uiso   1.00
C983   C     0.90757   0.71013   0.85219   0.00000  Uiso   1.00
C984   C     0.90680   0.78893   0.81176   0.00000  Uiso   1.00
C985   C     0.59319   0.71141   0.81208   0.00000  Uiso   1.00
C986   C     0.61644   0.75010   0.83368   0.00000  Uiso   1.00
C987   C     0.88371   0.74949   0.83212   0.00000  Uiso   1.00
C988   C     0.52419   0.75030   0.83368   0.00000  Uiso   1.00
C989   C     0.97606   0.75033   0.83357   0.00000  Uiso   1.00
C990   C     0.78439   0.51706   0.93976   0.00000  Uiso   1.00
C991   C     0.77725   0.60478   0.86431   0.00000  Uiso   1.00
C992   C     0.81700   0.99320   0.97456   0.00000  Uiso   1.00
C993   C     0.66103   0.97861   0.89203   0.00000  Uiso   1.00
C994   C     0.61448   0.99851   0.89654   0.00000  Uiso   1.00
C995   C     0.71531   0.51733   0.72704   0.00000  Uiso   1.00
C996   C     0.68267   0.99362   0.69232   0.00000  Uiso   1.00
C997   C     0.83883   0.97838   0.77479   0.00000  Uiso   1.00
C998   C     0.88526   0.99839   0.77039   0.00000  Uiso   1.00
C999   C     0.71138   0.89566   0.83780   0.00000  Uiso   1.00
C1000  C     0.72268   0.60495   0.80243   0.00000  Uiso   1.00
C1001  C     0.78858   0.89554   0.82891   0.00000  Uiso   1.00
C1002  C     0.77744   0.55402   0.86577   0.00000  Uiso   1.00
C1003  C     0.71039   0.94647   0.83876   0.00000  Uiso   1.00
C1004  C     0.72239   0.55418   0.80104   0.00000  Uiso   1.00
Cu1005 Cu    0.75000   0.79821   0.83333   0.00000  Uiso   1.00
Cu1006 Cu    0.75000   0.70178   0.83333   0.00000  Uiso   1.00
H1007  H     0.79888   0.62467   0.88852   0.00000  Uiso   1.00
H1008  H     0.87448   0.65253   0.84496   0.00000  Uiso   1.00
H1009  H     0.90493   0.85066   0.77757   0.00000  Uiso   1.00
H1010  H     0.59479   0.65037   0.77661   0.00000  Uiso   1.00
H1011  H     0.75833   0.99025   0.93122   0.00000  Uiso   1.00
H1012  H     0.76946   0.54878   0.95857   0.00000  Uiso   1.00
H1013  H     0.83366   0.96256   0.95598   0.00000  Uiso   1.00
H1014  H     0.79930   0.97923   0.67373   0.00000  Uiso   1.00
H1015  H     0.84215   0.51972   0.98667   0.00000  Uiso   1.00
H1016  H     0.68416   0.50607   0.90684   0.00000  Uiso   1.00
H1017  H     0.66322   0.94500   0.91437   0.00000  Uiso   1.00
H1018  H     0.68062   0.87665   0.84104   0.00000  Uiso   1.00
H1019  H     0.59037   0.97185   0.88227   0.00000  Uiso   1.00
H1020  H     0.60695   0.50603   0.93560   0.00000  Uiso   1.00
H1021  H     0.61137   0.53252   0.87528   0.00000  Uiso   1.00
H1022  H     0.74143   0.99042   0.73550   0.00000  Uiso   1.00
H1023  H     0.73016   0.54901   0.70821   0.00000  Uiso   1.00
H1024  H     0.65744   0.52022   0.68032   0.00000  Uiso   1.00
H1025  H     0.70032   0.97964   0.99308   0.00000  Uiso   1.00
H1026  H     0.66612   0.96300   0.71091   0.00000  Uiso   1.00
H1027  H     0.81555   0.50579   0.75993   0.00000  Uiso   1.00
H1028  H     0.83689   0.94476   0.75246   0.00000  Uiso   1.00
H1029  H     0.70103   0.62496   0.77824   0.00000  Uiso   1.00
H1030  H     0.88810   0.53241   0.79164   0.00000  Uiso   1.00
H1031  H     0.89280   0.50592   0.73134   0.00000  Uiso   1.00
H1032  H     0.90952   0.97180   0.78472   0.00000  Uiso   1.00
H1033  H     0.81937   0.87645   0.82571   0.00000  Uiso   1.00
H1034  H     0.52887   0.81802   0.87146   0.00000  Uiso   1.00
H1035  H     0.97129   0.68120   0.86916   0.00000  Uiso   1.00
H1036  H     0.97109   0.81891   0.79736   0.00000  Uiso   1.00
H1037  H     0.52881   0.68244   0.79607   0.00000  Uiso   1.00
H1038  H     0.59496   0.84945   0.89157   0.00000  Uiso   1.00
N1039  N     0.75000   0.62934   0.83333   0.00000  Uiso   1.00
N1040  N     0.75000   0.87065   0.83333   0.00000  Uiso   1.00
O1041  O     0.68573   0.79071   0.83334   0.00000  Uiso   1.00
O1042  O     0.88695   0.67108   0.87279   0.00000  Uiso   1.00
O1043  O     0.88383   0.82611   0.78956   0.00000  Uiso   1.00
O1044  O     0.61603   0.67429   0.78970   0.00000  Uiso   1.00
O1045  O     0.80680   0.53119   0.89693   0.00000  Uiso   1.00
O1046  O     0.67009   0.96951   0.84223   0.00000  Uiso   1.00
O1047  O     0.69298   0.53152   0.76994   0.00000  Uiso   1.00
O1048  O     0.82976   0.96923   0.82458   0.00000  Uiso   1.00
O1049  O     0.81427   0.70928   0.83333   0.00000  Uiso   1.00
O1050  O     0.81427   0.79071   0.83333   0.00000  Uiso   1.00
O1051  O     0.68573   0.70928   0.83334   0.00000  Uiso   1.00
O1052  O     0.75000   0.79071   0.76280   0.00000  Uiso   1.00
O1053  O     0.75000   0.70929   0.90387   0.00000  Uiso   1.00
O1054  O     0.75000   0.79071   0.90387   0.00000  Uiso   1.00
O1055  O     0.75000   0.70929   0.76280   0.00000  Uiso   1.00
O1056  O     0.61614   0.82540   0.87853   0.00000  Uiso   1.00
loop_
_geom_bond_atom_site_label_1
_geom_bond_atom_site_label_2
_geom_bond_distance
_geom_bond_site_symmetry_2
_ccdc_geom_bond_type
C1     C18     1.469   .     S
C1     O83     1.294   .     A
C1     O73     1.295   .     A
C2     C6      1.415   .     A
C2     C33     1.409   .     A
C2     O80     1.382   .     S
C3     O87     1.287   .     A
C3     O84     1.287   .     A
C3     C7      1.410   .     S
C4     C8      1.410   .     S
C4     O86     1.287   .     A
C4     O85     1.287   .     A
C5     C36     1.419   .     A
C5     C34     1.419   .     A
C5     C182    1.515   1_545 S
C6     C35     1.415   .     A
C6     C181    1.515   .     S
C7     C712    1.191   1_554 S
C8     C359    1.191   .     S
C9     H66     1.084   .     S
C9     C14     1.400   .     A
C9     C20     1.395   .     A
C10    H67     1.084   .     S
C10    C15     1.389   .     A
C10    C21     1.394   .     A
C11    C21     1.396   .     A
C11    C16     1.402   .     A
C11    H68     1.084   .     S
C12    O82     1.297   .     A
C12    C19     1.472   .     S
C12    O81     1.293   .     A
C13    C20     1.396   .     A
C13    C17     1.400   .     A
C13    H69     1.084   .     S
C14    C18     1.414   .     A
C14    O88     1.382   .     S
C15    C19     1.417   .     A
C15    O74     1.373   .     S
C16    O75     1.382   .     S
C16    C19     1.415   .     A
C17    O76     1.383   .     S
C17    C18     1.413   .     A
C20    C109    1.460   1_455 S
C21    C108    1.460   .     S
C22    H44     1.114   .     S
C22    O77     1.410   .     S
C22    C200    1.519   1_545 S
C22    H219    1.111   1_545 S
C23    N71     1.362   .     A
C23    C34     1.409   .     A
C23    H39     1.082   .     S
C24    H45     1.111   .     S
C24    C198    1.519   .     S
C24    H398    1.108   .     S
C24    H223    1.110   .     S
C25    O78     1.410   .     S
C25    C26     1.520   .     S
C25    H49     1.115   .     S
C25    H224    1.112   .     S
C26    H51     1.111   .     S
C26    H228    1.110   .     S
C26    H229    1.111   .     S
C27    O79     1.410   .     S
C27    H55     1.114   .     S
C27    C204    1.519   1_545 S
C27    H230    1.111   1_545 S
C28    H58     1.111   .     S
C28    C203    1.519   .     S
C28    H232    1.110   .     S
C28    H761    1.108   1_554 S
C29    C30     1.520   .     S
C29    H60     1.115   .     S
C29    O80     1.410   .     S
C29    H235    1.112   .     S
C30    H64     1.111   .     S
C30    H238    1.111   .     S
C30    H239    1.110   .     S
C31    N72     1.366   .     A
C31    H50     1.077   .     S
C31    C35     1.410   .     A
C32    C36     1.409   .     A
C32    H61     1.082   .     S
C32    N71     1.362   .     A
C33    H65     1.076   .     S
C33    N72     1.366   .     A
C34    O77     1.382   .     S
C35    O78     1.382   .     S
C36    O79     1.382   .     S
Cu37   O84     1.936   .     S
Cu37   O86     1.936   .     S
Cu37   Cu38    2.675   .     S
Cu37   O82     1.960   .     S
Cu37   O73     1.961   .     S
Cu37   N72     2.009   .     S
Cu38   O83     1.960   .     S
Cu38   O85     1.936   .     S
Cu38   O81     1.961   .     S
Cu38   N71     2.009   .     S
Cu38   O87     1.936   .     S
H40    O74     0.992   .     S
H41    O75     0.992   .     S
H42    O76     0.992   .     S
H43    C198    1.111   .     S
H46    C728    1.108   1_554 S
H47    C200    1.110   1_545 S
H48    C201    1.112   1_545 S
H52    C202    1.110   1_545 S
H53    C202    1.111   1_545 S
H54    C203    1.111   .     S
H56    C204    1.110   1_545 S
H57    C380    1.108   .     S
H59    C205    1.112   1_545 S
H62    C206    1.111   1_545 S
H63    C206    1.110   1_545 S
H70    O88     0.992   .     S
C89    C106    1.469   .     S
C89    O171    1.294   .     A
C89    O161    1.295   .     A
C90    C94     1.415   .     A
C90    C121    1.409   .     A
C90    O168    1.382   .     S
C91    O175    1.287   .     A
C91    O172    1.287   .     A
C91    C95     1.410   .     S
C92    C96     1.410   .     S
C92    O174    1.287   .     A
C92    O173    1.287   .     A
C93    C124    1.419   .     A
C93    C122    1.419   .     A
C93    C270    1.515   1_545 S
C94    C123    1.415   .     A
C94    C269    1.515   .     S
C95    C800    1.191   1_554 S
C96    C447    1.191   .     S
C97    H154    1.084   .     S
C97    C102    1.400   .     A
C97    C108    1.395   .     A
C98    H155    1.084   .     S
C98    C103    1.389   .     A
C98    C109    1.394   .     A
C99    C109    1.396   .     A
C99    C104    1.402   .     A
C99    H156    1.084   .     S
C100   O170    1.297   .     A
C100   C107    1.472   .     S
C100   O169    1.293   .     A
C101   C108    1.396   .     A
C101   C105    1.400   .     A
C101   H157    1.084   .     S
C102   C106    1.414   .     A
C102   O176    1.382   .     S
C103   C107    1.417   .     A
C103   O162    1.373   .     S
C104   O163    1.382   .     S
C104   C107    1.415   .     A
C105   O164    1.383   .     S
C105   C106    1.413   .     A
C109   C20     1.460   1_655 S
C110   H132    1.114   .     S
C110   O165    1.410   .     S
C110   C288    1.519   1_545 S
C110   H307    1.111   1_545 S
C111   N159    1.362   .     A
C111   C122    1.409   .     A
C111   H127    1.082   .     S
C112   H133    1.111   .     S
C112   C286    1.519   .     S
C112   H486    1.108   .     S
C112   H311    1.110   .     S
C113   O166    1.410   .     S
C113   C114    1.520   .     S
C113   H137    1.115   .     S
C113   H312    1.112   .     S
C114   H139    1.111   .     S
C114   H316    1.110   .     S
C114   H317    1.111   .     S
C115   O167    1.410   .     S
C115   H143    1.114   .     S
C115   C292    1.519   1_545 S
C115   H318    1.111   1_545 S
C116   H146    1.111   .     S
C116   C291    1.519   .     S
C116   H320    1.110   .     S
C116   H849    1.108   1_554 S
C117   C118    1.520   .     S
C117   H148    1.115   .     S
C117   O168    1.410   .     S
C117   H323    1.112   .     S
C118   H152    1.111   .     S
C118   H326    1.111   .     S
C118   H327    1.110   .     S
C119   N160    1.366   .     A
C119   H138    1.077   .     S
C119   C123    1.410   .     A
C120   C124    1.409   .     A
C120   H149    1.082   .     S
C120   N159    1.362   .     A
C121   H153    1.076   .     S
C121   N160    1.366   .     A
C122   O165    1.382   .     S
C123   O166    1.382   .     S
C124   O167    1.382   .     S
Cu125  O172    1.936   .     S
Cu125  O174    1.936   .     S
Cu125  Cu126   2.675   .     S
Cu125  O170    1.960   .     S
Cu125  O161    1.961   .     S
Cu125  N160    2.009   .     S
Cu126  O171    1.960   .     S
Cu126  O173    1.936   .     S
Cu126  O169    1.961   .     S
Cu126  N159    2.009   .     S
Cu126  O175    1.936   .     S
H128   O162    0.992   .     S
H129   O163    0.992   .     S
H130   O164    0.992   .     S
H131   C286    1.111   .     S
H134   C816    1.108   1_554 S
H135   C288    1.110   1_545 S
H136   C289    1.112   1_545 S
H140   C290    1.110   1_545 S
H141   C290    1.111   1_545 S
H142   C291    1.111   .     S
H144   C292    1.110   1_545 S
H145   C468    1.108   .     S
H147   C293    1.112   1_545 S
H150   C294    1.111   1_545 S
H151   C294    1.110   1_545 S
H158   O176    0.992   .     S
C177   C194    1.469   .     S
C177   O259    1.294   .     A
C177   O249    1.295   .     A
C178   C182    1.415   .     A
C178   C209    1.409   .     A
C178   O256    1.382   .     S
C179   O263    1.287   .     A
C179   O260    1.287   .     A
C179   C183    1.410   .     S
C180   C184    1.410   .     S
C180   O262    1.287   .     A
C180   O261    1.287   .     A
C181   C212    1.419   .     A
C181   C210    1.419   .     A
C182   C211    1.415   .     A
C182   C5      1.515   1_565 S
C183   C888    1.191   1_554 S
C184   C535    1.191   .     S
C185   H242    1.084   .     S
C185   C190    1.400   .     A
C185   C196    1.395   .     A
C186   H243    1.084   .     S
C186   C191    1.389   .     A
C186   C197    1.394   .     A
C187   C197    1.396   .     A
C187   C192    1.402   .     A
C187   H244    1.084   .     S
C188   O258    1.297   .     A
C188   C195    1.472   .     S
C188   O257    1.293   .     A
C189   C196    1.396   .     A
C189   C193    1.400   .     A
C189   H245    1.084   .     S
C190   C194    1.414   .     A
C190   O264    1.382   .     S
C191   C195    1.417   .     A
C191   O250    1.373   .     S
C192   O251    1.382   .     S
C192   C195    1.415   .     A
C193   O252    1.383   .     S
C193   C194    1.413   .     A
C196   C285    1.460   1_455 S
C197   C284    1.460   .     S
C198   H220    1.114   .     S
C198   O253    1.410   .     S
C199   N247    1.362   .     A
C199   C210    1.409   .     A
C199   H215    1.082   .     S
C200   H221    1.111   .     S
C200   C22     1.519   1_565 S
C200   H574    1.108   .     S
C200   H47     1.110   1_565 S
C201   O254    1.410   .     S
C201   C202    1.520   .     S
C201   H225    1.115   .     S
C201   H48     1.112   1_565 S
C202   H227    1.111   .     S
C202   H52     1.110   1_565 S
C202   H53     1.111   1_565 S
C203   O255    1.410   .     S
C203   H231    1.114   .     S
C204   H234    1.111   .     S
C204   C27     1.519   1_565 S
C204   H56     1.110   1_565 S
C204   H937    1.108   1_554 S
C205   C206    1.520   .     S
C205   H236    1.115   .     S
C205   O256    1.410   .     S
C205   H59     1.112   1_565 S
C206   H240    1.111   .     S
C206   H62     1.111   1_565 S
C206   H63     1.110   1_565 S
C207   N248    1.366   .     A
C207   H226    1.077   .     S
C207   C211    1.410   .     A
C208   C212    1.409   .     A
C208   H237    1.082   .     S
C208   N247    1.362   .     A
C209   H241    1.076   .     S
C209   N248    1.366   .     A
C210   O253    1.382   .     S
C211   O254    1.382   .     S
C212   O255    1.382   .     S
Cu213  O260    1.936   .     S
Cu213  O262    1.936   .     S
Cu213  Cu214   2.675   .     S
Cu213  O258    1.960   .     S
Cu213  O249    1.961   .     S
Cu213  N248    2.009   .     S
Cu214  O259    1.960   .     S
Cu214  O261    1.936   .     S
Cu214  O257    1.961   .     S
Cu214  N247    2.009   .     S
Cu214  O263    1.936   .     S
H216   O250    0.992   .     S
H217   O251    0.992   .     S
H218   O252    0.992   .     S
H219   C22     1.111   1_565 S
H222   C904    1.108   1_554 S
H230   C27     1.111   1_565 S
H233   C556    1.108   .     S
H246   O264    0.992   .     S
C265   C282    1.469   .     S
C265   O347    1.294   .     A
C265   O337    1.295   .     A
C266   C270    1.415   .     A
C266   C297    1.409   .     A
C266   O344    1.382   .     S
C267   O351    1.287   .     A
C267   O348    1.287   .     A
C267   C271    1.410   .     S
C268   C272    1.410   .     S
C268   O350    1.287   .     A
C268   O349    1.287   .     A
C269   C300    1.419   .     A
C269   C298    1.419   .     A
C270   C299    1.415   .     A
C270   C93     1.515   1_565 S
C271   C976    1.191   1_554 S
C272   C623    1.191   .     S
C273   H330    1.084   .     S
C273   C278    1.400   .     A
C273   C284    1.395   .     A
C274   H331    1.084   .     S
C274   C279    1.389   .     A
C274   C285    1.394   .     A
C275   C285    1.396   .     A
C275   C280    1.402   .     A
C275   H332    1.084   .     S
C276   O346    1.297   .     A
C276   C283    1.472   .     S
C276   O345    1.293   .     A
C277   C284    1.396   .     A
C277   C281    1.400   .     A
C277   H333    1.084   .     S
C278   C282    1.414   .     A
C278   O352    1.382   .     S
C279   C283    1.417   .     A
C279   O338    1.373   .     S
C280   O339    1.382   .     S
C280   C283    1.415   .     A
C281   O340    1.383   .     S
C281   C282    1.413   .     A
C285   C196    1.460   1_655 S
C286   H308    1.114   .     S
C286   O341    1.410   .     S
C287   N335    1.362   .     A
C287   C298    1.409   .     A
C287   H303    1.082   .     S
C288   H309    1.111   .     S
C288   C110    1.519   1_565 S
C288   H662    1.108   .     S
C288   H135    1.110   1_565 S
C289   O342    1.410   .     S
C289   C290    1.520   .     S
C289   H313    1.115   .     S
C289   H136    1.112   1_565 S
C290   H315    1.111   .     S
C290   H140    1.110   1_565 S
C290   H141    1.111   1_565 S
C291   O343    1.410   .     S
C291   H319    1.114   .     S
C292   H322    1.111   .     S
C292   C115    1.519   1_565 S
C292   H144    1.110   1_565 S
C292   H1025   1.108   1_554 S
C293   C294    1.520   .     S
C293   H324    1.115   .     S
C293   O344    1.410   .     S
C293   H147    1.112   1_565 S
C294   H328    1.111   .     S
C294   H150    1.111   1_565 S
C294   H151    1.110   1_565 S
C295   N336    1.366   .     A
C295   H314    1.077   .     S
C295   C299    1.410   .     A
C296   C300    1.409   .     A
C296   H325    1.082   .     S
C296   N335    1.362   .     A
C297   H329    1.076   .     S
C297   N336    1.366   .     A
C298   O341    1.382   .     S
C299   O342    1.382   .     S
C300   O343    1.382   .     S
Cu301  O348    1.936   .     S
Cu301  O350    1.936   .     S
Cu301  Cu302   2.675   .     S
Cu301  O346    1.960   .     S
Cu301  O337    1.961   .     S
Cu301  N336    2.009   .     S
Cu302  O347    1.960   .     S
Cu302  O349    1.936   .     S
Cu302  O345    1.961   .     S
Cu302  N335    2.009   .     S
Cu302  O351    1.936   .     S
H304   O338    0.992   .     S
H305   O339    0.992   .     S
H306   O340    0.992   .     S
H307   C110    1.111   1_565 S
H310   C992    1.108   1_554 S
H318   C115    1.111   1_565 S
H321   C644    1.108   .     S
H334   O352    0.992   .     S
C353   C370    1.469   .     S
C353   O435    1.294   .     A
C353   O425    1.295   .     A
C354   C358    1.415   .     A
C354   C385    1.409   .     A
C354   O432    1.382   .     S
C355   O439    1.287   .     A
C355   O436    1.287   .     A
C355   C359    1.410   .     S
C356   C360    1.410   .     S
C356   O438    1.287   .     A
C356   O437    1.287   .     A
C357   C388    1.419   .     A
C357   C386    1.419   .     A
C357   C534    1.515   1_545 S
C358   C387    1.415   .     A
C358   C533    1.515   .     S
C360   C711    1.191   .     S
C361   H418    1.084   .     S
C361   C366    1.400   .     A
C361   C372    1.395   .     A
C362   H419    1.084   .     S
C362   C367    1.389   .     A
C362   C373    1.394   .     A
C363   C373    1.396   .     A
C363   C368    1.402   .     A
C363   H420    1.084   .     S
C364   O434    1.297   .     A
C364   C371    1.472   .     S
C364   O433    1.293   .     A
C365   C372    1.396   .     A
C365   C369    1.400   .     A
C365   H421    1.084   .     S
C366   C370    1.414   .     A
C366   O440    1.382   .     S
C367   C371    1.417   .     A
C367   O426    1.373   .     S
C368   O427    1.382   .     S
C368   C371    1.415   .     A
C369   O428    1.383   .     S
C369   C370    1.413   .     A
C372   C461    1.460   1_455 S
C373   C460    1.460   .     S
C374   H396    1.114   .     S
C374   O429    1.410   .     S
C374   C552    1.519   1_545 S
C374   H571    1.111   1_545 S
C375   N423    1.362   .     A
C375   C386    1.409   .     A
C375   H391    1.082   .     S
C376   H397    1.111   .     S
C376   C550    1.519   .     S
C376   H750    1.108   .     S
C376   H575    1.110   .     S
C377   O430    1.410   .     S
C377   C378    1.520   .     S
C377   H401    1.115   .     S
C377   H576    1.112   .     S
C378   H403    1.111   .     S
C378   H580    1.110   .     S
C378   H581    1.111   .     S
C379   O431    1.410   .     S
C379   H407    1.114   .     S
C379   C556    1.519   1_545 S
C379   H582    1.111   1_545 S
C380   H410    1.111   .     S
C380   C555    1.519   .     S
C380   H584    1.110   .     S
C381   C382    1.520   .     S
C381   H412    1.115   .     S
C381   O432    1.410   .     S
C381   H587    1.112   .     S
C382   H416    1.111   .     S
C382   H590    1.111   .     S
C382   H591    1.110   .     S
C383   N424    1.366   .     A
C383   H402    1.077   .     S
C383   C387    1.410   .     A
C384   C388    1.409   .     A
C384   H413    1.082   .     S
C384   N423    1.362   .     A
C385   H417    1.076   .     S
C385   N424    1.366   .     A
C386   O429    1.382   .     S
C387   O430    1.382   .     S
C388   O431    1.382   .     S
Cu389  O436    1.936   .     S
Cu389  O438    1.936   .     S
Cu389  Cu390   2.675   .     S
Cu389  O434    1.960   .     S
Cu389  O425    1.961   .     S
Cu389  N424    2.009   .     S
Cu390  O435    1.960   .     S
Cu390  O437    1.936   .     S
Cu390  O433    1.961   .     S
Cu390  N423    2.009   .     S
Cu390  O439    1.936   .     S
H392   O426    0.992   .     S
H393   O427    0.992   .     S
H394   O428    0.992   .     S
H395   C550    1.111   .     S
H399   C552    1.110   1_545 S
H400   C553    1.112   1_545 S
H404   C554    1.110   1_545 S
H405   C554    1.111   1_545 S
H406   C555    1.111   .     S
H408   C556    1.110   1_545 S
H409   C732    1.108   .     S
H411   C557    1.112   1_545 S
H414   C558    1.111   1_545 S
H415   C558    1.110   1_545 S
H422   O440    0.992   .     S
C441   C458    1.469   .     S
C441   O523    1.294   .     A
C441   O513    1.295   .     A
C442   C446    1.415   .     A
C442   C473    1.409   .     A
C442   O520    1.382   .     S
C443   O527    1.287   .     A
C443   O524    1.287   .     A
C443   C447    1.410   .     S
C444   C448    1.410   .     S
C444   O526    1.287   .     A
C444   O525    1.287   .     A
C445   C476    1.419   .     A
C445   C474    1.419   .     A
C445   C622    1.515   1_545 S
C446   C475    1.415   .     A
C446   C621    1.515   .     S
C448   C799    1.191   .     S
C449   H506    1.084   .     S
C449   C454    1.400   .     A
C449   C460    1.395   .     A
C450   H507    1.084   .     S
C450   C455    1.389   .     A
C450   C461    1.394   .     A
C451   C461    1.396   .     A
C451   C456    1.402   .     A
C451   H508    1.084   .     S
C452   O522    1.297   .     A
C452   C459    1.472   .     S
C452   O521    1.293   .     A
C453   C460    1.396   .     A
C453   C457    1.400   .     A
C453   H509    1.084   .     S
C454   C458    1.414   .     A
C454   O528    1.382   .     S
C455   C459    1.417   .     A
C455   O514    1.373   .     S
C456   O515    1.382   .     S
C456   C459    1.415   .     A
C457   O516    1.383   .     S
C457   C458    1.413   .     A
C461   C372    1.460   1_655 S
C462   H484    1.114   .     S
C462   O517    1.410   .     S
C462   C640    1.519   1_545 S
C462   H659    1.111   1_545 S
C463   N511    1.362   .     A
C463   C474    1.409   .     A
C463   H479    1.082   .     S
C464   H485    1.111   .     S
C464   C638    1.519   .     S
C464   H838    1.108   .     S
C464   H663    1.110   .     S
C465   O518    1.410   .     S
C465   C466    1.520   .     S
C465   H489    1.115   .     S
C465   H664    1.112   .     S
C466   H491    1.111   .     S
C466   H668    1.110   .     S
C466   H669    1.111   .     S
C467   O519    1.410   .     S
C467   H495    1.114   .     S
C467   C644    1.519   1_545 S
C467   H670    1.111   1_545 S
C468   H498    1.111   .     S
C468   C643    1.519   .     S
C468   H672    1.110   .     S
C469   C470    1.520   .     S
C469   H500    1.115   .     S
C469   O520    1.410   .     S
C469   H675    1.112   .     S
C470   H504    1.111   .     S
C470   H678    1.111   .     S
C470   H679    1.110   .     S
C471   N512    1.366   .     A
C471   H490    1.077   .     S
C471   C475    1.410   .     A
C472   C476    1.409   .     A
C472   H501    1.082   .     S
C472   N511    1.362   .     A
C473   H505    1.076   .     S
C473   N512    1.366   .     A
C474   O517    1.382   .     S
C475   O518    1.382   .     S
C476   O519    1.382   .     S
Cu477  O524    1.936   .     S
Cu477  O526    1.936   .     S
Cu477  Cu478   2.675   .     S
Cu477  O522    1.960   .     S
Cu477  O513    1.961   .     S
Cu477  N512    2.009   .     S
Cu478  O523    1.960   .     S
Cu478  O525    1.936   .     S
Cu478  O521    1.961   .     S
Cu478  N511    2.009   .     S
Cu478  O527    1.936   .     S
H480   O514    0.992   .     S
H481   O515    0.992   .     S
H482   O516    0.992   .     S
H483   C638    1.111   .     S
H487   C640    1.110   1_545 S
H488   C641    1.112   1_545 S
H492   C642    1.110   1_545 S
H493   C642    1.111   1_545 S
H494   C643    1.111   .     S
H496   C644    1.110   1_545 S
H497   C820    1.108   .     S
H499   C645    1.112   1_545 S
H502   C646    1.111   1_545 S
H503   C646    1.110   1_545 S
H510   O528    0.992   .     S
C529   C546    1.469   .     S
C529   O611    1.294   .     A
C529   O601    1.295   .     A
C530   C534    1.415   .     A
C530   C561    1.409   .     A
C530   O608    1.382   .     S
C531   O615    1.287   .     A
C531   O612    1.287   .     A
C531   C535    1.410   .     S
C532   C536    1.410   .     S
C532   O614    1.287   .     A
C532   O613    1.287   .     A
C533   C564    1.419   .     A
C533   C562    1.419   .     A
C534   C563    1.415   .     A
C534   C357    1.515   1_565 S
C536   C887    1.191   .     S
C537   H594    1.084   .     S
C537   C542    1.400   .     A
C537   C548    1.395   .     A
C538   H595    1.084   .     S
C538   C543    1.389   .     A
C538   C549    1.394   .     A
C539   C549    1.396   .     A
C539   C544    1.402   .     A
C539   H596    1.084   .     S
C540   O610    1.297   .     A
C540   C547    1.472   .     S
C540   O609    1.293   .     A
C541   C548    1.396   .     A
C541   C545    1.400   .     A
C541   H597    1.084   .     S
C542   C546    1.414   .     A
C542   O616    1.382   .     S
C543   C547    1.417   .     A
C543   O602    1.373   .     S
C544   O603    1.382   .     S
C544   C547    1.415   .     A
C545   O604    1.383   .     S
C545   C546    1.413   .     A
C548   C637    1.460   1_455 S
C549   C636    1.460   .     S
C550   H572    1.114   .     S
C550   O605    1.410   .     S
C551   N599    1.362   .     A
C551   C562    1.409   .     A
C551   H567    1.082   .     S
C552   H573    1.111   .     S
C552   C374    1.519   1_565 S
C552   H926    1.108   .     S
C552   H399    1.110   1_565 S
C553   O606    1.410   .     S
C553   C554    1.520   .     S
C553   H577    1.115   .     S
C553   H400    1.112   1_565 S
C554   H579    1.111   .     S
C554   H404    1.110   1_565 S
C554   H405    1.111   1_565 S
C555   O607    1.410   .     S
C555   H583    1.114   .     S
C556   H586    1.111   .     S
C556   C379    1.519   1_565 S
C556   H408    1.110   1_565 S
C557   C558    1.520   .     S
C557   H588    1.115   .     S
C557   O608    1.410   .     S
C557   H411    1.112   1_565 S
C558   H592    1.111   .     S
C558   H414    1.111   1_565 S
C558   H415    1.110   1_565 S
C559   N600    1.366   .     A
C559   H578    1.077   .     S
C559   C563    1.410   .     A
C560   C564    1.409   .     A
C560   H589    1.082   .     S
C560   N599    1.362   .     A
C561   H593    1.076   .     S
C561   N600    1.366   .     A
C562   O605    1.382   .     S
C563   O606    1.382   .     S
C564   O607    1.382   .     S
Cu565  O612    1.936   .     S
Cu565  O614    1.936   .     S
Cu565  Cu566   2.675   .     S
Cu565  O610    1.960   .     S
Cu565  O601    1.961   .     S
Cu565  N600    2.009   .     S
Cu566  O611    1.960   .     S
Cu566  O613    1.936   .     S
Cu566  O609    1.961   .     S
Cu566  N599    2.009   .     S
Cu566  O615    1.936   .     S
H568   O602    0.992   .     S
H569   O603    0.992   .     S
H570   O604    0.992   .     S
H571   C374    1.111   1_565 S
H582   C379    1.111   1_565 S
H585   C908    1.108   .     S
H598   O616    0.992   .     S
C617   C634    1.469   .     S
C617   O699    1.294   .     A
C617   O689    1.295   .     A
C618   C622    1.415   .     A
C618   C649    1.409   .     A
C618   O696    1.382   .     S
C619   O703    1.287   .     A
C619   O700    1.287   .     A
C619   C623    1.410   .     S
C620   C624    1.410   .     S
C620   O702    1.287   .     A
C620   O701    1.287   .     A
C621   C652    1.419   .     A
C621   C650    1.419   .     A
C622   C651    1.415   .     A
C622   C445    1.515   1_565 S
C624   C975    1.191   .     S
C625   H682    1.084   .     S
C625   C630    1.400   .     A
C625   C636    1.395   .     A
C626   H683    1.084   .     S
C626   C631    1.389   .     A
C626   C637    1.394   .     A
C627   C637    1.396   .     A
C627   C632    1.402   .     A
C627   H684    1.084   .     S
C628   O698    1.297   .     A
C628   C635    1.472   .     S
C628   O697    1.293   .     A
C629   C636    1.396   .     A
C629   C633    1.400   .     A
C629   H685    1.084   .     S
C630   C634    1.414   .     A
C630   O704    1.382   .     S
C631   C635    1.417   .     A
C631   O690    1.373   .     S
C632   O691    1.382   .     S
C632   C635    1.415   .     A
C633   O692    1.383   .     S
C633   C634    1.413   .     A
C637   C548    1.460   1_655 S
C638   H660    1.114   .     S
C638   O693    1.410   .     S
C639   N687    1.362   .     A
C639   C650    1.409   .     A
C639   H655    1.082   .     S
C640   H661    1.111   .     S
C640   C462    1.519   1_565 S
C640   H1014   1.108   .     S
C640   H487    1.110   1_565 S
C641   O694    1.410   .     S
C641   C642    1.520   .     S
C641   H665    1.115   .     S
C641   H488    1.112   1_565 S
C642   H667    1.111   .     S
C642   H492    1.110   1_565 S
C642   H493    1.111   1_565 S
C643   O695    1.410   .     S
C643   H671    1.114   .     S
C644   H674    1.111   .     S
C644   C467    1.519   1_565 S
C644   H496    1.110   1_565 S
C645   C646    1.520   .     S
C645   H676    1.115   .     S
C645   O696    1.410   .     S
C645   H499    1.112   1_565 S
C646   H680    1.111   .     S
C646   H502    1.111   1_565 S
C646   H503    1.110   1_565 S
C647   N688    1.366   .     A
C647   H666    1.077   .     S
C647   C651    1.410   .     A
C648   C652    1.409   .     A
C648   H677    1.082   .     S
C648   N687    1.362   .     A
C649   H681    1.076   .     S
C649   N688    1.366   .     A
C650   O693    1.382   .     S
C651   O694    1.382   .     S
C652   O695    1.382   .     S
Cu653  O700    1.936   .     S
Cu653  O702    1.936   .     S
Cu653  Cu654   2.675   .     S
Cu653  O698    1.960   .     S
Cu653  O689    1.961   .     S
Cu653  N688    2.009   .     S
Cu654  O699    1.960   .     S
Cu654  O701    1.936   .     S
Cu654  O697    1.961   .     S
Cu654  N687    2.009   .     S
Cu654  O703    1.936   .     S
H656   O690    0.992   .     S
H657   O691    0.992   .     S
H658   O692    0.992   .     S
H659   C462    1.111   1_565 S
H670   C467    1.111   1_565 S
H673   C996    1.108   .     S
H686   O704    0.992   .     S
C705   C722    1.469   .     S
C705   O787    1.294   .     A
C705   O777    1.295   .     A
C706   C710    1.415   .     A
C706   C737    1.409   .     A
C706   O784    1.382   .     S
C707   O791    1.287   .     A
C707   O788    1.287   .     A
C707   C711    1.410   .     S
C708   C712    1.410   .     S
C708   O790    1.287   .     A
C708   O789    1.287   .     A
C709   C740    1.419   .     A
C709   C738    1.419   .     A
C709   C886    1.515   1_545 S
C710   C739    1.415   .     A
C710   C885    1.515   .     S
C712   C7      1.191   1_556 S
C713   H770    1.084   .     S
C713   C718    1.400   .     A
C713   C724    1.395   .     A
C714   H771    1.084   .     S
C714   C719    1.389   .     A
C714   C725    1.394   .     A
C715   C725    1.396   .     A
C715   C720    1.402   .     A
C715   H772    1.084   .     S
C716   O786    1.297   .     A
C716   C723    1.472   .     S
C716   O785    1.293   .     A
C717   C724    1.396   .     A
C717   C721    1.400   .     A
C717   H773    1.084   .     S
C718   C722    1.414   .     A
C718   O792    1.382   .     S
C719   C723    1.417   .     A
C719   O778    1.373   .     S
C720   O779    1.382   .     S
C720   C723    1.415   .     A
C721   O780    1.383   .     S
C721   C722    1.413   .     A
C724   C813    1.460   1_455 S
C725   C812    1.460   .     S
C726   H748    1.114   .     S
C726   O781    1.410   .     S
C726   C904    1.519   1_545 S
C726   H923    1.111   1_545 S
C727   N775    1.362   .     A
C727   C738    1.409   .     A
C727   H743    1.082   .     S
C728   H749    1.111   .     S
C728   C902    1.519   .     S
C728   H46     1.108   1_556 S
C728   H927    1.110   .     S
C729   O782    1.410   .     S
C729   C730    1.520   .     S
C729   H753    1.115   .     S
C729   H928    1.112   .     S
C730   H755    1.111   .     S
C730   H932    1.110   .     S
C730   H933    1.111   .     S
C731   O783    1.410   .     S
C731   H759    1.114   .     S
C731   C908    1.519   1_545 S
C731   H934    1.111   1_545 S
C732   H762    1.111   .     S
C732   C907    1.519   .     S
C732   H936    1.110   .     S
C733   C734    1.520   .     S
C733   H764    1.115   .     S
C733   O784    1.410   .     S
C733   H939    1.112   .     S
C734   H768    1.111   .     S
C734   H942    1.111   .     S
C734   H943    1.110   .     S
C735   N776    1.366   .     A
C735   H754    1.077   .     S
C735   C739    1.410   .     A
C736   C740    1.409   .     A
C736   H765    1.082   .     S
C736   N775    1.362   .     A
C737   H769    1.076   .     S
C737   N776    1.366   .     A
C738   O781    1.382   .     S
C739   O782    1.382   .     S
C740   O783    1.382   .     S
Cu741  O788    1.936   .     S
Cu741  O790    1.936   .     S
Cu741  Cu742   2.675   .     S
Cu741  O786    1.960   .     S
Cu741  O777    1.961   .     S
Cu741  N776    2.009   .     S
Cu742  O787    1.960   .     S
Cu742  O789    1.936   .     S
Cu742  O785    1.961   .     S
Cu742  N775    2.009   .     S
Cu742  O791    1.936   .     S
H744   O778    0.992   .     S
H745   O779    0.992   .     S
H746   O780    0.992   .     S
H747   C902    1.111   .     S
H751   C904    1.110   1_545 S
H752   C905    1.112   1_545 S
H756   C906    1.110   1_545 S
H757   C906    1.111   1_545 S
H758   C907    1.111   .     S
H760   C908    1.110   1_545 S
H761   C28     1.108   1_556 S
H763   C909    1.112   1_545 S
H766   C910    1.111   1_545 S
H767   C910    1.110   1_545 S
H774   O792    0.992   .     S
C793   C810    1.469   .     S
C793   O875    1.294   .     A
C793   O865    1.295   .     A
C794   C798    1.415   .     A
C794   C825    1.409   .     A
C794   O872    1.382   .     S
C795   O879    1.287   .     A
C795   O876    1.287   .     A
C795   C799    1.410   .     S
C796   C800    1.410   .     S
C796   O878    1.287   .     A
C796   O877    1.287   .     A
C797   C828    1.419   .     A
C797   C826    1.419   .     A
C797   C974    1.515   1_545 S
C798   C827    1.415   .     A
C798   C973    1.515   .     S
C800   C95     1.191   1_556 S
C801   H858    1.084   .     S
C801   C806    1.400   .     A
C801   C812    1.395   .     A
C802   H859    1.084   .     S
C802   C807    1.389   .     A
C802   C813    1.394   .     A
C803   C813    1.396   .     A
C803   C808    1.402   .     A
C803   H860    1.084   .     S
C804   O874    1.297   .     A
C804   C811    1.472   .     S
C804   O873    1.293   .     A
C805   C812    1.396   .     A
C805   C809    1.400   .     A
C805   H861    1.084   .     S
C806   C810    1.414   .     A
C806   O880    1.382   .     S
C807   C811    1.417   .     A
C807   O866    1.373   .     S
C808   O867    1.382   .     S
C808   C811    1.415   .     A
C809   O868    1.383   .     S
C809   C810    1.413   .     A
C813   C724    1.460   1_655 S
C814   H836    1.114   .     S
C814   O869    1.410   .     S
C814   C992    1.519   1_545 S
C814   H1011   1.111   1_545 S
C815   N863    1.362   .     A
C815   C826    1.409   .     A
C815   H831    1.082   .     S
C816   H837    1.111   .     S
C816   C990    1.519   .     S
C816   H134    1.108   1_556 S
C816   H1015   1.110   .     S
C817   O870    1.410   .     S
C817   C818    1.520   .     S
C817   H841    1.115   .     S
C817   H1016   1.112   .     S
C818   H843    1.111   .     S
C818   H1020   1.110   .     S
C818   H1021   1.111   .     S
C819   O871    1.410   .     S
C819   H847    1.114   .     S
C819   C996    1.519   1_545 S
C819   H1022   1.111   1_545 S
C820   H850    1.111   .     S
C820   C995    1.519   .     S
C820   H1024   1.110   .     S
C821   C822    1.520   .     S
C821   H852    1.115   .     S
C821   O872    1.410   .     S
C821   H1027   1.112   .     S
C822   H856    1.111   .     S
C822   H1030   1.111   .     S
C822   H1031   1.110   .     S
C823   N864    1.366   .     A
C823   H842    1.077   .     S
C823   C827    1.410   .     A
C824   C828    1.409   .     A
C824   H853    1.082   .     S
C824   N863    1.362   .     A
C825   H857    1.076   .     S
C825   N864    1.366   .     A
C826   O869    1.382   .     S
C827   O870    1.382   .     S
C828   O871    1.382   .     S
Cu829  O876    1.936   .     S
Cu829  O878    1.936   .     S
Cu829  Cu830   2.675   .     S
Cu829  O874    1.960   .     S
Cu829  O865    1.961   .     S
Cu829  N864    2.009   .     S
Cu830  O875    1.960   .     S
Cu830  O877    1.936   .     S
Cu830  O873    1.961   .     S
Cu830  N863    2.009   .     S
Cu830  O879    1.936   .     S
H832   O866    0.992   .     S
H833   O867    0.992   .     S
H834   O868    0.992   .     S
H835   C990    1.111   .     S
H839   C992    1.110   1_545 S
H840   C993    1.112   1_545 S
H844   C994    1.110   1_545 S
H845   C994    1.111   1_545 S
H846   C995    1.111   .     S
H848   C996    1.110   1_545 S
H849   C116    1.108   1_556 S
H851   C997    1.112   1_545 S
H854   C998    1.111   1_545 S
H855   C998    1.110   1_545 S
H862   O880    0.992   .     S
C881   C898    1.469   .     S
C881   O963    1.294   .     A
C881   O953    1.295   .     A
C882   C886    1.415   .     A
C882   C913    1.409   .     A
C882   O960    1.382   .     S
C883   O967    1.287   .     A
C883   O964    1.287   .     A
C883   C887    1.410   .     S
C884   C888    1.410   .     S
C884   O966    1.287   .     A
C884   O965    1.287   .     A
C885   C916    1.419   .     A
C885   C914    1.419   .     A
C886   C915    1.415   .     A
C886   C709    1.515   1_565 S
C888   C183    1.191   1_556 S
C889   H946    1.084   .     S
C889   C894    1.400   .     A
C889   C900    1.395   .     A
C890   H947    1.084   .     S
C890   C895    1.389   .     A
C890   C901    1.394   .     A
C891   C901    1.396   .     A
C891   C896    1.402   .     A
C891   H948    1.084   .     S
C892   O962    1.297   .     A
C892   C899    1.472   .     S
C892   O961    1.293   .     A
C893   C900    1.396   .     A
C893   C897    1.400   .     A
C893   H949    1.084   .     S
C894   C898    1.414   .     A
C894   O968    1.382   .     S
C895   C899    1.417   .     A
C895   O954    1.373   .     S
C896   O955    1.382   .     S
C896   C899    1.415   .     A
C897   O956    1.383   .     S
C897   C898    1.413   .     A
C900   C989    1.460   1_455 S
C901   C988    1.460   .     S
C902   H924    1.114   .     S
C902   O957    1.410   .     S
C903   N951    1.362   .     A
C903   C914    1.409   .     A
C903   H919    1.082   .     S
C904   H925    1.111   .     S
C904   C726    1.519   1_565 S
C904   H222    1.108   1_556 S
C904   H751    1.110   1_565 S
C905   O958    1.410   .     S
C905   C906    1.520   .     S
C905   H929    1.115   .     S
C905   H752    1.112   1_565 S
C906   H931    1.111   .     S
C906   H756    1.110   1_565 S
C906   H757    1.111   1_565 S
C907   O959    1.410   .     S
C907   H935    1.114   .     S
C908   H938    1.111   .     S
C908   C731    1.519   1_565 S
C908   H760    1.110   1_565 S
C909   C910    1.520   .     S
C909   H940    1.115   .     S
C909   O960    1.410   .     S
C909   H763    1.112   1_565 S
C910   H944    1.111   .     S
C910   H766    1.111   1_565 S
C910   H767    1.110   1_565 S
C911   N952    1.366   .     A
C911   H930    1.077   .     S
C911   C915    1.410   .     A
C912   C916    1.409   .     A
C912   H941    1.082   .     S
C912   N951    1.362   .     A
C913   H945    1.076   .     S
C913   N952    1.366   .     A
C914   O957    1.382   .     S
C915   O958    1.382   .     S
C916   O959    1.382   .     S
Cu917  O964    1.936   .     S
Cu917  O966    1.936   .     S
Cu917  Cu918   2.675   .     S
Cu917  O962    1.960   .     S
Cu917  O953    1.961   .     S
Cu917  N952    2.009   .     S
Cu918  O963    1.960   .     S
Cu918  O965    1.936   .     S
Cu918  O961    1.961   .     S
Cu918  N951    2.009   .     S
Cu918  O967    1.936   .     S
H920   O954    0.992   .     S
H921   O955    0.992   .     S
H922   O956    0.992   .     S
H923   C726    1.111   1_565 S
H934   C731    1.111   1_565 S
H937   C204    1.108   1_556 S
H950   O968    0.992   .     S
C969   C986    1.469   .     S
C969   O1051   1.294   .     A
C969   O1041   1.295   .     A
C970   C974    1.415   .     A
C970   C1001   1.409   .     A
C970   O1048   1.382   .     S
C971   O1055   1.287   .     A
C971   O1052   1.287   .     A
C971   C975    1.410   .     S
C972   C976    1.410   .     S
C972   O1054   1.287   .     A
C972   O1053   1.287   .     A
C973   C1004   1.419   .     A
C973   C1002   1.419   .     A
C974   C1003   1.415   .     A
C974   C797    1.515   1_565 S
C976   C271    1.191   1_556 S
C977   H1034   1.084   .     S
C977   C982    1.400   .     A
C977   C988    1.395   .     A
C978   H1035   1.084   .     S
C978   C983    1.389   .     A
C978   C989    1.394   .     A
C979   C989    1.396   .     A
C979   C984    1.402   .     A
C979   H1036   1.084   .     S
C980   O1050   1.297   .     A
C980   C987    1.472   .     S
C980   O1049   1.293   .     A
C981   C988    1.396   .     A
C981   C985    1.400   .     A
C981   H1037   1.084   .     S
C982   C986    1.414   .     A
C982   O1056   1.382   .     S
C983   C987    1.417   .     A
C983   O1042   1.373   .     S
C984   O1043   1.382   .     S
C984   C987    1.415   .     A
C985   O1044   1.383   .     S
C985   C986    1.413   .     A
C989   C900    1.460   1_655 S
C990   H1012   1.114   .     S
C990   O1045   1.410   .     S
C991   N1039   1.362   .     A
C991   C1002   1.409   .     A
C991   H1007   1.082   .     S
C992   H1013   1.111   .     S
C992   C814    1.519   1_565 S
C992   H310    1.108   1_556 S
C992   H839    1.110   1_565 S
C993   O1046   1.410   .     S
C993   C994    1.520   .     S
C993   H1017   1.115   .     S
C993   H840    1.112   1_565 S
C994   H1019   1.111   .     S
C994   H844    1.110   1_565 S
C994   H845    1.111   1_565 S
C995   O1047   1.410   .     S
C995   H1023   1.114   .     S
C996   H1026   1.111   .     S
C996   C819    1.519   1_565 S
C996   H848    1.110   1_565 S
C997   C998    1.520   .     S
C997   H1028   1.115   .     S
C997   O1048   1.410   .     S
C997   H851    1.112   1_565 S
C998   H1032   1.111   .     S
C998   H854    1.111   1_565 S
C998   H855    1.110   1_565 S
C999   N1040   1.366   .     A
C999   H1018   1.077   .     S
C999   C1003   1.410   .     A
C1000  C1004   1.409   .     A
C1000  H1029   1.082   .     S
C1000  N1039   1.362   .     A
C1001  H1033   1.076   .     S
C1001  N1040   1.366   .     A
C1002  O1045   1.382   .     S
C1003  O1046   1.382   .     S
C1004  O1047   1.382   .     S
Cu1005 O1052   1.936   .     S
Cu1005 O1054   1.936   .     S
Cu1005 Cu1006  2.675   .     S
Cu1005 O1050   1.960   .     S
Cu1005 O1041   1.961   .     S
Cu1005 N1040   2.009   .     S
Cu1006 O1051   1.960   .     S
Cu1006 O1053   1.936   .     S
Cu1006 O1049   1.961   .     S
Cu1006 N1039   2.009   .     S
Cu1006 O1055   1.936   .     S
H1008  O1042   0.992   .     S
H1009  O1043   0.992   .     S
H1010  O1044   0.992   .     S
H1011  C814    1.111   1_565 S
H1022  C819    1.111   1_565 S
H1025  C292    1.108   1_556 S
H1038  O1056   0.992   .     S
