data_str_m2_o10_o16_pcu_sym.94
_audit_creation_date              2020-01-03
_audit_creation_method            'Materials Studio'
_symmetry_space_group_name_H-M    'P1'
_symmetry_Int_Tables_number       1
_symmetry_cell_setting            triclinic
loop_
_symmetry_equiv_pos_as_xyz
  x,y,z
_cell_length_a                    22.3655
_cell_length_b                    26.1931
_cell_length_c                    26.7835
_cell_angle_alpha                 94.6890
_cell_angle_beta                  77.4760
_cell_angle_gamma                 103.2481
loop_
_atom_site_label
_atom_site_type_symbol
_atom_site_fract_x
_atom_site_fract_y
_atom_site_fract_z
_atom_site_U_iso_or_equiv
_atom_site_adp_type
_atom_site_occupancy
C1     C     0.18090   0.26652   0.25394   0.00000  Uiso   1.00
C2     C     0.11234   0.16544   0.40333   0.00000  Uiso   1.00
C3     C     0.18716   0.32201   0.26167   0.00000  Uiso   1.00
C4     C     0.13323   0.16599   0.34721   0.00000  Uiso   1.00
C5     C     0.14453   0.01087   0.24853   0.00000  Uiso   1.00
C6     C     0.15139   0.06671   0.24961   0.00000  Uiso   1.00
C7     C     0.20071   0.17129   0.15297   0.00000  Uiso   1.00
C8     C     0.29247   0.22862   0.02644   0.00000  Uiso   1.00
C9     C     0.22150   0.18145   0.09790   0.00000  Uiso   1.00
C10    C     0.05114   0.13876   0.42406   0.00000  Uiso   1.00
C11    C     0.03313   0.12931   0.47600   0.00000  Uiso   1.00
C12    C     0.13887   0.17098   0.48804   0.00000  Uiso   1.00
C13    C     0.07652   0.14401   0.00759   0.00000  Uiso   1.00
C14    C     0.33055   0.22822   0.10495   0.00000  Uiso   1.00
C15    C     0.00639   0.21499   0.30079   0.00000  Uiso   1.00
C16    C     0.23833   0.01683   0.28572   0.00000  Uiso   1.00
C17    C     0.15467   0.18598   0.43629   0.00000  Uiso   1.00
C18    C     0.18599   0.18400   0.01808   0.00000  Uiso   1.00
C19    C     0.24534   0.21589   0.49767   0.00000  Uiso   1.00
C20    C     0.25683   0.23570   0.44903   0.00000  Uiso   1.00
C21    C     0.21199   0.22154   0.41900   0.00000  Uiso   1.00
C22    C     0.17618   0.16588   0.06765   0.00000  Uiso   1.00
C23    C     0.28107   0.21185   0.07645   0.00000  Uiso   1.00
Cu24   Cu    0.10710   0.16105   0.24436   0.00000  Uiso   1.00
Cu25   Cu    0.22623   0.17228   0.25565   0.00000  Uiso   1.00
H26    H     0.10480   0.32069   0.23391   0.00000  Uiso   1.00
H27    H     0.33003   0.12772   0.20973   0.00000  Uiso   1.00
H28    H     0.30088   0.26220   0.43403   0.00000  Uiso   1.00
H29    H     0.00461   0.25261   0.01018   0.00000  Uiso   1.00
H30    H     0.13289   0.13984   0.08418   0.00000  Uiso   1.00
H31    H     0.01755   0.12378   0.39984   0.00000  Uiso   1.00
H32    H     0.05922   0.13484   0.04732   0.00000  Uiso   1.00
H33    H     0.31894   0.10899   0.49169   0.00000  Uiso   1.00
H34    H     0.22243   0.23982   0.38247   0.00000  Uiso   1.00
N35    N     0.31574   0.18074   0.26416   0.00000  Uiso   1.00
N36    N     0.01759   0.15259   0.23584   0.00000  Uiso   1.00
N37    N     0.03700   0.24132   0.12767   0.00000  Uiso   1.00
N38    N     0.02570   0.24389   0.33155   0.00000  Uiso   1.00
N39    N     0.27902   0.03896   0.30489   0.00000  Uiso   1.00
O40    O     0.12797   0.23807   0.24633   0.00000  Uiso   1.00
O41    O     0.22858   0.24755   0.25587   0.00000  Uiso   1.00
O42    O     0.09181   0.15960   0.31840   0.00000  Uiso   1.00
O43    O     0.19242   0.16908   0.32793   0.00000  Uiso   1.00
O44    O     0.10476   0.08578   0.24414   0.00000  Uiso   1.00
O45    O     0.20536   0.09526   0.25367   0.00000  Uiso   1.00
O46    O     0.14092   0.16425   0.17207   0.00000  Uiso   1.00
O47    O     0.24152   0.17373   0.18161   0.00000  Uiso   1.00
C48    C     0.51423   0.26652   0.25394   0.00000  Uiso   1.00
C49    C     0.44567   0.16544   0.40333   0.00000  Uiso   1.00
C50    C     0.52049   0.32201   0.26167   0.00000  Uiso   1.00
C51    C     0.46656   0.16599   0.34721   0.00000  Uiso   1.00
C52    C     0.47786   0.01087   0.24853   0.00000  Uiso   1.00
C53    C     0.48472   0.06671   0.24961   0.00000  Uiso   1.00
C54    C     0.53404   0.17129   0.15297   0.00000  Uiso   1.00
C55    C     0.62580   0.22862   0.02644   0.00000  Uiso   1.00
C56    C     0.55483   0.18145   0.09790   0.00000  Uiso   1.00
C57    C     0.38447   0.13876   0.42406   0.00000  Uiso   1.00
C58    C     0.36646   0.12931   0.47600   0.00000  Uiso   1.00
C59    C     0.47220   0.17098   0.48804   0.00000  Uiso   1.00
C60    C     0.40985   0.14401   0.00759   0.00000  Uiso   1.00
C61    C     0.66389   0.22822   0.10495   0.00000  Uiso   1.00
C62    C     0.33973   0.21499   0.30079   0.00000  Uiso   1.00
C63    C     0.57166   0.01683   0.28572   0.00000  Uiso   1.00
C64    C     0.48800   0.18598   0.43629   0.00000  Uiso   1.00
C65    C     0.51932   0.18400   0.01808   0.00000  Uiso   1.00
C66    C     0.57868   0.21589   0.49767   0.00000  Uiso   1.00
C67    C     0.59017   0.23570   0.44903   0.00000  Uiso   1.00
C68    C     0.54532   0.22154   0.41900   0.00000  Uiso   1.00
C69    C     0.50952   0.16588   0.06765   0.00000  Uiso   1.00
C70    C     0.61440   0.21185   0.07645   0.00000  Uiso   1.00
Cu71   Cu    0.44043   0.16105   0.24436   0.00000  Uiso   1.00
Cu72   Cu    0.55957   0.17228   0.25565   0.00000  Uiso   1.00
H73    H     0.43813   0.32069   0.23391   0.00000  Uiso   1.00
H74    H     0.66337   0.12772   0.20973   0.00000  Uiso   1.00
H75    H     0.63421   0.26220   0.43403   0.00000  Uiso   1.00
H76    H     0.33794   0.25261   0.01018   0.00000  Uiso   1.00
H77    H     0.46622   0.13984   0.08418   0.00000  Uiso   1.00
H78    H     0.35088   0.12378   0.39984   0.00000  Uiso   1.00
H79    H     0.39255   0.13484   0.04732   0.00000  Uiso   1.00
H80    H     0.65228   0.10899   0.49169   0.00000  Uiso   1.00
H81    H     0.55576   0.23982   0.38247   0.00000  Uiso   1.00
N82    N     0.64908   0.18074   0.26416   0.00000  Uiso   1.00
N83    N     0.35092   0.15259   0.23584   0.00000  Uiso   1.00
N84    N     0.37033   0.24132   0.12767   0.00000  Uiso   1.00
N85    N     0.35903   0.24389   0.33155   0.00000  Uiso   1.00
N86    N     0.61236   0.03896   0.30489   0.00000  Uiso   1.00
O87    O     0.46131   0.23807   0.24633   0.00000  Uiso   1.00
O88    O     0.56191   0.24755   0.25587   0.00000  Uiso   1.00
O89    O     0.42515   0.15960   0.31840   0.00000  Uiso   1.00
O90    O     0.52575   0.16908   0.32793   0.00000  Uiso   1.00
O91    O     0.43809   0.08578   0.24414   0.00000  Uiso   1.00
O92    O     0.53869   0.09526   0.25367   0.00000  Uiso   1.00
O93    O     0.47425   0.16425   0.17207   0.00000  Uiso   1.00
O94    O     0.57485   0.17373   0.18161   0.00000  Uiso   1.00
C95    C     0.84757   0.26652   0.25394   0.00000  Uiso   1.00
C96    C     0.77901   0.16544   0.40333   0.00000  Uiso   1.00
C97    C     0.85382   0.32201   0.26167   0.00000  Uiso   1.00
C98    C     0.79989   0.16599   0.34721   0.00000  Uiso   1.00
C99    C     0.81120   0.01087   0.24853   0.00000  Uiso   1.00
C100   C     0.81805   0.06671   0.24961   0.00000  Uiso   1.00
C101   C     0.86738   0.17129   0.15297   0.00000  Uiso   1.00
C102   C     0.95913   0.22862   0.02644   0.00000  Uiso   1.00
C103   C     0.88816   0.18145   0.09790   0.00000  Uiso   1.00
C104   C     0.71781   0.13876   0.42406   0.00000  Uiso   1.00
C105   C     0.69979   0.12931   0.47600   0.00000  Uiso   1.00
C106   C     0.80553   0.17098   0.48804   0.00000  Uiso   1.00
C107   C     0.74318   0.14401   0.00759   0.00000  Uiso   1.00
C108   C     0.99722   0.22822   0.10495   0.00000  Uiso   1.00
C109   C     0.67306   0.21499   0.30079   0.00000  Uiso   1.00
C110   C     0.90500   0.01683   0.28572   0.00000  Uiso   1.00
C111   C     0.82133   0.18598   0.43629   0.00000  Uiso   1.00
C112   C     0.85265   0.18400   0.01808   0.00000  Uiso   1.00
C113   C     0.91201   0.21589   0.49767   0.00000  Uiso   1.00
C114   C     0.92350   0.23570   0.44903   0.00000  Uiso   1.00
C115   C     0.87865   0.22154   0.41900   0.00000  Uiso   1.00
C116   C     0.84285   0.16588   0.06765   0.00000  Uiso   1.00
C117   C     0.94773   0.21185   0.07645   0.00000  Uiso   1.00
Cu118  Cu    0.77377   0.16105   0.24436   0.00000  Uiso   1.00
Cu119  Cu    0.89290   0.17228   0.25565   0.00000  Uiso   1.00
H120   H     0.77147   0.32069   0.23391   0.00000  Uiso   1.00
H121   H     0.99670   0.12772   0.20973   0.00000  Uiso   1.00
H122   H     0.96755   0.26220   0.43403   0.00000  Uiso   1.00
H123   H     0.67127   0.25261   0.01018   0.00000  Uiso   1.00
H124   H     0.79955   0.13984   0.08418   0.00000  Uiso   1.00
H125   H     0.68422   0.12378   0.39984   0.00000  Uiso   1.00
H126   H     0.72588   0.13484   0.04732   0.00000  Uiso   1.00
H127   H     0.98561   0.10899   0.49169   0.00000  Uiso   1.00
H128   H     0.88910   0.23982   0.38247   0.00000  Uiso   1.00
N129   N     0.98241   0.18074   0.26416   0.00000  Uiso   1.00
N130   N     0.68426   0.15259   0.23584   0.00000  Uiso   1.00
N131   N     0.70366   0.24132   0.12767   0.00000  Uiso   1.00
N132   N     0.69237   0.24389   0.33155   0.00000  Uiso   1.00
N133   N     0.94569   0.03896   0.30489   0.00000  Uiso   1.00
O134   O     0.79464   0.23807   0.24633   0.00000  Uiso   1.00
O135   O     0.89524   0.24755   0.25587   0.00000  Uiso   1.00
O136   O     0.75848   0.15960   0.31840   0.00000  Uiso   1.00
O137   O     0.85908   0.16908   0.32793   0.00000  Uiso   1.00
O138   O     0.77142   0.08578   0.24414   0.00000  Uiso   1.00
O139   O     0.87203   0.09526   0.25367   0.00000  Uiso   1.00
O140   O     0.80758   0.16425   0.17207   0.00000  Uiso   1.00
O141   O     0.90819   0.17373   0.18161   0.00000  Uiso   1.00
C142   C     0.18090   0.59985   0.25394   0.00000  Uiso   1.00
C143   C     0.11234   0.49877   0.40333   0.00000  Uiso   1.00
C144   C     0.18716   0.65534   0.26167   0.00000  Uiso   1.00
C145   C     0.13323   0.49933   0.34721   0.00000  Uiso   1.00
C146   C     0.14453   0.34421   0.24853   0.00000  Uiso   1.00
C147   C     0.15139   0.40005   0.24961   0.00000  Uiso   1.00
C148   C     0.20071   0.50462   0.15297   0.00000  Uiso   1.00
C149   C     0.29247   0.56195   0.02644   0.00000  Uiso   1.00
C150   C     0.22150   0.51478   0.09790   0.00000  Uiso   1.00
C151   C     0.05114   0.47209   0.42406   0.00000  Uiso   1.00
C152   C     0.03313   0.46264   0.47600   0.00000  Uiso   1.00
C153   C     0.13887   0.50432   0.48804   0.00000  Uiso   1.00
C154   C     0.07652   0.47735   0.00759   0.00000  Uiso   1.00
C155   C     0.33055   0.56156   0.10495   0.00000  Uiso   1.00
C156   C     0.00639   0.54833   0.30079   0.00000  Uiso   1.00
C157   C     0.23833   0.35016   0.28572   0.00000  Uiso   1.00
C158   C     0.15467   0.51931   0.43629   0.00000  Uiso   1.00
C159   C     0.18599   0.51733   0.01808   0.00000  Uiso   1.00
C160   C     0.24534   0.54922   0.49767   0.00000  Uiso   1.00
C161   C     0.25683   0.56903   0.44903   0.00000  Uiso   1.00
C162   C     0.21199   0.55487   0.41900   0.00000  Uiso   1.00
C163   C     0.17618   0.49921   0.06765   0.00000  Uiso   1.00
C164   C     0.28107   0.54519   0.07645   0.00000  Uiso   1.00
Cu165  Cu    0.10710   0.49439   0.24436   0.00000  Uiso   1.00
Cu166  Cu    0.22623   0.50561   0.25565   0.00000  Uiso   1.00
H167   H     0.10480   0.65403   0.23391   0.00000  Uiso   1.00
H168   H     0.33003   0.46106   0.20973   0.00000  Uiso   1.00
H169   H     0.30088   0.59554   0.43403   0.00000  Uiso   1.00
H170   H     0.00461   0.58594   0.01018   0.00000  Uiso   1.00
H171   H     0.13289   0.47318   0.08418   0.00000  Uiso   1.00
H172   H     0.01755   0.45712   0.39984   0.00000  Uiso   1.00
H173   H     0.05922   0.46818   0.04732   0.00000  Uiso   1.00
H174   H     0.31894   0.44233   0.49169   0.00000  Uiso   1.00
H175   H     0.22243   0.57316   0.38247   0.00000  Uiso   1.00
N176   N     0.31574   0.51407   0.26416   0.00000  Uiso   1.00
N177   N     0.01759   0.48593   0.23584   0.00000  Uiso   1.00
N178   N     0.03700   0.57465   0.12767   0.00000  Uiso   1.00
N179   N     0.02570   0.57722   0.33155   0.00000  Uiso   1.00
N180   N     0.27902   0.37229   0.30489   0.00000  Uiso   1.00
O181   O     0.12797   0.57141   0.24633   0.00000  Uiso   1.00
O182   O     0.22858   0.58089   0.25587   0.00000  Uiso   1.00
O183   O     0.09181   0.49293   0.31840   0.00000  Uiso   1.00
O184   O     0.19242   0.50241   0.32793   0.00000  Uiso   1.00
O185   O     0.10476   0.41911   0.24414   0.00000  Uiso   1.00
O186   O     0.20536   0.42859   0.25367   0.00000  Uiso   1.00
O187   O     0.14092   0.49759   0.17207   0.00000  Uiso   1.00
O188   O     0.24152   0.50707   0.18161   0.00000  Uiso   1.00
C189   C     0.51423   0.59985   0.25394   0.00000  Uiso   1.00
C190   C     0.44567   0.49877   0.40333   0.00000  Uiso   1.00
C191   C     0.52049   0.65534   0.26167   0.00000  Uiso   1.00
C192   C     0.46656   0.49933   0.34721   0.00000  Uiso   1.00
C193   C     0.47786   0.34421   0.24853   0.00000  Uiso   1.00
C194   C     0.48472   0.40005   0.24961   0.00000  Uiso   1.00
C195   C     0.53404   0.50462   0.15297   0.00000  Uiso   1.00
C196   C     0.62580   0.56195   0.02644   0.00000  Uiso   1.00
C197   C     0.55483   0.51478   0.09790   0.00000  Uiso   1.00
C198   C     0.38447   0.47209   0.42406   0.00000  Uiso   1.00
C199   C     0.36646   0.46264   0.47600   0.00000  Uiso   1.00
C200   C     0.47220   0.50432   0.48804   0.00000  Uiso   1.00
C201   C     0.40985   0.47735   0.00759   0.00000  Uiso   1.00
C202   C     0.66389   0.56156   0.10495   0.00000  Uiso   1.00
C203   C     0.33973   0.54833   0.30079   0.00000  Uiso   1.00
C204   C     0.57166   0.35016   0.28572   0.00000  Uiso   1.00
C205   C     0.48800   0.51931   0.43629   0.00000  Uiso   1.00
C206   C     0.51932   0.51733   0.01808   0.00000  Uiso   1.00
C207   C     0.57868   0.54922   0.49767   0.00000  Uiso   1.00
C208   C     0.59017   0.56903   0.44903   0.00000  Uiso   1.00
C209   C     0.54532   0.55487   0.41900   0.00000  Uiso   1.00
C210   C     0.50952   0.49921   0.06765   0.00000  Uiso   1.00
C211   C     0.61440   0.54519   0.07645   0.00000  Uiso   1.00
Cu212  Cu    0.44043   0.49439   0.24436   0.00000  Uiso   1.00
Cu213  Cu    0.55957   0.50561   0.25565   0.00000  Uiso   1.00
H214   H     0.43813   0.65403   0.23391   0.00000  Uiso   1.00
H215   H     0.66337   0.46106   0.20973   0.00000  Uiso   1.00
H216   H     0.63421   0.59554   0.43403   0.00000  Uiso   1.00
H217   H     0.33794   0.58594   0.01018   0.00000  Uiso   1.00
H218   H     0.46622   0.47318   0.08418   0.00000  Uiso   1.00
H219   H     0.35088   0.45712   0.39984   0.00000  Uiso   1.00
H220   H     0.39255   0.46818   0.04732   0.00000  Uiso   1.00
H221   H     0.65228   0.44233   0.49169   0.00000  Uiso   1.00
H222   H     0.55576   0.57316   0.38247   0.00000  Uiso   1.00
N223   N     0.64908   0.51407   0.26416   0.00000  Uiso   1.00
N224   N     0.35092   0.48593   0.23584   0.00000  Uiso   1.00
N225   N     0.37033   0.57465   0.12767   0.00000  Uiso   1.00
N226   N     0.35903   0.57722   0.33155   0.00000  Uiso   1.00
N227   N     0.61236   0.37229   0.30489   0.00000  Uiso   1.00
O228   O     0.46131   0.57141   0.24633   0.00000  Uiso   1.00
O229   O     0.56191   0.58089   0.25587   0.00000  Uiso   1.00
O230   O     0.42515   0.49293   0.31840   0.00000  Uiso   1.00
O231   O     0.52575   0.50241   0.32793   0.00000  Uiso   1.00
O232   O     0.43809   0.41911   0.24414   0.00000  Uiso   1.00
O233   O     0.53869   0.42859   0.25367   0.00000  Uiso   1.00
O234   O     0.47425   0.49759   0.17207   0.00000  Uiso   1.00
O235   O     0.57485   0.50707   0.18161   0.00000  Uiso   1.00
C236   C     0.84757   0.59985   0.25394   0.00000  Uiso   1.00
C237   C     0.77901   0.49877   0.40333   0.00000  Uiso   1.00
C238   C     0.85382   0.65534   0.26167   0.00000  Uiso   1.00
C239   C     0.79989   0.49933   0.34721   0.00000  Uiso   1.00
C240   C     0.81120   0.34421   0.24853   0.00000  Uiso   1.00
C241   C     0.81805   0.40005   0.24961   0.00000  Uiso   1.00
C242   C     0.86738   0.50462   0.15297   0.00000  Uiso   1.00
C243   C     0.95913   0.56195   0.02644   0.00000  Uiso   1.00
C244   C     0.88816   0.51478   0.09790   0.00000  Uiso   1.00
C245   C     0.71781   0.47209   0.42406   0.00000  Uiso   1.00
C246   C     0.69979   0.46264   0.47600   0.00000  Uiso   1.00
C247   C     0.80553   0.50432   0.48804   0.00000  Uiso   1.00
C248   C     0.74318   0.47735   0.00759   0.00000  Uiso   1.00
C249   C     0.99722   0.56156   0.10495   0.00000  Uiso   1.00
C250   C     0.67306   0.54833   0.30079   0.00000  Uiso   1.00
C251   C     0.90500   0.35016   0.28572   0.00000  Uiso   1.00
C252   C     0.82133   0.51931   0.43629   0.00000  Uiso   1.00
C253   C     0.85265   0.51733   0.01808   0.00000  Uiso   1.00
C254   C     0.91201   0.54922   0.49767   0.00000  Uiso   1.00
C255   C     0.92350   0.56903   0.44903   0.00000  Uiso   1.00
C256   C     0.87865   0.55487   0.41900   0.00000  Uiso   1.00
C257   C     0.84285   0.49921   0.06765   0.00000  Uiso   1.00
C258   C     0.94773   0.54519   0.07645   0.00000  Uiso   1.00
Cu259  Cu    0.77377   0.49439   0.24436   0.00000  Uiso   1.00
Cu260  Cu    0.89290   0.50561   0.25565   0.00000  Uiso   1.00
H261   H     0.77147   0.65403   0.23391   0.00000  Uiso   1.00
H262   H     0.99670   0.46106   0.20973   0.00000  Uiso   1.00
H263   H     0.96755   0.59554   0.43403   0.00000  Uiso   1.00
H264   H     0.67127   0.58594   0.01018   0.00000  Uiso   1.00
H265   H     0.79955   0.47318   0.08418   0.00000  Uiso   1.00
H266   H     0.68422   0.45712   0.39984   0.00000  Uiso   1.00
H267   H     0.72588   0.46818   0.04732   0.00000  Uiso   1.00
H268   H     0.98561   0.44233   0.49169   0.00000  Uiso   1.00
H269   H     0.88910   0.57316   0.38247   0.00000  Uiso   1.00
N270   N     0.98241   0.51407   0.26416   0.00000  Uiso   1.00
N271   N     0.68426   0.48593   0.23584   0.00000  Uiso   1.00
N272   N     0.70366   0.57465   0.12767   0.00000  Uiso   1.00
N273   N     0.69237   0.57722   0.33155   0.00000  Uiso   1.00
N274   N     0.94569   0.37229   0.30489   0.00000  Uiso   1.00
O275   O     0.79464   0.57141   0.24633   0.00000  Uiso   1.00
O276   O     0.89524   0.58089   0.25587   0.00000  Uiso   1.00
O277   O     0.75848   0.49293   0.31840   0.00000  Uiso   1.00
O278   O     0.85908   0.50241   0.32793   0.00000  Uiso   1.00
O279   O     0.77142   0.41911   0.24414   0.00000  Uiso   1.00
O280   O     0.87203   0.42859   0.25367   0.00000  Uiso   1.00
O281   O     0.80758   0.49759   0.17207   0.00000  Uiso   1.00
O282   O     0.90819   0.50707   0.18161   0.00000  Uiso   1.00
C283   C     0.18090   0.93319   0.25394   0.00000  Uiso   1.00
C284   C     0.11234   0.83211   0.40333   0.00000  Uiso   1.00
C285   C     0.18716   0.98867   0.26167   0.00000  Uiso   1.00
C286   C     0.13323   0.83266   0.34721   0.00000  Uiso   1.00
C287   C     0.14453   0.67754   0.24853   0.00000  Uiso   1.00
C288   C     0.15139   0.73338   0.24961   0.00000  Uiso   1.00
C289   C     0.20071   0.83796   0.15297   0.00000  Uiso   1.00
C290   C     0.29247   0.89529   0.02644   0.00000  Uiso   1.00
C291   C     0.22150   0.84811   0.09790   0.00000  Uiso   1.00
C292   C     0.05114   0.80543   0.42406   0.00000  Uiso   1.00
C293   C     0.03313   0.79598   0.47600   0.00000  Uiso   1.00
C294   C     0.13887   0.83765   0.48804   0.00000  Uiso   1.00
C295   C     0.07652   0.81068   0.00759   0.00000  Uiso   1.00
C296   C     0.33055   0.89489   0.10495   0.00000  Uiso   1.00
C297   C     0.00639   0.88166   0.30079   0.00000  Uiso   1.00
C298   C     0.23833   0.68350   0.28572   0.00000  Uiso   1.00
C299   C     0.15467   0.85264   0.43629   0.00000  Uiso   1.00
C300   C     0.18599   0.85067   0.01808   0.00000  Uiso   1.00
C301   C     0.24534   0.88256   0.49767   0.00000  Uiso   1.00
C302   C     0.25683   0.90236   0.44903   0.00000  Uiso   1.00
C303   C     0.21199   0.88821   0.41900   0.00000  Uiso   1.00
C304   C     0.17618   0.83254   0.06765   0.00000  Uiso   1.00
C305   C     0.28107   0.87852   0.07645   0.00000  Uiso   1.00
Cu306  Cu    0.10710   0.82772   0.24436   0.00000  Uiso   1.00
Cu307  Cu    0.22623   0.83895   0.25565   0.00000  Uiso   1.00
H308   H     0.10480   0.98736   0.23391   0.00000  Uiso   1.00
H309   H     0.33003   0.79439   0.20973   0.00000  Uiso   1.00
H310   H     0.30088   0.92887   0.43403   0.00000  Uiso   1.00
H311   H     0.00461   0.91927   0.01018   0.00000  Uiso   1.00
H312   H     0.13289   0.80651   0.08418   0.00000  Uiso   1.00
H313   H     0.01755   0.79045   0.39984   0.00000  Uiso   1.00
H314   H     0.05922   0.80151   0.04732   0.00000  Uiso   1.00
H315   H     0.31894   0.77566   0.49169   0.00000  Uiso   1.00
H316   H     0.22243   0.90649   0.38247   0.00000  Uiso   1.00
N317   N     0.31574   0.84741   0.26416   0.00000  Uiso   1.00
N318   N     0.01759   0.81926   0.23584   0.00000  Uiso   1.00
N319   N     0.03700   0.90799   0.12767   0.00000  Uiso   1.00
N320   N     0.02570   0.91056   0.33155   0.00000  Uiso   1.00
N321   N     0.27902   0.70563   0.30489   0.00000  Uiso   1.00
O322   O     0.12797   0.90474   0.24633   0.00000  Uiso   1.00
O323   O     0.22858   0.91422   0.25587   0.00000  Uiso   1.00
O324   O     0.09181   0.82627   0.31840   0.00000  Uiso   1.00
O325   O     0.19242   0.83575   0.32793   0.00000  Uiso   1.00
O326   O     0.10476   0.75245   0.24414   0.00000  Uiso   1.00
O327   O     0.20536   0.76193   0.25367   0.00000  Uiso   1.00
O328   O     0.14092   0.83092   0.17207   0.00000  Uiso   1.00
O329   O     0.24152   0.84040   0.18161   0.00000  Uiso   1.00
C330   C     0.51423   0.93319   0.25394   0.00000  Uiso   1.00
C331   C     0.44567   0.83211   0.40333   0.00000  Uiso   1.00
C332   C     0.52049   0.98867   0.26167   0.00000  Uiso   1.00
C333   C     0.46656   0.83266   0.34721   0.00000  Uiso   1.00
C334   C     0.47786   0.67754   0.24853   0.00000  Uiso   1.00
C335   C     0.48472   0.73338   0.24961   0.00000  Uiso   1.00
C336   C     0.53404   0.83796   0.15297   0.00000  Uiso   1.00
C337   C     0.62580   0.89529   0.02644   0.00000  Uiso   1.00
C338   C     0.55483   0.84811   0.09790   0.00000  Uiso   1.00
C339   C     0.38447   0.80543   0.42406   0.00000  Uiso   1.00
C340   C     0.36646   0.79598   0.47600   0.00000  Uiso   1.00
C341   C     0.47220   0.83765   0.48804   0.00000  Uiso   1.00
C342   C     0.40985   0.81068   0.00759   0.00000  Uiso   1.00
C343   C     0.66389   0.89489   0.10495   0.00000  Uiso   1.00
C344   C     0.33973   0.88166   0.30079   0.00000  Uiso   1.00
C345   C     0.57166   0.68350   0.28572   0.00000  Uiso   1.00
C346   C     0.48800   0.85264   0.43629   0.00000  Uiso   1.00
C347   C     0.51932   0.85067   0.01808   0.00000  Uiso   1.00
C348   C     0.57868   0.88256   0.49767   0.00000  Uiso   1.00
C349   C     0.59017   0.90236   0.44903   0.00000  Uiso   1.00
C350   C     0.54532   0.88821   0.41900   0.00000  Uiso   1.00
C351   C     0.50952   0.83254   0.06765   0.00000  Uiso   1.00
C352   C     0.61440   0.87852   0.07645   0.00000  Uiso   1.00
Cu353  Cu    0.44043   0.82772   0.24436   0.00000  Uiso   1.00
Cu354  Cu    0.55957   0.83895   0.25565   0.00000  Uiso   1.00
H355   H     0.43813   0.98736   0.23391   0.00000  Uiso   1.00
H356   H     0.66337   0.79439   0.20973   0.00000  Uiso   1.00
H357   H     0.63421   0.92887   0.43403   0.00000  Uiso   1.00
H358   H     0.33794   0.91927   0.01018   0.00000  Uiso   1.00
H359   H     0.46622   0.80651   0.08418   0.00000  Uiso   1.00
H360   H     0.35088   0.79045   0.39984   0.00000  Uiso   1.00
H361   H     0.39255   0.80151   0.04732   0.00000  Uiso   1.00
H362   H     0.65228   0.77566   0.49169   0.00000  Uiso   1.00
H363   H     0.55576   0.90649   0.38247   0.00000  Uiso   1.00
N364   N     0.64908   0.84741   0.26416   0.00000  Uiso   1.00
N365   N     0.35092   0.81926   0.23584   0.00000  Uiso   1.00
N366   N     0.37033   0.90799   0.12767   0.00000  Uiso   1.00
N367   N     0.35903   0.91056   0.33155   0.00000  Uiso   1.00
N368   N     0.61236   0.70563   0.30489   0.00000  Uiso   1.00
O369   O     0.46131   0.90474   0.24633   0.00000  Uiso   1.00
O370   O     0.56191   0.91422   0.25587   0.00000  Uiso   1.00
O371   O     0.42515   0.82627   0.31840   0.00000  Uiso   1.00
O372   O     0.52575   0.83575   0.32793   0.00000  Uiso   1.00
O373   O     0.43809   0.75245   0.24414   0.00000  Uiso   1.00
O374   O     0.53869   0.76193   0.25367   0.00000  Uiso   1.00
O375   O     0.47425   0.83092   0.17207   0.00000  Uiso   1.00
O376   O     0.57485   0.84040   0.18161   0.00000  Uiso   1.00
C377   C     0.84757   0.93319   0.25394   0.00000  Uiso   1.00
C378   C     0.77901   0.83211   0.40333   0.00000  Uiso   1.00
C379   C     0.85382   0.98867   0.26167   0.00000  Uiso   1.00
C380   C     0.79989   0.83266   0.34721   0.00000  Uiso   1.00
C381   C     0.81120   0.67754   0.24853   0.00000  Uiso   1.00
C382   C     0.81805   0.73338   0.24961   0.00000  Uiso   1.00
C383   C     0.86738   0.83796   0.15297   0.00000  Uiso   1.00
C384   C     0.95913   0.89529   0.02644   0.00000  Uiso   1.00
C385   C     0.88816   0.84811   0.09790   0.00000  Uiso   1.00
C386   C     0.71781   0.80543   0.42406   0.00000  Uiso   1.00
C387   C     0.69979   0.79598   0.47600   0.00000  Uiso   1.00
C388   C     0.80553   0.83765   0.48804   0.00000  Uiso   1.00
C389   C     0.74318   0.81068   0.00759   0.00000  Uiso   1.00
C390   C     0.99722   0.89489   0.10495   0.00000  Uiso   1.00
C391   C     0.67306   0.88166   0.30079   0.00000  Uiso   1.00
C392   C     0.90500   0.68350   0.28572   0.00000  Uiso   1.00
C393   C     0.82133   0.85264   0.43629   0.00000  Uiso   1.00
C394   C     0.85265   0.85067   0.01808   0.00000  Uiso   1.00
C395   C     0.91201   0.88256   0.49767   0.00000  Uiso   1.00
C396   C     0.92350   0.90236   0.44903   0.00000  Uiso   1.00
C397   C     0.87865   0.88821   0.41900   0.00000  Uiso   1.00
C398   C     0.84285   0.83254   0.06765   0.00000  Uiso   1.00
C399   C     0.94773   0.87852   0.07645   0.00000  Uiso   1.00
Cu400  Cu    0.77377   0.82772   0.24436   0.00000  Uiso   1.00
Cu401  Cu    0.89290   0.83895   0.25565   0.00000  Uiso   1.00
H402   H     0.77147   0.98736   0.23391   0.00000  Uiso   1.00
H403   H     0.99670   0.79439   0.20973   0.00000  Uiso   1.00
H404   H     0.96755   0.92887   0.43403   0.00000  Uiso   1.00
H405   H     0.67127   0.91927   0.01018   0.00000  Uiso   1.00
H406   H     0.79955   0.80651   0.08418   0.00000  Uiso   1.00
H407   H     0.68422   0.79045   0.39984   0.00000  Uiso   1.00
H408   H     0.72588   0.80151   0.04732   0.00000  Uiso   1.00
H409   H     0.98561   0.77566   0.49169   0.00000  Uiso   1.00
H410   H     0.88910   0.90649   0.38247   0.00000  Uiso   1.00
N411   N     0.98241   0.84741   0.26416   0.00000  Uiso   1.00
N412   N     0.68426   0.81926   0.23584   0.00000  Uiso   1.00
N413   N     0.70366   0.90799   0.12767   0.00000  Uiso   1.00
N414   N     0.69237   0.91056   0.33155   0.00000  Uiso   1.00
N415   N     0.94569   0.70563   0.30489   0.00000  Uiso   1.00
O416   O     0.79464   0.90474   0.24633   0.00000  Uiso   1.00
O417   O     0.89524   0.91422   0.25587   0.00000  Uiso   1.00
O418   O     0.75848   0.82627   0.31840   0.00000  Uiso   1.00
O419   O     0.85908   0.83575   0.32793   0.00000  Uiso   1.00
O420   O     0.77142   0.75245   0.24414   0.00000  Uiso   1.00
O421   O     0.87203   0.76193   0.25367   0.00000  Uiso   1.00
O422   O     0.80758   0.83092   0.17207   0.00000  Uiso   1.00
O423   O     0.90819   0.84040   0.18161   0.00000  Uiso   1.00
C424   C     0.18090   0.26652   0.75394   0.00000  Uiso   1.00
C425   C     0.11234   0.16544   0.90333   0.00000  Uiso   1.00
C426   C     0.18716   0.32201   0.76167   0.00000  Uiso   1.00
C427   C     0.13323   0.16599   0.84721   0.00000  Uiso   1.00
C428   C     0.14453   0.01087   0.74853   0.00000  Uiso   1.00
C429   C     0.15139   0.06671   0.74961   0.00000  Uiso   1.00
C430   C     0.20071   0.17129   0.65297   0.00000  Uiso   1.00
C431   C     0.29247   0.22862   0.52644   0.00000  Uiso   1.00
C432   C     0.22150   0.18145   0.59790   0.00000  Uiso   1.00
C433   C     0.05114   0.13876   0.92406   0.00000  Uiso   1.00
C434   C     0.03313   0.12931   0.97600   0.00000  Uiso   1.00
C435   C     0.13887   0.17098   0.98804   0.00000  Uiso   1.00
C436   C     0.07652   0.14401   0.50759   0.00000  Uiso   1.00
C437   C     0.33055   0.22822   0.60495   0.00000  Uiso   1.00
C438   C     0.00639   0.21499   0.80079   0.00000  Uiso   1.00
C439   C     0.23833   0.01683   0.78572   0.00000  Uiso   1.00
C440   C     0.15467   0.18598   0.93629   0.00000  Uiso   1.00
C441   C     0.18599   0.18400   0.51808   0.00000  Uiso   1.00
C442   C     0.24534   0.21589   0.99767   0.00000  Uiso   1.00
C443   C     0.25683   0.23570   0.94903   0.00000  Uiso   1.00
C444   C     0.21199   0.22154   0.91900   0.00000  Uiso   1.00
C445   C     0.17618   0.16588   0.56765   0.00000  Uiso   1.00
C446   C     0.28107   0.21185   0.57645   0.00000  Uiso   1.00
Cu447  Cu    0.10710   0.16105   0.74436   0.00000  Uiso   1.00
Cu448  Cu    0.22623   0.17228   0.75565   0.00000  Uiso   1.00
H449   H     0.10480   0.32069   0.73391   0.00000  Uiso   1.00
H450   H     0.33003   0.12772   0.70973   0.00000  Uiso   1.00
H451   H     0.30088   0.26220   0.93403   0.00000  Uiso   1.00
H452   H     0.00461   0.25261   0.51018   0.00000  Uiso   1.00
H453   H     0.13289   0.13984   0.58418   0.00000  Uiso   1.00
H454   H     0.01755   0.12378   0.89984   0.00000  Uiso   1.00
H455   H     0.05922   0.13484   0.54732   0.00000  Uiso   1.00
H456   H     0.31894   0.10899   0.99169   0.00000  Uiso   1.00
H457   H     0.22243   0.23982   0.88247   0.00000  Uiso   1.00
N458   N     0.31574   0.18074   0.76416   0.00000  Uiso   1.00
N459   N     0.01759   0.15259   0.73584   0.00000  Uiso   1.00
N460   N     0.03700   0.24132   0.62767   0.00000  Uiso   1.00
N461   N     0.02570   0.24389   0.83155   0.00000  Uiso   1.00
N462   N     0.27902   0.03896   0.80489   0.00000  Uiso   1.00
O463   O     0.12797   0.23807   0.74633   0.00000  Uiso   1.00
O464   O     0.22858   0.24755   0.75587   0.00000  Uiso   1.00
O465   O     0.09181   0.15960   0.81840   0.00000  Uiso   1.00
O466   O     0.19242   0.16908   0.82793   0.00000  Uiso   1.00
O467   O     0.10476   0.08578   0.74414   0.00000  Uiso   1.00
O468   O     0.20536   0.09526   0.75367   0.00000  Uiso   1.00
O469   O     0.14092   0.16425   0.67207   0.00000  Uiso   1.00
O470   O     0.24152   0.17373   0.68161   0.00000  Uiso   1.00
C471   C     0.51423   0.26652   0.75394   0.00000  Uiso   1.00
C472   C     0.44567   0.16544   0.90333   0.00000  Uiso   1.00
C473   C     0.52049   0.32201   0.76167   0.00000  Uiso   1.00
C474   C     0.46656   0.16599   0.84721   0.00000  Uiso   1.00
C475   C     0.47786   0.01087   0.74853   0.00000  Uiso   1.00
C476   C     0.48472   0.06671   0.74961   0.00000  Uiso   1.00
C477   C     0.53404   0.17129   0.65297   0.00000  Uiso   1.00
C478   C     0.62580   0.22862   0.52644   0.00000  Uiso   1.00
C479   C     0.55483   0.18145   0.59790   0.00000  Uiso   1.00
C480   C     0.38447   0.13876   0.92406   0.00000  Uiso   1.00
C481   C     0.36646   0.12931   0.97600   0.00000  Uiso   1.00
C482   C     0.47220   0.17098   0.98804   0.00000  Uiso   1.00
C483   C     0.40985   0.14401   0.50759   0.00000  Uiso   1.00
C484   C     0.66389   0.22822   0.60495   0.00000  Uiso   1.00
C485   C     0.33973   0.21499   0.80079   0.00000  Uiso   1.00
C486   C     0.57166   0.01683   0.78572   0.00000  Uiso   1.00
C487   C     0.48800   0.18598   0.93629   0.00000  Uiso   1.00
C488   C     0.51932   0.18400   0.51808   0.00000  Uiso   1.00
C489   C     0.57868   0.21589   0.99767   0.00000  Uiso   1.00
C490   C     0.59017   0.23570   0.94903   0.00000  Uiso   1.00
C491   C     0.54532   0.22154   0.91900   0.00000  Uiso   1.00
C492   C     0.50952   0.16588   0.56765   0.00000  Uiso   1.00
C493   C     0.61440   0.21185   0.57645   0.00000  Uiso   1.00
Cu494  Cu    0.44043   0.16105   0.74436   0.00000  Uiso   1.00
Cu495  Cu    0.55957   0.17228   0.75565   0.00000  Uiso   1.00
H496   H     0.43813   0.32069   0.73391   0.00000  Uiso   1.00
H497   H     0.66337   0.12772   0.70973   0.00000  Uiso   1.00
H498   H     0.63421   0.26220   0.93403   0.00000  Uiso   1.00
H499   H     0.33794   0.25261   0.51018   0.00000  Uiso   1.00
H500   H     0.46622   0.13984   0.58418   0.00000  Uiso   1.00
H501   H     0.35088   0.12378   0.89984   0.00000  Uiso   1.00
H502   H     0.39255   0.13484   0.54732   0.00000  Uiso   1.00
H503   H     0.65228   0.10899   0.99169   0.00000  Uiso   1.00
H504   H     0.55576   0.23982   0.88247   0.00000  Uiso   1.00
N505   N     0.64908   0.18074   0.76416   0.00000  Uiso   1.00
N506   N     0.35092   0.15259   0.73584   0.00000  Uiso   1.00
N507   N     0.37033   0.24132   0.62767   0.00000  Uiso   1.00
N508   N     0.35903   0.24389   0.83155   0.00000  Uiso   1.00
N509   N     0.61236   0.03896   0.80489   0.00000  Uiso   1.00
O510   O     0.46131   0.23807   0.74633   0.00000  Uiso   1.00
O511   O     0.56191   0.24755   0.75587   0.00000  Uiso   1.00
O512   O     0.42515   0.15960   0.81840   0.00000  Uiso   1.00
O513   O     0.52575   0.16908   0.82793   0.00000  Uiso   1.00
O514   O     0.43809   0.08578   0.74414   0.00000  Uiso   1.00
O515   O     0.53869   0.09526   0.75367   0.00000  Uiso   1.00
O516   O     0.47425   0.16425   0.67207   0.00000  Uiso   1.00
O517   O     0.57485   0.17373   0.68161   0.00000  Uiso   1.00
C518   C     0.84757   0.26652   0.75394   0.00000  Uiso   1.00
C519   C     0.77901   0.16544   0.90333   0.00000  Uiso   1.00
C520   C     0.85382   0.32201   0.76167   0.00000  Uiso   1.00
C521   C     0.79989   0.16599   0.84721   0.00000  Uiso   1.00
C522   C     0.81120   0.01087   0.74853   0.00000  Uiso   1.00
C523   C     0.81805   0.06671   0.74961   0.00000  Uiso   1.00
C524   C     0.86738   0.17129   0.65297   0.00000  Uiso   1.00
C525   C     0.95913   0.22862   0.52644   0.00000  Uiso   1.00
C526   C     0.88816   0.18145   0.59790   0.00000  Uiso   1.00
C527   C     0.71781   0.13876   0.92406   0.00000  Uiso   1.00
C528   C     0.69979   0.12931   0.97600   0.00000  Uiso   1.00
C529   C     0.80553   0.17098   0.98804   0.00000  Uiso   1.00
C530   C     0.74318   0.14401   0.50759   0.00000  Uiso   1.00
C531   C     0.99722   0.22822   0.60495   0.00000  Uiso   1.00
C532   C     0.67306   0.21499   0.80079   0.00000  Uiso   1.00
C533   C     0.90500   0.01683   0.78572   0.00000  Uiso   1.00
C534   C     0.82133   0.18598   0.93629   0.00000  Uiso   1.00
C535   C     0.85265   0.18400   0.51808   0.00000  Uiso   1.00
C536   C     0.91201   0.21589   0.99767   0.00000  Uiso   1.00
C537   C     0.92350   0.23570   0.94903   0.00000  Uiso   1.00
C538   C     0.87865   0.22154   0.91900   0.00000  Uiso   1.00
C539   C     0.84285   0.16588   0.56765   0.00000  Uiso   1.00
C540   C     0.94773   0.21185   0.57645   0.00000  Uiso   1.00
Cu541  Cu    0.77377   0.16105   0.74436   0.00000  Uiso   1.00
Cu542  Cu    0.89290   0.17228   0.75565   0.00000  Uiso   1.00
H543   H     0.77147   0.32069   0.73391   0.00000  Uiso   1.00
H544   H     0.99670   0.12772   0.70973   0.00000  Uiso   1.00
H545   H     0.96755   0.26220   0.93403   0.00000  Uiso   1.00
H546   H     0.67127   0.25261   0.51018   0.00000  Uiso   1.00
H547   H     0.79955   0.13984   0.58418   0.00000  Uiso   1.00
H548   H     0.68422   0.12378   0.89984   0.00000  Uiso   1.00
H549   H     0.72588   0.13484   0.54732   0.00000  Uiso   1.00
H550   H     0.98561   0.10899   0.99169   0.00000  Uiso   1.00
H551   H     0.88910   0.23982   0.88247   0.00000  Uiso   1.00
N552   N     0.98241   0.18074   0.76416   0.00000  Uiso   1.00
N553   N     0.68426   0.15259   0.73584   0.00000  Uiso   1.00
N554   N     0.70366   0.24132   0.62767   0.00000  Uiso   1.00
N555   N     0.69237   0.24389   0.83155   0.00000  Uiso   1.00
N556   N     0.94569   0.03896   0.80489   0.00000  Uiso   1.00
O557   O     0.79464   0.23807   0.74633   0.00000  Uiso   1.00
O558   O     0.89524   0.24755   0.75587   0.00000  Uiso   1.00
O559   O     0.75848   0.15960   0.81840   0.00000  Uiso   1.00
O560   O     0.85908   0.16908   0.82793   0.00000  Uiso   1.00
O561   O     0.77142   0.08578   0.74414   0.00000  Uiso   1.00
O562   O     0.87203   0.09526   0.75367   0.00000  Uiso   1.00
O563   O     0.80758   0.16425   0.67207   0.00000  Uiso   1.00
O564   O     0.90819   0.17373   0.68161   0.00000  Uiso   1.00
C565   C     0.18090   0.59985   0.75394   0.00000  Uiso   1.00
C566   C     0.11234   0.49877   0.90333   0.00000  Uiso   1.00
C567   C     0.18716   0.65534   0.76167   0.00000  Uiso   1.00
C568   C     0.13323   0.49933   0.84721   0.00000  Uiso   1.00
C569   C     0.14453   0.34421   0.74853   0.00000  Uiso   1.00
C570   C     0.15139   0.40005   0.74961   0.00000  Uiso   1.00
C571   C     0.20071   0.50462   0.65297   0.00000  Uiso   1.00
C572   C     0.29247   0.56195   0.52644   0.00000  Uiso   1.00
C573   C     0.22150   0.51478   0.59790   0.00000  Uiso   1.00
C574   C     0.05114   0.47209   0.92406   0.00000  Uiso   1.00
C575   C     0.03313   0.46264   0.97600   0.00000  Uiso   1.00
C576   C     0.13887   0.50432   0.98804   0.00000  Uiso   1.00
C577   C     0.07652   0.47735   0.50759   0.00000  Uiso   1.00
C578   C     0.33055   0.56156   0.60495   0.00000  Uiso   1.00
C579   C     0.00639   0.54833   0.80079   0.00000  Uiso   1.00
C580   C     0.23833   0.35016   0.78572   0.00000  Uiso   1.00
C581   C     0.15467   0.51931   0.93629   0.00000  Uiso   1.00
C582   C     0.18599   0.51733   0.51808   0.00000  Uiso   1.00
C583   C     0.24534   0.54922   0.99767   0.00000  Uiso   1.00
C584   C     0.25683   0.56903   0.94903   0.00000  Uiso   1.00
C585   C     0.21199   0.55487   0.91900   0.00000  Uiso   1.00
C586   C     0.17618   0.49921   0.56765   0.00000  Uiso   1.00
C587   C     0.28107   0.54519   0.57645   0.00000  Uiso   1.00
Cu588  Cu    0.10710   0.49439   0.74436   0.00000  Uiso   1.00
Cu589  Cu    0.22623   0.50561   0.75565   0.00000  Uiso   1.00
H590   H     0.10480   0.65403   0.73391   0.00000  Uiso   1.00
H591   H     0.33003   0.46106   0.70973   0.00000  Uiso   1.00
H592   H     0.30088   0.59554   0.93403   0.00000  Uiso   1.00
H593   H     0.00461   0.58594   0.51018   0.00000  Uiso   1.00
H594   H     0.13289   0.47318   0.58418   0.00000  Uiso   1.00
H595   H     0.01755   0.45712   0.89984   0.00000  Uiso   1.00
H596   H     0.05922   0.46818   0.54732   0.00000  Uiso   1.00
H597   H     0.31894   0.44233   0.99169   0.00000  Uiso   1.00
H598   H     0.22243   0.57316   0.88247   0.00000  Uiso   1.00
N599   N     0.31574   0.51407   0.76416   0.00000  Uiso   1.00
N600   N     0.01759   0.48593   0.73584   0.00000  Uiso   1.00
N601   N     0.03700   0.57465   0.62767   0.00000  Uiso   1.00
N602   N     0.02570   0.57722   0.83155   0.00000  Uiso   1.00
N603   N     0.27902   0.37229   0.80489   0.00000  Uiso   1.00
O604   O     0.12797   0.57141   0.74633   0.00000  Uiso   1.00
O605   O     0.22858   0.58089   0.75587   0.00000  Uiso   1.00
O606   O     0.09181   0.49293   0.81840   0.00000  Uiso   1.00
O607   O     0.19242   0.50241   0.82793   0.00000  Uiso   1.00
O608   O     0.10476   0.41911   0.74414   0.00000  Uiso   1.00
O609   O     0.20536   0.42859   0.75367   0.00000  Uiso   1.00
O610   O     0.14092   0.49759   0.67207   0.00000  Uiso   1.00
O611   O     0.24152   0.50707   0.68161   0.00000  Uiso   1.00
C612   C     0.51423   0.59985   0.75394   0.00000  Uiso   1.00
C613   C     0.44567   0.49877   0.90333   0.00000  Uiso   1.00
C614   C     0.52049   0.65534   0.76167   0.00000  Uiso   1.00
C615   C     0.46656   0.49933   0.84721   0.00000  Uiso   1.00
C616   C     0.47786   0.34421   0.74853   0.00000  Uiso   1.00
C617   C     0.48472   0.40005   0.74961   0.00000  Uiso   1.00
C618   C     0.53404   0.50462   0.65297   0.00000  Uiso   1.00
C619   C     0.62580   0.56195   0.52644   0.00000  Uiso   1.00
C620   C     0.55483   0.51478   0.59790   0.00000  Uiso   1.00
C621   C     0.38447   0.47209   0.92406   0.00000  Uiso   1.00
C622   C     0.36646   0.46264   0.97600   0.00000  Uiso   1.00
C623   C     0.47220   0.50432   0.98804   0.00000  Uiso   1.00
C624   C     0.40985   0.47735   0.50759   0.00000  Uiso   1.00
C625   C     0.66389   0.56156   0.60495   0.00000  Uiso   1.00
C626   C     0.33973   0.54833   0.80079   0.00000  Uiso   1.00
C627   C     0.57166   0.35016   0.78572   0.00000  Uiso   1.00
C628   C     0.48800   0.51931   0.93629   0.00000  Uiso   1.00
C629   C     0.51932   0.51733   0.51808   0.00000  Uiso   1.00
C630   C     0.57868   0.54922   0.99767   0.00000  Uiso   1.00
C631   C     0.59017   0.56903   0.94903   0.00000  Uiso   1.00
C632   C     0.54532   0.55487   0.91900   0.00000  Uiso   1.00
C633   C     0.50952   0.49921   0.56765   0.00000  Uiso   1.00
C634   C     0.61440   0.54519   0.57645   0.00000  Uiso   1.00
Cu635  Cu    0.44043   0.49439   0.74436   0.00000  Uiso   1.00
Cu636  Cu    0.55957   0.50561   0.75565   0.00000  Uiso   1.00
H637   H     0.43813   0.65403   0.73391   0.00000  Uiso   1.00
H638   H     0.66337   0.46106   0.70973   0.00000  Uiso   1.00
H639   H     0.63421   0.59554   0.93403   0.00000  Uiso   1.00
H640   H     0.33794   0.58594   0.51018   0.00000  Uiso   1.00
H641   H     0.46622   0.47318   0.58418   0.00000  Uiso   1.00
H642   H     0.35088   0.45712   0.89984   0.00000  Uiso   1.00
H643   H     0.39255   0.46818   0.54732   0.00000  Uiso   1.00
H644   H     0.65228   0.44233   0.99169   0.00000  Uiso   1.00
H645   H     0.55576   0.57316   0.88247   0.00000  Uiso   1.00
N646   N     0.64908   0.51407   0.76416   0.00000  Uiso   1.00
N647   N     0.35092   0.48593   0.73584   0.00000  Uiso   1.00
N648   N     0.37033   0.57465   0.62767   0.00000  Uiso   1.00
N649   N     0.35903   0.57722   0.83155   0.00000  Uiso   1.00
N650   N     0.61236   0.37229   0.80489   0.00000  Uiso   1.00
O651   O     0.46131   0.57141   0.74633   0.00000  Uiso   1.00
O652   O     0.56191   0.58089   0.75587   0.00000  Uiso   1.00
O653   O     0.42515   0.49293   0.81840   0.00000  Uiso   1.00
O654   O     0.52575   0.50241   0.82793   0.00000  Uiso   1.00
O655   O     0.43809   0.41911   0.74414   0.00000  Uiso   1.00
O656   O     0.53869   0.42859   0.75367   0.00000  Uiso   1.00
O657   O     0.47425   0.49759   0.67207   0.00000  Uiso   1.00
O658   O     0.57485   0.50707   0.68161   0.00000  Uiso   1.00
C659   C     0.84757   0.59985   0.75394   0.00000  Uiso   1.00
C660   C     0.77901   0.49877   0.90333   0.00000  Uiso   1.00
C661   C     0.85382   0.65534   0.76167   0.00000  Uiso   1.00
C662   C     0.79989   0.49933   0.84721   0.00000  Uiso   1.00
C663   C     0.81120   0.34421   0.74853   0.00000  Uiso   1.00
C664   C     0.81805   0.40005   0.74961   0.00000  Uiso   1.00
C665   C     0.86738   0.50462   0.65297   0.00000  Uiso   1.00
C666   C     0.95913   0.56195   0.52644   0.00000  Uiso   1.00
C667   C     0.88816   0.51478   0.59790   0.00000  Uiso   1.00
C668   C     0.71781   0.47209   0.92406   0.00000  Uiso   1.00
C669   C     0.69979   0.46264   0.97600   0.00000  Uiso   1.00
C670   C     0.80553   0.50432   0.98804   0.00000  Uiso   1.00
C671   C     0.74318   0.47735   0.50759   0.00000  Uiso   1.00
C672   C     0.99722   0.56156   0.60495   0.00000  Uiso   1.00
C673   C     0.67306   0.54833   0.80079   0.00000  Uiso   1.00
C674   C     0.90500   0.35016   0.78572   0.00000  Uiso   1.00
C675   C     0.82133   0.51931   0.93629   0.00000  Uiso   1.00
C676   C     0.85265   0.51733   0.51808   0.00000  Uiso   1.00
C677   C     0.91201   0.54922   0.99767   0.00000  Uiso   1.00
C678   C     0.92350   0.56903   0.94903   0.00000  Uiso   1.00
C679   C     0.87865   0.55487   0.91900   0.00000  Uiso   1.00
C680   C     0.84285   0.49921   0.56765   0.00000  Uiso   1.00
C681   C     0.94773   0.54519   0.57645   0.00000  Uiso   1.00
Cu682  Cu    0.77377   0.49439   0.74436   0.00000  Uiso   1.00
Cu683  Cu    0.89290   0.50561   0.75565   0.00000  Uiso   1.00
H684   H     0.77147   0.65403   0.73391   0.00000  Uiso   1.00
H685   H     0.99670   0.46106   0.70973   0.00000  Uiso   1.00
H686   H     0.96755   0.59554   0.93403   0.00000  Uiso   1.00
H687   H     0.67127   0.58594   0.51018   0.00000  Uiso   1.00
H688   H     0.79955   0.47318   0.58418   0.00000  Uiso   1.00
H689   H     0.68422   0.45712   0.89984   0.00000  Uiso   1.00
H690   H     0.72588   0.46818   0.54732   0.00000  Uiso   1.00
H691   H     0.98561   0.44233   0.99169   0.00000  Uiso   1.00
H692   H     0.88910   0.57316   0.88247   0.00000  Uiso   1.00
N693   N     0.98241   0.51407   0.76416   0.00000  Uiso   1.00
N694   N     0.68426   0.48593   0.73584   0.00000  Uiso   1.00
N695   N     0.70366   0.57465   0.62767   0.00000  Uiso   1.00
N696   N     0.69237   0.57722   0.83155   0.00000  Uiso   1.00
N697   N     0.94569   0.37229   0.80489   0.00000  Uiso   1.00
O698   O     0.79464   0.57141   0.74633   0.00000  Uiso   1.00
O699   O     0.89524   0.58089   0.75587   0.00000  Uiso   1.00
O700   O     0.75848   0.49293   0.81840   0.00000  Uiso   1.00
O701   O     0.85908   0.50241   0.82793   0.00000  Uiso   1.00
O702   O     0.77142   0.41911   0.74414   0.00000  Uiso   1.00
O703   O     0.87203   0.42859   0.75367   0.00000  Uiso   1.00
O704   O     0.80758   0.49759   0.67207   0.00000  Uiso   1.00
O705   O     0.90819   0.50707   0.68161   0.00000  Uiso   1.00
C706   C     0.18090   0.93319   0.75394   0.00000  Uiso   1.00
C707   C     0.11234   0.83211   0.90333   0.00000  Uiso   1.00
C708   C     0.18716   0.98867   0.76167   0.00000  Uiso   1.00
C709   C     0.13323   0.83266   0.84721   0.00000  Uiso   1.00
C710   C     0.14453   0.67754   0.74853   0.00000  Uiso   1.00
C711   C     0.15139   0.73338   0.74961   0.00000  Uiso   1.00
C712   C     0.20071   0.83796   0.65297   0.00000  Uiso   1.00
C713   C     0.29247   0.89529   0.52644   0.00000  Uiso   1.00
C714   C     0.22150   0.84811   0.59790   0.00000  Uiso   1.00
C715   C     0.05114   0.80543   0.92406   0.00000  Uiso   1.00
C716   C     0.03313   0.79598   0.97600   0.00000  Uiso   1.00
C717   C     0.13887   0.83765   0.98804   0.00000  Uiso   1.00
C718   C     0.07652   0.81068   0.50759   0.00000  Uiso   1.00
C719   C     0.33055   0.89489   0.60495   0.00000  Uiso   1.00
C720   C     0.00639   0.88166   0.80079   0.00000  Uiso   1.00
C721   C     0.23833   0.68350   0.78572   0.00000  Uiso   1.00
C722   C     0.15467   0.85264   0.93629   0.00000  Uiso   1.00
C723   C     0.18599   0.85067   0.51808   0.00000  Uiso   1.00
C724   C     0.24534   0.88256   0.99767   0.00000  Uiso   1.00
C725   C     0.25683   0.90236   0.94903   0.00000  Uiso   1.00
C726   C     0.21199   0.88821   0.91900   0.00000  Uiso   1.00
C727   C     0.17618   0.83254   0.56765   0.00000  Uiso   1.00
C728   C     0.28107   0.87852   0.57645   0.00000  Uiso   1.00
Cu729  Cu    0.10710   0.82772   0.74436   0.00000  Uiso   1.00
Cu730  Cu    0.22623   0.83895   0.75565   0.00000  Uiso   1.00
H731   H     0.10480   0.98736   0.73391   0.00000  Uiso   1.00
H732   H     0.33003   0.79439   0.70973   0.00000  Uiso   1.00
H733   H     0.30088   0.92887   0.93403   0.00000  Uiso   1.00
H734   H     0.00461   0.91927   0.51018   0.00000  Uiso   1.00
H735   H     0.13289   0.80651   0.58418   0.00000  Uiso   1.00
H736   H     0.01755   0.79045   0.89984   0.00000  Uiso   1.00
H737   H     0.05922   0.80151   0.54732   0.00000  Uiso   1.00
H738   H     0.31894   0.77566   0.99169   0.00000  Uiso   1.00
H739   H     0.22243   0.90649   0.88247   0.00000  Uiso   1.00
N740   N     0.31574   0.84741   0.76416   0.00000  Uiso   1.00
N741   N     0.01759   0.81926   0.73584   0.00000  Uiso   1.00
N742   N     0.03700   0.90799   0.62767   0.00000  Uiso   1.00
N743   N     0.02570   0.91056   0.83155   0.00000  Uiso   1.00
N744   N     0.27902   0.70563   0.80489   0.00000  Uiso   1.00
O745   O     0.12797   0.90474   0.74633   0.00000  Uiso   1.00
O746   O     0.22858   0.91422   0.75587   0.00000  Uiso   1.00
O747   O     0.09181   0.82627   0.81840   0.00000  Uiso   1.00
O748   O     0.19242   0.83575   0.82793   0.00000  Uiso   1.00
O749   O     0.10476   0.75245   0.74414   0.00000  Uiso   1.00
O750   O     0.20536   0.76193   0.75367   0.00000  Uiso   1.00
O751   O     0.14092   0.83092   0.67207   0.00000  Uiso   1.00
O752   O     0.24152   0.84040   0.68161   0.00000  Uiso   1.00
C753   C     0.51423   0.93319   0.75394   0.00000  Uiso   1.00
C754   C     0.44567   0.83211   0.90333   0.00000  Uiso   1.00
C755   C     0.52049   0.98867   0.76167   0.00000  Uiso   1.00
C756   C     0.46656   0.83266   0.84721   0.00000  Uiso   1.00
C757   C     0.47786   0.67754   0.74853   0.00000  Uiso   1.00
C758   C     0.48472   0.73338   0.74961   0.00000  Uiso   1.00
C759   C     0.53404   0.83796   0.65297   0.00000  Uiso   1.00
C760   C     0.62580   0.89529   0.52644   0.00000  Uiso   1.00
C761   C     0.55483   0.84811   0.59790   0.00000  Uiso   1.00
C762   C     0.38447   0.80543   0.92406   0.00000  Uiso   1.00
C763   C     0.36646   0.79598   0.97600   0.00000  Uiso   1.00
C764   C     0.47220   0.83765   0.98804   0.00000  Uiso   1.00
C765   C     0.40985   0.81068   0.50759   0.00000  Uiso   1.00
C766   C     0.66389   0.89489   0.60495   0.00000  Uiso   1.00
C767   C     0.33973   0.88166   0.80079   0.00000  Uiso   1.00
C768   C     0.57166   0.68350   0.78572   0.00000  Uiso   1.00
C769   C     0.48800   0.85264   0.93629   0.00000  Uiso   1.00
C770   C     0.51932   0.85067   0.51808   0.00000  Uiso   1.00
C771   C     0.57868   0.88256   0.99767   0.00000  Uiso   1.00
C772   C     0.59017   0.90236   0.94903   0.00000  Uiso   1.00
C773   C     0.54532   0.88821   0.91900   0.00000  Uiso   1.00
C774   C     0.50952   0.83254   0.56765   0.00000  Uiso   1.00
C775   C     0.61440   0.87852   0.57645   0.00000  Uiso   1.00
Cu776  Cu    0.44043   0.82772   0.74436   0.00000  Uiso   1.00
Cu777  Cu    0.55957   0.83895   0.75565   0.00000  Uiso   1.00
H778   H     0.43813   0.98736   0.73391   0.00000  Uiso   1.00
H779   H     0.66337   0.79439   0.70973   0.00000  Uiso   1.00
H780   H     0.63421   0.92887   0.93403   0.00000  Uiso   1.00
H781   H     0.33794   0.91927   0.51018   0.00000  Uiso   1.00
H782   H     0.46622   0.80651   0.58418   0.00000  Uiso   1.00
H783   H     0.35088   0.79045   0.89984   0.00000  Uiso   1.00
H784   H     0.39255   0.80151   0.54732   0.00000  Uiso   1.00
H785   H     0.65228   0.77566   0.99169   0.00000  Uiso   1.00
H786   H     0.55576   0.90649   0.88247   0.00000  Uiso   1.00
N787   N     0.64908   0.84741   0.76416   0.00000  Uiso   1.00
N788   N     0.35092   0.81926   0.73584   0.00000  Uiso   1.00
N789   N     0.37033   0.90799   0.62767   0.00000  Uiso   1.00
N790   N     0.35903   0.91056   0.83155   0.00000  Uiso   1.00
N791   N     0.61236   0.70563   0.80489   0.00000  Uiso   1.00
O792   O     0.46131   0.90474   0.74633   0.00000  Uiso   1.00
O793   O     0.56191   0.91422   0.75587   0.00000  Uiso   1.00
O794   O     0.42515   0.82627   0.81840   0.00000  Uiso   1.00
O795   O     0.52575   0.83575   0.82793   0.00000  Uiso   1.00
O796   O     0.43809   0.75245   0.74414   0.00000  Uiso   1.00
O797   O     0.53869   0.76193   0.75367   0.00000  Uiso   1.00
O798   O     0.47425   0.83092   0.67207   0.00000  Uiso   1.00
O799   O     0.57485   0.84040   0.68161   0.00000  Uiso   1.00
C800   C     0.84757   0.93319   0.75394   0.00000  Uiso   1.00
C801   C     0.77901   0.83211   0.90333   0.00000  Uiso   1.00
C802   C     0.85382   0.98867   0.76167   0.00000  Uiso   1.00
C803   C     0.79989   0.83266   0.84721   0.00000  Uiso   1.00
C804   C     0.81120   0.67754   0.74853   0.00000  Uiso   1.00
C805   C     0.81805   0.73338   0.74961   0.00000  Uiso   1.00
C806   C     0.86738   0.83796   0.65297   0.00000  Uiso   1.00
C807   C     0.95913   0.89529   0.52644   0.00000  Uiso   1.00
C808   C     0.88816   0.84811   0.59790   0.00000  Uiso   1.00
C809   C     0.71781   0.80543   0.92406   0.00000  Uiso   1.00
C810   C     0.69979   0.79598   0.97600   0.00000  Uiso   1.00
C811   C     0.80553   0.83765   0.98804   0.00000  Uiso   1.00
C812   C     0.74318   0.81068   0.50759   0.00000  Uiso   1.00
C813   C     0.99722   0.89489   0.60495   0.00000  Uiso   1.00
C814   C     0.67306   0.88166   0.80079   0.00000  Uiso   1.00
C815   C     0.90500   0.68350   0.78572   0.00000  Uiso   1.00
C816   C     0.82133   0.85264   0.93629   0.00000  Uiso   1.00
C817   C     0.85265   0.85067   0.51808   0.00000  Uiso   1.00
C818   C     0.91201   0.88256   0.99767   0.00000  Uiso   1.00
C819   C     0.92350   0.90236   0.94903   0.00000  Uiso   1.00
C820   C     0.87865   0.88821   0.91900   0.00000  Uiso   1.00
C821   C     0.84285   0.83254   0.56765   0.00000  Uiso   1.00
C822   C     0.94773   0.87852   0.57645   0.00000  Uiso   1.00
Cu823  Cu    0.77377   0.82772   0.74436   0.00000  Uiso   1.00
Cu824  Cu    0.89290   0.83895   0.75565   0.00000  Uiso   1.00
H825   H     0.77147   0.98736   0.73391   0.00000  Uiso   1.00
H826   H     0.99670   0.79439   0.70973   0.00000  Uiso   1.00
H827   H     0.96755   0.92887   0.93403   0.00000  Uiso   1.00
H828   H     0.67127   0.91927   0.51018   0.00000  Uiso   1.00
H829   H     0.79955   0.80651   0.58418   0.00000  Uiso   1.00
H830   H     0.68422   0.79045   0.89984   0.00000  Uiso   1.00
H831   H     0.72588   0.80151   0.54732   0.00000  Uiso   1.00
H832   H     0.98561   0.77566   0.99169   0.00000  Uiso   1.00
H833   H     0.88910   0.90649   0.88247   0.00000  Uiso   1.00
N834   N     0.98241   0.84741   0.76416   0.00000  Uiso   1.00
N835   N     0.68426   0.81926   0.73584   0.00000  Uiso   1.00
N836   N     0.70366   0.90799   0.62767   0.00000  Uiso   1.00
N837   N     0.69237   0.91056   0.83155   0.00000  Uiso   1.00
N838   N     0.94569   0.70563   0.80489   0.00000  Uiso   1.00
O839   O     0.79464   0.90474   0.74633   0.00000  Uiso   1.00
O840   O     0.89524   0.91422   0.75587   0.00000  Uiso   1.00
O841   O     0.75848   0.82627   0.81840   0.00000  Uiso   1.00
O842   O     0.85908   0.83575   0.82793   0.00000  Uiso   1.00
O843   O     0.77142   0.75245   0.74414   0.00000  Uiso   1.00
O844   O     0.87203   0.76193   0.75367   0.00000  Uiso   1.00
O845   O     0.80758   0.83092   0.67207   0.00000  Uiso   1.00
O846   O     0.90819   0.84040   0.68161   0.00000  Uiso   1.00
loop_
_geom_bond_atom_site_label_1
_geom_bond_atom_site_label_2
_geom_bond_distance
_geom_bond_site_symmetry_2
_ccdc_geom_bond_type
C1     O41     1.287   .     A
C1     C3      1.430   .     S
C1     O40     1.294   .     A
C2     C4      1.474   .     S
C2     C17     1.420   .     A
C2     C10     1.402   .     A
C3     C146    1.343   .     S
C3     C157    1.457   .     S
C4     O42     1.304   .     A
C4     O43     1.299   .     A
C5     C6      1.434   .     S
C5     C285    1.343   1_545 S
C5     H308    1.088   1_545 S
C6     O45     1.288   .     A
C6     O44     1.294   .     A
C7     O46     1.300   .     A
C7     C9      1.474   .     S
C7     O47     1.302   .     A
C8     C23     1.396   .     A
C8     C442    1.402   1_554 S
C8     H76     1.086   .     S
C9     C22     1.401   .     A
C9     C23     1.413   .     A
C10    C11     1.388   .     A
C10    H31     1.083   .     S
C11    C436    1.392   .     S
C11    H127    1.083   1_455 S
C12    C17     1.419   .     A
C12    C436    1.418   .     S
C12    C441    1.426   .     S
C13    H32     1.077   .     S
C13    C434    1.392   1_554 S
C13    C435    1.418   1_554 S
C14    C23     1.445   .     S
C14    N84     1.158   .     S
C15    N38     1.158   .     T
C15    N129    1.385   1_455 S
C16    N39     1.158   .     T
C16    C285    1.457   1_545 S
C17    C21     1.411   .     A
C18    C22     1.402   .     A
C18    C435    1.426   1_554 S
C18    C442    1.418   1_554 S
C19    C20     1.392   .     A
C19    C441    1.418   .     S
C19    C431    1.402   .     S
C20    H28     1.084   .     S
C20    C21     1.386   .     A
C21    H34     1.081   .     S
C22    H30     1.077   .     S
Cu24   Cu25    2.693   .     S
Cu24   O42     1.940   .     S
Cu24   O46     1.921   .     S
Cu24   N36     2.024   .     S
Cu24   O44     1.960   .     S
Cu24   O40     1.963   .     S
Cu25   O47     1.940   .     S
Cu25   O43     1.921   .     S
Cu25   N35     2.024   .     S
Cu25   O45     1.963   .     S
Cu25   O41     1.960   .     S
H26    C146    1.088   .     S
H27    N83     1.029   .     S
H29    C102    1.086   1_455 S
H33    C58     1.083   .     S
N35    C62     1.385   .     S
N35    N83     1.286   .     S
N36    N129    1.286   1_455 S
N36    H121    1.029   1_455 S
N37    C108    1.158   1_455 S
C48    O88     1.287   .     A
C48    C50     1.430   .     S
C48    O87     1.294   .     A
C49    C51     1.474   .     S
C49    C64     1.420   .     A
C49    C57     1.402   .     A
C50    C193    1.343   .     S
C50    C204    1.457   .     S
C51    O89     1.304   .     A
C51    O90     1.299   .     A
C52    C53     1.434   .     S
C52    C332    1.343   1_545 S
C52    H355    1.088   1_545 S
C53    O92     1.288   .     A
C53    O91     1.294   .     A
C54    O93     1.300   .     A
C54    C56     1.474   .     S
C54    O94     1.302   .     A
C55    C70     1.396   .     A
C55    C489    1.402   1_554 S
C55    H123    1.086   .     S
C56    C69     1.401   .     A
C56    C70     1.413   .     A
C57    C58     1.388   .     A
C57    H78     1.083   .     S
C58    C483    1.392   .     S
C59    C64     1.419   .     A
C59    C483    1.418   .     S
C59    C488    1.426   .     S
C60    H79     1.077   .     S
C60    C481    1.392   1_554 S
C60    C482    1.418   1_554 S
C61    C70     1.445   .     S
C61    N131    1.158   .     S
C62    N85     1.158   .     T
C63    N86     1.158   .     T
C63    C332    1.457   1_545 S
C64    C68     1.411   .     A
C65    C69     1.402   .     A
C65    C482    1.426   1_554 S
C65    C489    1.418   1_554 S
C66    C67     1.392   .     A
C66    C488    1.418   .     S
C66    C478    1.402   .     S
C67    H75     1.084   .     S
C67    C68     1.386   .     A
C68    H81     1.081   .     S
C69    H77     1.077   .     S
Cu71   Cu72    2.693   .     S
Cu71   O89     1.940   .     S
Cu71   O93     1.921   .     S
Cu71   N83     2.024   .     S
Cu71   O91     1.960   .     S
Cu71   O87     1.963   .     S
Cu72   O94     1.940   .     S
Cu72   O90     1.921   .     S
Cu72   N82     2.024   .     S
Cu72   O92     1.963   .     S
Cu72   O88     1.960   .     S
H73    C193    1.088   .     S
H74    N130    1.029   .     S
H80    C105    1.083   .     S
N82    C109    1.385   .     S
N82    N130    1.286   .     S
C95    O135    1.287   .     A
C95    C97     1.430   .     S
C95    O134    1.294   .     A
C96    C98     1.474   .     S
C96    C111    1.420   .     A
C96    C104    1.402   .     A
C97    C240    1.343   .     S
C97    C251    1.457   .     S
C98    O136    1.304   .     A
C98    O137    1.299   .     A
C99    C100    1.434   .     S
C99    C379    1.343   1_545 S
C99    H402    1.088   1_545 S
C100   O139    1.288   .     A
C100   O138    1.294   .     A
C101   O140    1.300   .     A
C101   C103    1.474   .     S
C101   O141    1.302   .     A
C102   C117    1.396   .     A
C102   C536    1.402   1_554 S
C102   H29     1.086   1_655 S
C103   C116    1.401   .     A
C103   C117    1.413   .     A
C104   C105    1.388   .     A
C104   H125    1.083   .     S
C105   C530    1.392   .     S
C106   C111    1.419   .     A
C106   C530    1.418   .     S
C106   C535    1.426   .     S
C107   H126    1.077   .     S
C107   C528    1.392   1_554 S
C107   C529    1.418   1_554 S
C108   C117    1.445   .     S
C108   N37     1.158   1_655 S
C109   N132    1.158   .     T
C110   N133    1.158   .     T
C110   C379    1.457   1_545 S
C111   C115    1.411   .     A
C112   C116    1.402   .     A
C112   C529    1.426   1_554 S
C112   C536    1.418   1_554 S
C113   C114    1.392   .     A
C113   C535    1.418   .     S
C113   C525    1.402   .     S
C114   H122    1.084   .     S
C114   C115    1.386   .     A
C115   H128    1.081   .     S
C116   H124    1.077   .     S
Cu118  Cu119   2.693   .     S
Cu118  O136    1.940   .     S
Cu118  O140    1.921   .     S
Cu118  N130    2.024   .     S
Cu118  O138    1.960   .     S
Cu118  O134    1.963   .     S
Cu119  O141    1.940   .     S
Cu119  O137    1.921   .     S
Cu119  N129    2.024   .     S
Cu119  O139    1.963   .     S
Cu119  O135    1.960   .     S
H120   C240    1.088   .     S
H121   N36     1.029   1_655 S
H127   C11     1.083   1_655 S
N129   C15     1.385   1_655 S
N129   N36     1.286   1_655 S
C142   O182    1.287   .     A
C142   C144    1.430   .     S
C142   O181    1.294   .     A
C143   C145    1.474   .     S
C143   C158    1.420   .     A
C143   C151    1.402   .     A
C144   C287    1.343   .     S
C144   C298    1.457   .     S
C145   O183    1.304   .     A
C145   O184    1.299   .     A
C146   C147    1.434   .     S
C147   O186    1.288   .     A
C147   O185    1.294   .     A
C148   O187    1.300   .     A
C148   C150    1.474   .     S
C148   O188    1.302   .     A
C149   C164    1.396   .     A
C149   C583    1.402   1_554 S
C149   H217    1.086   .     S
C150   C163    1.401   .     A
C150   C164    1.413   .     A
C151   C152    1.388   .     A
C151   H172    1.083   .     S
C152   C577    1.392   .     S
C152   H268    1.083   1_455 S
C153   C158    1.419   .     A
C153   C577    1.418   .     S
C153   C582    1.426   .     S
C154   H173    1.077   .     S
C154   C575    1.392   1_554 S
C154   C576    1.418   1_554 S
C155   C164    1.445   .     S
C155   N225    1.158   .     S
C156   N179    1.158   .     T
C156   N270    1.385   1_455 S
C157   N180    1.158   .     T
C158   C162    1.411   .     A
C159   C163    1.402   .     A
C159   C576    1.426   1_554 S
C159   C583    1.418   1_554 S
C160   C161    1.392   .     A
C160   C582    1.418   .     S
C160   C572    1.402   .     S
C161   H169    1.084   .     S
C161   C162    1.386   .     A
C162   H175    1.081   .     S
C163   H171    1.077   .     S
Cu165  Cu166   2.693   .     S
Cu165  O183    1.940   .     S
Cu165  O187    1.921   .     S
Cu165  N177    2.024   .     S
Cu165  O185    1.960   .     S
Cu165  O181    1.963   .     S
Cu166  O188    1.940   .     S
Cu166  O184    1.921   .     S
Cu166  N176    2.024   .     S
Cu166  O186    1.963   .     S
Cu166  O182    1.960   .     S
H167   C287    1.088   .     S
H168   N224    1.029   .     S
H170   C243    1.086   1_455 S
H174   C199    1.083   .     S
N176   C203    1.385   .     S
N176   N224    1.286   .     S
N177   N270    1.286   1_455 S
N177   H262    1.029   1_455 S
N178   C249    1.158   1_455 S
C189   O229    1.287   .     A
C189   C191    1.430   .     S
C189   O228    1.294   .     A
C190   C192    1.474   .     S
C190   C205    1.420   .     A
C190   C198    1.402   .     A
C191   C334    1.343   .     S
C191   C345    1.457   .     S
C192   O230    1.304   .     A
C192   O231    1.299   .     A
C193   C194    1.434   .     S
C194   O233    1.288   .     A
C194   O232    1.294   .     A
C195   O234    1.300   .     A
C195   C197    1.474   .     S
C195   O235    1.302   .     A
C196   C211    1.396   .     A
C196   C630    1.402   1_554 S
C196   H264    1.086   .     S
C197   C210    1.401   .     A
C197   C211    1.413   .     A
C198   C199    1.388   .     A
C198   H219    1.083   .     S
C199   C624    1.392   .     S
C200   C205    1.419   .     A
C200   C624    1.418   .     S
C200   C629    1.426   .     S
C201   H220    1.077   .     S
C201   C622    1.392   1_554 S
C201   C623    1.418   1_554 S
C202   C211    1.445   .     S
C202   N272    1.158   .     S
C203   N226    1.158   .     T
C204   N227    1.158   .     T
C205   C209    1.411   .     A
C206   C210    1.402   .     A
C206   C623    1.426   1_554 S
C206   C630    1.418   1_554 S
C207   C208    1.392   .     A
C207   C629    1.418   .     S
C207   C619    1.402   .     S
C208   H216    1.084   .     S
C208   C209    1.386   .     A
C209   H222    1.081   .     S
C210   H218    1.077   .     S
Cu212  Cu213   2.693   .     S
Cu212  O230    1.940   .     S
Cu212  O234    1.921   .     S
Cu212  N224    2.024   .     S
Cu212  O232    1.960   .     S
Cu212  O228    1.963   .     S
Cu213  O235    1.940   .     S
Cu213  O231    1.921   .     S
Cu213  N223    2.024   .     S
Cu213  O233    1.963   .     S
Cu213  O229    1.960   .     S
H214   C334    1.088   .     S
H215   N271    1.029   .     S
H221   C246    1.083   .     S
N223   C250    1.385   .     S
N223   N271    1.286   .     S
C236   O276    1.287   .     A
C236   C238    1.430   .     S
C236   O275    1.294   .     A
C237   C239    1.474   .     S
C237   C252    1.420   .     A
C237   C245    1.402   .     A
C238   C381    1.343   .     S
C238   C392    1.457   .     S
C239   O277    1.304   .     A
C239   O278    1.299   .     A
C240   C241    1.434   .     S
C241   O280    1.288   .     A
C241   O279    1.294   .     A
C242   O281    1.300   .     A
C242   C244    1.474   .     S
C242   O282    1.302   .     A
C243   C258    1.396   .     A
C243   C677    1.402   1_554 S
C243   H170    1.086   1_655 S
C244   C257    1.401   .     A
C244   C258    1.413   .     A
C245   C246    1.388   .     A
C245   H266    1.083   .     S
C246   C671    1.392   .     S
C247   C252    1.419   .     A
C247   C671    1.418   .     S
C247   C676    1.426   .     S
C248   H267    1.077   .     S
C248   C669    1.392   1_554 S
C248   C670    1.418   1_554 S
C249   C258    1.445   .     S
C249   N178    1.158   1_655 S
C250   N273    1.158   .     T
C251   N274    1.158   .     T
C252   C256    1.411   .     A
C253   C257    1.402   .     A
C253   C670    1.426   1_554 S
C253   C677    1.418   1_554 S
C254   C255    1.392   .     A
C254   C676    1.418   .     S
C254   C666    1.402   .     S
C255   H263    1.084   .     S
C255   C256    1.386   .     A
C256   H269    1.081   .     S
C257   H265    1.077   .     S
Cu259  Cu260   2.693   .     S
Cu259  O277    1.940   .     S
Cu259  O281    1.921   .     S
Cu259  N271    2.024   .     S
Cu259  O279    1.960   .     S
Cu259  O275    1.963   .     S
Cu260  O282    1.940   .     S
Cu260  O278    1.921   .     S
Cu260  N270    2.024   .     S
Cu260  O280    1.963   .     S
Cu260  O276    1.960   .     S
H261   C381    1.088   .     S
H262   N177    1.029   1_655 S
H268   C152    1.083   1_655 S
N270   C156    1.385   1_655 S
N270   N177    1.286   1_655 S
C283   O323    1.287   .     A
C283   C285    1.430   .     S
C283   O322    1.294   .     A
C284   C286    1.474   .     S
C284   C299    1.420   .     A
C284   C292    1.402   .     A
C285   C5      1.343   1_565 S
C285   C16     1.457   1_565 S
C286   O324    1.304   .     A
C286   O325    1.299   .     A
C287   C288    1.434   .     S
C288   O327    1.288   .     A
C288   O326    1.294   .     A
C289   O328    1.300   .     A
C289   C291    1.474   .     S
C289   O329    1.302   .     A
C290   C305    1.396   .     A
C290   C724    1.402   1_554 S
C290   H358    1.086   .     S
C291   C304    1.401   .     A
C291   C305    1.413   .     A
C292   C293    1.388   .     A
C292   H313    1.083   .     S
C293   C718    1.392   .     S
C293   H409    1.083   1_455 S
C294   C299    1.419   .     A
C294   C718    1.418   .     S
C294   C723    1.426   .     S
C295   H314    1.077   .     S
C295   C716    1.392   1_554 S
C295   C717    1.418   1_554 S
C296   C305    1.445   .     S
C296   N366    1.158   .     S
C297   N320    1.158   .     T
C297   N411    1.385   1_455 S
C298   N321    1.158   .     T
C299   C303    1.411   .     A
C300   C304    1.402   .     A
C300   C717    1.426   1_554 S
C300   C724    1.418   1_554 S
C301   C302    1.392   .     A
C301   C723    1.418   .     S
C301   C713    1.402   .     S
C302   H310    1.084   .     S
C302   C303    1.386   .     A
C303   H316    1.081   .     S
C304   H312    1.077   .     S
Cu306  Cu307   2.693   .     S
Cu306  O324    1.940   .     S
Cu306  O328    1.921   .     S
Cu306  N318    2.024   .     S
Cu306  O326    1.960   .     S
Cu306  O322    1.963   .     S
Cu307  O329    1.940   .     S
Cu307  O325    1.921   .     S
Cu307  N317    2.024   .     S
Cu307  O327    1.963   .     S
Cu307  O323    1.960   .     S
H308   C5      1.088   1_565 S
H309   N365    1.029   .     S
H311   C384    1.086   1_455 S
H315   C340    1.083   .     S
N317   C344    1.385   .     S
N317   N365    1.286   .     S
N318   N411    1.286   1_455 S
N318   H403    1.029   1_455 S
N319   C390    1.158   1_455 S
C330   O370    1.287   .     A
C330   C332    1.430   .     S
C330   O369    1.294   .     A
C331   C333    1.474   .     S
C331   C346    1.420   .     A
C331   C339    1.402   .     A
C332   C52     1.343   1_565 S
C332   C63     1.457   1_565 S
C333   O371    1.304   .     A
C333   O372    1.299   .     A
C334   C335    1.434   .     S
C335   O374    1.288   .     A
C335   O373    1.294   .     A
C336   O375    1.300   .     A
C336   C338    1.474   .     S
C336   O376    1.302   .     A
C337   C352    1.396   .     A
C337   C771    1.402   1_554 S
C337   H405    1.086   .     S
C338   C351    1.401   .     A
C338   C352    1.413   .     A
C339   C340    1.388   .     A
C339   H360    1.083   .     S
C340   C765    1.392   .     S
C341   C346    1.419   .     A
C341   C765    1.418   .     S
C341   C770    1.426   .     S
C342   H361    1.077   .     S
C342   C763    1.392   1_554 S
C342   C764    1.418   1_554 S
C343   C352    1.445   .     S
C343   N413    1.158   .     S
C344   N367    1.158   .     T
C345   N368    1.158   .     T
C346   C350    1.411   .     A
C347   C351    1.402   .     A
C347   C764    1.426   1_554 S
C347   C771    1.418   1_554 S
C348   C349    1.392   .     A
C348   C770    1.418   .     S
C348   C760    1.402   .     S
C349   H357    1.084   .     S
C349   C350    1.386   .     A
C350   H363    1.081   .     S
C351   H359    1.077   .     S
Cu353  Cu354   2.693   .     S
Cu353  O371    1.940   .     S
Cu353  O375    1.921   .     S
Cu353  N365    2.024   .     S
Cu353  O373    1.960   .     S
Cu353  O369    1.963   .     S
Cu354  O376    1.940   .     S
Cu354  O372    1.921   .     S
Cu354  N364    2.024   .     S
Cu354  O374    1.963   .     S
Cu354  O370    1.960   .     S
H355   C52     1.088   1_565 S
H356   N412    1.029   .     S
H362   C387    1.083   .     S
N364   C391    1.385   .     S
N364   N412    1.286   .     S
C377   O417    1.287   .     A
C377   C379    1.430   .     S
C377   O416    1.294   .     A
C378   C380    1.474   .     S
C378   C393    1.420   .     A
C378   C386    1.402   .     A
C379   C99     1.343   1_565 S
C379   C110    1.457   1_565 S
C380   O418    1.304   .     A
C380   O419    1.299   .     A
C381   C382    1.434   .     S
C382   O421    1.288   .     A
C382   O420    1.294   .     A
C383   O422    1.300   .     A
C383   C385    1.474   .     S
C383   O423    1.302   .     A
C384   C399    1.396   .     A
C384   C818    1.402   1_554 S
C384   H311    1.086   1_655 S
C385   C398    1.401   .     A
C385   C399    1.413   .     A
C386   C387    1.388   .     A
C386   H407    1.083   .     S
C387   C812    1.392   .     S
C388   C393    1.419   .     A
C388   C812    1.418   .     S
C388   C817    1.426   .     S
C389   H408    1.077   .     S
C389   C810    1.392   1_554 S
C389   C811    1.418   1_554 S
C390   C399    1.445   .     S
C390   N319    1.158   1_655 S
C391   N414    1.158   .     T
C392   N415    1.158   .     T
C393   C397    1.411   .     A
C394   C398    1.402   .     A
C394   C811    1.426   1_554 S
C394   C818    1.418   1_554 S
C395   C396    1.392   .     A
C395   C817    1.418   .     S
C395   C807    1.402   .     S
C396   H404    1.084   .     S
C396   C397    1.386   .     A
C397   H410    1.081   .     S
C398   H406    1.077   .     S
Cu400  Cu401   2.693   .     S
Cu400  O418    1.940   .     S
Cu400  O422    1.921   .     S
Cu400  N412    2.024   .     S
Cu400  O420    1.960   .     S
Cu400  O416    1.963   .     S
Cu401  O423    1.940   .     S
Cu401  O419    1.921   .     S
Cu401  N411    2.024   .     S
Cu401  O421    1.963   .     S
Cu401  O417    1.960   .     S
H402   C99     1.088   1_565 S
H403   N318    1.029   1_655 S
H409   C293    1.083   1_655 S
N411   C297    1.385   1_655 S
N411   N318    1.286   1_655 S
C424   O464    1.287   .     A
C424   C426    1.430   .     S
C424   O463    1.294   .     A
C425   C427    1.474   .     S
C425   C440    1.420   .     A
C425   C433    1.402   .     A
C426   C569    1.343   .     S
C426   C580    1.457   .     S
C427   O465    1.304   .     A
C427   O466    1.299   .     A
C428   C429    1.434   .     S
C428   C708    1.343   1_545 S
C428   H731    1.088   1_545 S
C429   O468    1.288   .     A
C429   O467    1.294   .     A
C430   O469    1.300   .     A
C430   C432    1.474   .     S
C430   O470    1.302   .     A
C431   C446    1.396   .     A
C431   H499    1.086   .     S
C432   C445    1.401   .     A
C432   C446    1.413   .     A
C433   C434    1.388   .     A
C433   H454    1.083   .     S
C434   C13     1.392   1_556 S
C434   H550    1.083   1_455 S
C435   C440    1.419   .     A
C435   C13     1.418   1_556 S
C435   C18     1.426   1_556 S
C436   H455    1.077   .     S
C437   C446    1.445   .     S
C437   N507    1.158   .     S
C438   N461    1.158   .     T
C438   N552    1.385   1_455 S
C439   N462    1.158   .     T
C439   C708    1.457   1_545 S
C440   C444    1.411   .     A
C441   C445    1.402   .     A
C442   C443    1.392   .     A
C442   C18     1.418   1_556 S
C442   C8      1.402   1_556 S
C443   H451    1.084   .     S
C443   C444    1.386   .     A
C444   H457    1.081   .     S
C445   H453    1.077   .     S
Cu447  Cu448   2.693   .     S
Cu447  O465    1.940   .     S
Cu447  O469    1.921   .     S
Cu447  N459    2.024   .     S
Cu447  O467    1.960   .     S
Cu447  O463    1.963   .     S
Cu448  O470    1.940   .     S
Cu448  O466    1.921   .     S
Cu448  N458    2.024   .     S
Cu448  O468    1.963   .     S
Cu448  O464    1.960   .     S
H449   C569    1.088   .     S
H450   N506    1.029   .     S
H452   C525    1.086   1_455 S
H456   C481    1.083   .     S
N458   C485    1.385   .     S
N458   N506    1.286   .     S
N459   N552    1.286   1_455 S
N459   H544    1.029   1_455 S
N460   C531    1.158   1_455 S
C471   O511    1.287   .     A
C471   C473    1.430   .     S
C471   O510    1.294   .     A
C472   C474    1.474   .     S
C472   C487    1.420   .     A
C472   C480    1.402   .     A
C473   C616    1.343   .     S
C473   C627    1.457   .     S
C474   O512    1.304   .     A
C474   O513    1.299   .     A
C475   C476    1.434   .     S
C475   C755    1.343   1_545 S
C475   H778    1.088   1_545 S
C476   O515    1.288   .     A
C476   O514    1.294   .     A
C477   O516    1.300   .     A
C477   C479    1.474   .     S
C477   O517    1.302   .     A
C478   C493    1.396   .     A
C478   H546    1.086   .     S
C479   C492    1.401   .     A
C479   C493    1.413   .     A
C480   C481    1.388   .     A
C480   H501    1.083   .     S
C481   C60     1.392   1_556 S
C482   C487    1.419   .     A
C482   C60     1.418   1_556 S
C482   C65     1.426   1_556 S
C483   H502    1.077   .     S
C484   C493    1.445   .     S
C484   N554    1.158   .     S
C485   N508    1.158   .     T
C486   N509    1.158   .     T
C486   C755    1.457   1_545 S
C487   C491    1.411   .     A
C488   C492    1.402   .     A
C489   C490    1.392   .     A
C489   C65     1.418   1_556 S
C489   C55     1.402   1_556 S
C490   H498    1.084   .     S
C490   C491    1.386   .     A
C491   H504    1.081   .     S
C492   H500    1.077   .     S
Cu494  Cu495   2.693   .     S
Cu494  O512    1.940   .     S
Cu494  O516    1.921   .     S
Cu494  N506    2.024   .     S
Cu494  O514    1.960   .     S
Cu494  O510    1.963   .     S
Cu495  O517    1.940   .     S
Cu495  O513    1.921   .     S
Cu495  N505    2.024   .     S
Cu495  O515    1.963   .     S
Cu495  O511    1.960   .     S
H496   C616    1.088   .     S
H497   N553    1.029   .     S
H503   C528    1.083   .     S
N505   C532    1.385   .     S
N505   N553    1.286   .     S
C518   O558    1.287   .     A
C518   C520    1.430   .     S
C518   O557    1.294   .     A
C519   C521    1.474   .     S
C519   C534    1.420   .     A
C519   C527    1.402   .     A
C520   C663    1.343   .     S
C520   C674    1.457   .     S
C521   O559    1.304   .     A
C521   O560    1.299   .     A
C522   C523    1.434   .     S
C522   C802    1.343   1_545 S
C522   H825    1.088   1_545 S
C523   O562    1.288   .     A
C523   O561    1.294   .     A
C524   O563    1.300   .     A
C524   C526    1.474   .     S
C524   O564    1.302   .     A
C525   C540    1.396   .     A
C525   H452    1.086   1_655 S
C526   C539    1.401   .     A
C526   C540    1.413   .     A
C527   C528    1.388   .     A
C527   H548    1.083   .     S
C528   C107    1.392   1_556 S
C529   C534    1.419   .     A
C529   C107    1.418   1_556 S
C529   C112    1.426   1_556 S
C530   H549    1.077   .     S
C531   C540    1.445   .     S
C531   N460    1.158   1_655 S
C532   N555    1.158   .     T
C533   N556    1.158   .     T
C533   C802    1.457   1_545 S
C534   C538    1.411   .     A
C535   C539    1.402   .     A
C536   C537    1.392   .     A
C536   C112    1.418   1_556 S
C536   C102    1.402   1_556 S
C537   H545    1.084   .     S
C537   C538    1.386   .     A
C538   H551    1.081   .     S
C539   H547    1.077   .     S
Cu541  Cu542   2.693   .     S
Cu541  O559    1.940   .     S
Cu541  O563    1.921   .     S
Cu541  N553    2.024   .     S
Cu541  O561    1.960   .     S
Cu541  O557    1.963   .     S
Cu542  O564    1.940   .     S
Cu542  O560    1.921   .     S
Cu542  N552    2.024   .     S
Cu542  O562    1.963   .     S
Cu542  O558    1.960   .     S
H543   C663    1.088   .     S
H544   N459    1.029   1_655 S
H550   C434    1.083   1_655 S
N552   C438    1.385   1_655 S
N552   N459    1.286   1_655 S
C565   O605    1.287   .     A
C565   C567    1.430   .     S
C565   O604    1.294   .     A
C566   C568    1.474   .     S
C566   C581    1.420   .     A
C566   C574    1.402   .     A
C567   C710    1.343   .     S
C567   C721    1.457   .     S
C568   O606    1.304   .     A
C568   O607    1.299   .     A
C569   C570    1.434   .     S
C570   O609    1.288   .     A
C570   O608    1.294   .     A
C571   O610    1.300   .     A
C571   C573    1.474   .     S
C571   O611    1.302   .     A
C572   C587    1.396   .     A
C572   H640    1.086   .     S
C573   C586    1.401   .     A
C573   C587    1.413   .     A
C574   C575    1.388   .     A
C574   H595    1.083   .     S
C575   C154    1.392   1_556 S
C575   H691    1.083   1_455 S
C576   C581    1.419   .     A
C576   C154    1.418   1_556 S
C576   C159    1.426   1_556 S
C577   H596    1.077   .     S
C578   C587    1.445   .     S
C578   N648    1.158   .     S
C579   N602    1.158   .     T
C579   N693    1.385   1_455 S
C580   N603    1.158   .     T
C581   C585    1.411   .     A
C582   C586    1.402   .     A
C583   C584    1.392   .     A
C583   C159    1.418   1_556 S
C583   C149    1.402   1_556 S
C584   H592    1.084   .     S
C584   C585    1.386   .     A
C585   H598    1.081   .     S
C586   H594    1.077   .     S
Cu588  Cu589   2.693   .     S
Cu588  O606    1.940   .     S
Cu588  O610    1.921   .     S
Cu588  N600    2.024   .     S
Cu588  O608    1.960   .     S
Cu588  O604    1.963   .     S
Cu589  O611    1.940   .     S
Cu589  O607    1.921   .     S
Cu589  N599    2.024   .     S
Cu589  O609    1.963   .     S
Cu589  O605    1.960   .     S
H590   C710    1.088   .     S
H591   N647    1.029   .     S
H593   C666    1.086   1_455 S
H597   C622    1.083   .     S
N599   C626    1.385   .     S
N599   N647    1.286   .     S
N600   N693    1.286   1_455 S
N600   H685    1.029   1_455 S
N601   C672    1.158   1_455 S
C612   O652    1.287   .     A
C612   C614    1.430   .     S
C612   O651    1.294   .     A
C613   C615    1.474   .     S
C613   C628    1.420   .     A
C613   C621    1.402   .     A
C614   C757    1.343   .     S
C614   C768    1.457   .     S
C615   O653    1.304   .     A
C615   O654    1.299   .     A
C616   C617    1.434   .     S
C617   O656    1.288   .     A
C617   O655    1.294   .     A
C618   O657    1.300   .     A
C618   C620    1.474   .     S
C618   O658    1.302   .     A
C619   C634    1.396   .     A
C619   H687    1.086   .     S
C620   C633    1.401   .     A
C620   C634    1.413   .     A
C621   C622    1.388   .     A
C621   H642    1.083   .     S
C622   C201    1.392   1_556 S
C623   C628    1.419   .     A
C623   C201    1.418   1_556 S
C623   C206    1.426   1_556 S
C624   H643    1.077   .     S
C625   C634    1.445   .     S
C625   N695    1.158   .     S
C626   N649    1.158   .     T
C627   N650    1.158   .     T
C628   C632    1.411   .     A
C629   C633    1.402   .     A
C630   C631    1.392   .     A
C630   C206    1.418   1_556 S
C630   C196    1.402   1_556 S
C631   H639    1.084   .     S
C631   C632    1.386   .     A
C632   H645    1.081   .     S
C633   H641    1.077   .     S
Cu635  Cu636   2.693   .     S
Cu635  O653    1.940   .     S
Cu635  O657    1.921   .     S
Cu635  N647    2.024   .     S
Cu635  O655    1.960   .     S
Cu635  O651    1.963   .     S
Cu636  O658    1.940   .     S
Cu636  O654    1.921   .     S
Cu636  N646    2.024   .     S
Cu636  O656    1.963   .     S
Cu636  O652    1.960   .     S
H637   C757    1.088   .     S
H638   N694    1.029   .     S
H644   C669    1.083   .     S
N646   C673    1.385   .     S
N646   N694    1.286   .     S
C659   O699    1.287   .     A
C659   C661    1.430   .     S
C659   O698    1.294   .     A
C660   C662    1.474   .     S
C660   C675    1.420   .     A
C660   C668    1.402   .     A
C661   C804    1.343   .     S
C661   C815    1.457   .     S
C662   O700    1.304   .     A
C662   O701    1.299   .     A
C663   C664    1.434   .     S
C664   O703    1.288   .     A
C664   O702    1.294   .     A
C665   O704    1.300   .     A
C665   C667    1.474   .     S
C665   O705    1.302   .     A
C666   C681    1.396   .     A
C666   H593    1.086   1_655 S
C667   C680    1.401   .     A
C667   C681    1.413   .     A
C668   C669    1.388   .     A
C668   H689    1.083   .     S
C669   C248    1.392   1_556 S
C670   C675    1.419   .     A
C670   C248    1.418   1_556 S
C670   C253    1.426   1_556 S
C671   H690    1.077   .     S
C672   C681    1.445   .     S
C672   N601    1.158   1_655 S
C673   N696    1.158   .     T
C674   N697    1.158   .     T
C675   C679    1.411   .     A
C676   C680    1.402   .     A
C677   C678    1.392   .     A
C677   C253    1.418   1_556 S
C677   C243    1.402   1_556 S
C678   H686    1.084   .     S
C678   C679    1.386   .     A
C679   H692    1.081   .     S
C680   H688    1.077   .     S
Cu682  Cu683   2.693   .     S
Cu682  O700    1.940   .     S
Cu682  O704    1.921   .     S
Cu682  N694    2.024   .     S
Cu682  O702    1.960   .     S
Cu682  O698    1.963   .     S
Cu683  O705    1.940   .     S
Cu683  O701    1.921   .     S
Cu683  N693    2.024   .     S
Cu683  O703    1.963   .     S
Cu683  O699    1.960   .     S
H684   C804    1.088   .     S
H685   N600    1.029   1_655 S
H691   C575    1.083   1_655 S
N693   C579    1.385   1_655 S
N693   N600    1.286   1_655 S
C706   O746    1.287   .     A
C706   C708    1.430   .     S
C706   O745    1.294   .     A
C707   C709    1.474   .     S
C707   C722    1.420   .     A
C707   C715    1.402   .     A
C708   C428    1.343   1_565 S
C708   C439    1.457   1_565 S
C709   O747    1.304   .     A
C709   O748    1.299   .     A
C710   C711    1.434   .     S
C711   O750    1.288   .     A
C711   O749    1.294   .     A
C712   O751    1.300   .     A
C712   C714    1.474   .     S
C712   O752    1.302   .     A
C713   C728    1.396   .     A
C713   H781    1.086   .     S
C714   C727    1.401   .     A
C714   C728    1.413   .     A
C715   C716    1.388   .     A
C715   H736    1.083   .     S
C716   C295    1.392   1_556 S
C716   H832    1.083   1_455 S
C717   C722    1.419   .     A
C717   C295    1.418   1_556 S
C717   C300    1.426   1_556 S
C718   H737    1.077   .     S
C719   C728    1.445   .     S
C719   N789    1.158   .     S
C720   N743    1.158   .     T
C720   N834    1.385   1_455 S
C721   N744    1.158   .     T
C722   C726    1.411   .     A
C723   C727    1.402   .     A
C724   C725    1.392   .     A
C724   C300    1.418   1_556 S
C724   C290    1.402   1_556 S
C725   H733    1.084   .     S
C725   C726    1.386   .     A
C726   H739    1.081   .     S
C727   H735    1.077   .     S
Cu729  Cu730   2.693   .     S
Cu729  O747    1.940   .     S
Cu729  O751    1.921   .     S
Cu729  N741    2.024   .     S
Cu729  O749    1.960   .     S
Cu729  O745    1.963   .     S
Cu730  O752    1.940   .     S
Cu730  O748    1.921   .     S
Cu730  N740    2.024   .     S
Cu730  O750    1.963   .     S
Cu730  O746    1.960   .     S
H731   C428    1.088   1_565 S
H732   N788    1.029   .     S
H734   C807    1.086   1_455 S
H738   C763    1.083   .     S
N740   C767    1.385   .     S
N740   N788    1.286   .     S
N741   N834    1.286   1_455 S
N741   H826    1.029   1_455 S
N742   C813    1.158   1_455 S
C753   O793    1.287   .     A
C753   C755    1.430   .     S
C753   O792    1.294   .     A
C754   C756    1.474   .     S
C754   C769    1.420   .     A
C754   C762    1.402   .     A
C755   C475    1.343   1_565 S
C755   C486    1.457   1_565 S
C756   O794    1.304   .     A
C756   O795    1.299   .     A
C757   C758    1.434   .     S
C758   O797    1.288   .     A
C758   O796    1.294   .     A
C759   O798    1.300   .     A
C759   C761    1.474   .     S
C759   O799    1.302   .     A
C760   C775    1.396   .     A
C760   H828    1.086   .     S
C761   C774    1.401   .     A
C761   C775    1.413   .     A
C762   C763    1.388   .     A
C762   H783    1.083   .     S
C763   C342    1.392   1_556 S
C764   C769    1.419   .     A
C764   C342    1.418   1_556 S
C764   C347    1.426   1_556 S
C765   H784    1.077   .     S
C766   C775    1.445   .     S
C766   N836    1.158   .     S
C767   N790    1.158   .     T
C768   N791    1.158   .     T
C769   C773    1.411   .     A
C770   C774    1.402   .     A
C771   C772    1.392   .     A
C771   C347    1.418   1_556 S
C771   C337    1.402   1_556 S
C772   H780    1.084   .     S
C772   C773    1.386   .     A
C773   H786    1.081   .     S
C774   H782    1.077   .     S
Cu776  Cu777   2.693   .     S
Cu776  O794    1.940   .     S
Cu776  O798    1.921   .     S
Cu776  N788    2.024   .     S
Cu776  O796    1.960   .     S
Cu776  O792    1.963   .     S
Cu777  O799    1.940   .     S
Cu777  O795    1.921   .     S
Cu777  N787    2.024   .     S
Cu777  O797    1.963   .     S
Cu777  O793    1.960   .     S
H778   C475    1.088   1_565 S
H779   N835    1.029   .     S
H785   C810    1.083   .     S
N787   C814    1.385   .     S
N787   N835    1.286   .     S
C800   O840    1.287   .     A
C800   C802    1.430   .     S
C800   O839    1.294   .     A
C801   C803    1.474   .     S
C801   C816    1.420   .     A
C801   C809    1.402   .     A
C802   C522    1.343   1_565 S
C802   C533    1.457   1_565 S
C803   O841    1.304   .     A
C803   O842    1.299   .     A
C804   C805    1.434   .     S
C805   O844    1.288   .     A
C805   O843    1.294   .     A
C806   O845    1.300   .     A
C806   C808    1.474   .     S
C806   O846    1.302   .     A
C807   C822    1.396   .     A
C807   H734    1.086   1_655 S
C808   C821    1.401   .     A
C808   C822    1.413   .     A
C809   C810    1.388   .     A
C809   H830    1.083   .     S
C810   C389    1.392   1_556 S
C811   C816    1.419   .     A
C811   C389    1.418   1_556 S
C811   C394    1.426   1_556 S
C812   H831    1.077   .     S
C813   C822    1.445   .     S
C813   N742    1.158   1_655 S
C814   N837    1.158   .     T
C815   N838    1.158   .     T
C816   C820    1.411   .     A
C817   C821    1.402   .     A
C818   C819    1.392   .     A
C818   C394    1.418   1_556 S
C818   C384    1.402   1_556 S
C819   H827    1.084   .     S
C819   C820    1.386   .     A
C820   H833    1.081   .     S
C821   H829    1.077   .     S
Cu823  Cu824   2.693   .     S
Cu823  O841    1.940   .     S
Cu823  O845    1.921   .     S
Cu823  N835    2.024   .     S
Cu823  O843    1.960   .     S
Cu823  O839    1.963   .     S
Cu824  O846    1.940   .     S
Cu824  O842    1.921   .     S
Cu824  N834    2.024   .     S
Cu824  O844    1.963   .     S
Cu824  O840    1.960   .     S
H825   C522    1.088   1_565 S
H826   N741    1.029   1_655 S
H832   C716    1.083   1_655 S
N834   C720    1.385   1_655 S
N834   N741    1.286   1_655 S
