data_str_m2_o1_o17_pcu_sym.113
_audit_creation_date              2020-01-03
_audit_creation_method            'Materials Studio'
_symmetry_space_group_name_H-M    'P1'
_symmetry_Int_Tables_number       1
_symmetry_cell_setting            triclinic
loop_
_symmetry_equiv_pos_as_xyz
  x,y,z
_cell_length_a                    32.5322
_cell_length_b                    28.5621
_cell_length_c                    29.9806
_cell_angle_alpha                 90.1067
_cell_angle_beta                  89.4890
_cell_angle_gamma                 90.1840
loop_
_atom_site_label
_atom_site_type_symbol
_atom_site_fract_x
_atom_site_fract_y
_atom_site_fract_z
_atom_site_U_iso_or_equiv
_atom_site_adp_type
_atom_site_occupancy
C1     C     0.08735   0.16662   0.24999   0.00000  Uiso   1.00
C2     C     0.24598   0.16671   0.25004   0.00000  Uiso   1.00
C3     C     0.09324   0.19100   0.02478   0.00000  Uiso   1.00
C4     C     0.24036   0.15112   0.47540   0.00000  Uiso   1.00
C5     C     0.02115   0.12411   0.24961   0.00000  Uiso   1.00
C6     C     0.31219   0.20923   0.25050   0.00000  Uiso   1.00
C7     C     0.31193   0.12416   0.24966   0.00000  Uiso   1.00
C8     C     0.02140   0.20919   0.25045   0.00000  Uiso   1.00
C9     C     0.29060   0.16672   0.25008   0.00000  Uiso   1.00
C10    C     0.04273   0.16662   0.25001   0.00000  Uiso   1.00
C11    C     0.14067   0.02466   0.22307   0.00000  Uiso   1.00
C12    C     0.19266   0.30867   0.27693   0.00000  Uiso   1.00
C13    C     0.19266   0.02495   0.27693   0.00000  Uiso   1.00
C14    C     0.14068   0.30838   0.22306   0.00000  Uiso   1.00
C15    C     0.16708   0.16662   0.16447   0.00000  Uiso   1.00
C16    C     0.16619   0.16672   0.33553   0.00000  Uiso   1.00
C17    C     0.20131   0.15496   0.40613   0.00000  Uiso   1.00
C18    C     0.13158   0.17988   0.09429   0.00000  Uiso   1.00
C19    C     0.16597   0.16707   0.38369   0.00000  Uiso   1.00
C20    C     0.16688   0.16650   0.11630   0.00000  Uiso   1.00
C21    C     0.13112   0.18161   0.40673   0.00000  Uiso   1.00
C22    C     0.20188   0.15321   0.09287   0.00000  Uiso   1.00
C23    C     0.13032   0.18265   0.45366   0.00000  Uiso   1.00
C24    C     0.20257   0.15371   0.04607   0.00000  Uiso   1.00
C25    C     0.16633   0.16899   0.47668   0.00000  Uiso   1.00
C26    C     0.16644   0.16802   0.02336   0.00000  Uiso   1.00
C27    C     0.20288   0.15810   0.45270   0.00000  Uiso   1.00
C28    C     0.13004   0.17953   0.04752   0.00000  Uiso   1.00
C29    C     0.09444   0.19658   0.47767   0.00000  Uiso   1.00
C30    C     0.23880   0.14150   0.02176   0.00000  Uiso   1.00
Cu31   Cu    0.16667   0.21355   0.25000   0.00000  Uiso   1.00
Cu32   Cu    0.16667   0.11978   0.25000   0.00000  Uiso   1.00
H33    H     0.22769   0.14402   0.38655   0.00000  Uiso   1.00
H34    H     0.10582   0.19096   0.11465   0.00000  Uiso   1.00
H35    H     0.10473   0.19078   0.38703   0.00000  Uiso   1.00
H36    H     0.22874   0.14427   0.11198   0.00000  Uiso   1.00
H37    H     0.03704   0.09084   0.24925   0.00000  Uiso   1.00
H38    H     0.29629   0.24250   0.25087   0.00000  Uiso   1.00
H39    H     0.29584   0.09090   0.24933   0.00000  Uiso   1.00
H40    H     0.03750   0.24244   0.25077   0.00000  Uiso   1.00
H41    H     0.11985   0.04323   0.20149   0.00000  Uiso   1.00
H42    H     0.21348   0.29010   0.29851   0.00000  Uiso   1.00
H43    H     0.21348   0.04375   0.29852   0.00000  Uiso   1.00
H44    H     0.11986   0.28958   0.20147   0.00000  Uiso   1.00
N45    N     0.16667   0.28402   0.25000   0.00000  Uiso   1.00
N46    N     0.16667   0.04931   0.25000   0.00000  Uiso   1.00
O47    O     0.10655   0.20625   0.24999   0.00000  Uiso   1.00
O48    O     0.22679   0.12709   0.25000   0.00000  Uiso   1.00
O49    O     0.22679   0.20625   0.25000   0.00000  Uiso   1.00
O50    O     0.10655   0.12709   0.24999   0.00000  Uiso   1.00
O51    O     0.16666   0.20627   0.18513   0.00000  Uiso   1.00
O52    O     0.16668   0.12707   0.31487   0.00000  Uiso   1.00
O53    O     0.16668   0.20627   0.31487   0.00000  Uiso   1.00
O54    O     0.16666   0.12707   0.18513   0.00000  Uiso   1.00
C55    C     0.05856   0.21904   0.45306   0.00000  Uiso   1.00
C56    C     0.06964   0.26813   0.43640   0.00000  Uiso   1.00
H57    H     0.07754   0.29107   0.46504   0.00000  Uiso   1.00
H58    H     0.09603   0.26761   0.41277   0.00000  Uiso   1.00
H59    H     0.04285   0.28343   0.41901   0.00000  Uiso   1.00
H60    H     0.04851   0.19628   0.42521   0.00000  Uiso   1.00
H61    H     0.03076   0.22352   0.47381   0.00000  Uiso   1.00
C62    C     0.27376   0.11508   0.04447   0.00000  Uiso   1.00
C63    C     0.25994   0.06634   0.05982   0.00000  Uiso   1.00
H64    H     0.23485   0.06793   0.08500   0.00000  Uiso   1.00
H65    H     0.24915   0.04560   0.03078   0.00000  Uiso   1.00
H66    H     0.28630   0.04779   0.07499   0.00000  Uiso   1.00
H67    H     0.30018   0.10813   0.02218   0.00000  Uiso   1.00
H68    H     0.28614   0.13569   0.07278   0.00000  Uiso   1.00
C69    C     0.05243   0.19362   0.05037   0.00000  Uiso   1.00
C70    C     0.04324   0.24326   0.06671   0.00000  Uiso   1.00
H71    H     0.06781   0.25593   0.08920   0.00000  Uiso   1.00
H72    H     0.04081   0.26788   0.03832   0.00000  Uiso   1.00
H73    H     0.01362   0.24338   0.08540   0.00000  Uiso   1.00
H74    H     0.02664   0.17998   0.03021   0.00000  Uiso   1.00
H75    H     0.05196   0.16915   0.07905   0.00000  Uiso   1.00
C76    C     0.28123   0.15918   0.45071   0.00000  Uiso   1.00
C77    C     0.28426   0.20909   0.43199   0.00000  Uiso   1.00
H78    H     0.25804   0.21829   0.41046   0.00000  Uiso   1.00
H79    H     0.28564   0.23477   0.45982   0.00000  Uiso   1.00
H80    H     0.31245   0.21259   0.41124   0.00000  Uiso   1.00
H81    H     0.30835   0.15599   0.47226   0.00000  Uiso   1.00
H82    H     0.28529   0.13299   0.42366   0.00000  Uiso   1.00
C83    C     0.42068   0.16662   0.24999   0.00000  Uiso   1.00
C84    C     0.57932   0.16671   0.25004   0.00000  Uiso   1.00
C85    C     0.42657   0.19100   0.02478   0.00000  Uiso   1.00
C86    C     0.57370   0.15112   0.47540   0.00000  Uiso   1.00
C87    C     0.35448   0.12411   0.24961   0.00000  Uiso   1.00
C88    C     0.64552   0.20923   0.25050   0.00000  Uiso   1.00
C89    C     0.64526   0.12416   0.24966   0.00000  Uiso   1.00
C90    C     0.35473   0.20919   0.25045   0.00000  Uiso   1.00
C91    C     0.62393   0.16672   0.25008   0.00000  Uiso   1.00
C92    C     0.37607   0.16662   0.25001   0.00000  Uiso   1.00
C93    C     0.47401   0.02466   0.22307   0.00000  Uiso   1.00
C94    C     0.52599   0.30867   0.27693   0.00000  Uiso   1.00
C95    C     0.52599   0.02495   0.27693   0.00000  Uiso   1.00
C96    C     0.47401   0.30838   0.22306   0.00000  Uiso   1.00
C97    C     0.50042   0.16662   0.16447   0.00000  Uiso   1.00
C98    C     0.49952   0.16672   0.33553   0.00000  Uiso   1.00
C99    C     0.53465   0.15496   0.40613   0.00000  Uiso   1.00
C100   C     0.46491   0.17988   0.09429   0.00000  Uiso   1.00
C101   C     0.49931   0.16707   0.38369   0.00000  Uiso   1.00
C102   C     0.50021   0.16650   0.11630   0.00000  Uiso   1.00
C103   C     0.46446   0.18161   0.40673   0.00000  Uiso   1.00
C104   C     0.53521   0.15321   0.09287   0.00000  Uiso   1.00
C105   C     0.46365   0.18265   0.45366   0.00000  Uiso   1.00
C106   C     0.53591   0.15371   0.04607   0.00000  Uiso   1.00
C107   C     0.49967   0.16899   0.47668   0.00000  Uiso   1.00
C108   C     0.49978   0.16802   0.02336   0.00000  Uiso   1.00
C109   C     0.53621   0.15810   0.45270   0.00000  Uiso   1.00
C110   C     0.46337   0.17953   0.04752   0.00000  Uiso   1.00
C111   C     0.42778   0.19658   0.47767   0.00000  Uiso   1.00
C112   C     0.57213   0.14150   0.02176   0.00000  Uiso   1.00
Cu113  Cu    0.50000   0.21355   0.25000   0.00000  Uiso   1.00
Cu114  Cu    0.50000   0.11978   0.25000   0.00000  Uiso   1.00
H115   H     0.56102   0.14402   0.38655   0.00000  Uiso   1.00
H116   H     0.43915   0.19096   0.11465   0.00000  Uiso   1.00
H117   H     0.43806   0.19078   0.38703   0.00000  Uiso   1.00
H118   H     0.56208   0.14427   0.11198   0.00000  Uiso   1.00
H119   H     0.37037   0.09084   0.24925   0.00000  Uiso   1.00
H120   H     0.62963   0.24250   0.25087   0.00000  Uiso   1.00
H121   H     0.62917   0.09090   0.24933   0.00000  Uiso   1.00
H122   H     0.37083   0.24244   0.25077   0.00000  Uiso   1.00
H123   H     0.45319   0.04323   0.20149   0.00000  Uiso   1.00
H124   H     0.54681   0.29010   0.29851   0.00000  Uiso   1.00
H125   H     0.54681   0.04375   0.29852   0.00000  Uiso   1.00
H126   H     0.45319   0.28958   0.20147   0.00000  Uiso   1.00
N127   N     0.50000   0.28402   0.25000   0.00000  Uiso   1.00
N128   N     0.50000   0.04931   0.25000   0.00000  Uiso   1.00
O129   O     0.43988   0.20625   0.24999   0.00000  Uiso   1.00
O130   O     0.56012   0.12709   0.25000   0.00000  Uiso   1.00
O131   O     0.56012   0.20625   0.25000   0.00000  Uiso   1.00
O132   O     0.43988   0.12709   0.24999   0.00000  Uiso   1.00
O133   O     0.49999   0.20627   0.18513   0.00000  Uiso   1.00
O134   O     0.50001   0.12707   0.31487   0.00000  Uiso   1.00
O135   O     0.50001   0.20627   0.31487   0.00000  Uiso   1.00
O136   O     0.49999   0.12707   0.18513   0.00000  Uiso   1.00
C137   C     0.39189   0.21904   0.45306   0.00000  Uiso   1.00
C138   C     0.40297   0.26813   0.43640   0.00000  Uiso   1.00
H139   H     0.41087   0.29107   0.46504   0.00000  Uiso   1.00
H140   H     0.42936   0.26761   0.41277   0.00000  Uiso   1.00
H141   H     0.37618   0.28343   0.41901   0.00000  Uiso   1.00
H142   H     0.38184   0.19628   0.42521   0.00000  Uiso   1.00
H143   H     0.36410   0.22352   0.47381   0.00000  Uiso   1.00
C144   C     0.60710   0.11508   0.04447   0.00000  Uiso   1.00
C145   C     0.59327   0.06634   0.05982   0.00000  Uiso   1.00
H146   H     0.56818   0.06793   0.08500   0.00000  Uiso   1.00
H147   H     0.58248   0.04560   0.03078   0.00000  Uiso   1.00
H148   H     0.61963   0.04779   0.07499   0.00000  Uiso   1.00
H149   H     0.63352   0.10813   0.02218   0.00000  Uiso   1.00
H150   H     0.61948   0.13569   0.07278   0.00000  Uiso   1.00
C151   C     0.38577   0.19362   0.05037   0.00000  Uiso   1.00
C152   C     0.37657   0.24326   0.06671   0.00000  Uiso   1.00
H153   H     0.40114   0.25593   0.08920   0.00000  Uiso   1.00
H154   H     0.37414   0.26788   0.03832   0.00000  Uiso   1.00
H155   H     0.34695   0.24338   0.08540   0.00000  Uiso   1.00
H156   H     0.35997   0.17998   0.03021   0.00000  Uiso   1.00
H157   H     0.38529   0.16915   0.07905   0.00000  Uiso   1.00
C158   C     0.61457   0.15918   0.45071   0.00000  Uiso   1.00
C159   C     0.61759   0.20909   0.43199   0.00000  Uiso   1.00
H160   H     0.59137   0.21829   0.41046   0.00000  Uiso   1.00
H161   H     0.61898   0.23477   0.45982   0.00000  Uiso   1.00
H162   H     0.64579   0.21259   0.41124   0.00000  Uiso   1.00
H163   H     0.64168   0.15599   0.47226   0.00000  Uiso   1.00
H164   H     0.61862   0.13299   0.42366   0.00000  Uiso   1.00
C165   C     0.75402   0.16662   0.24999   0.00000  Uiso   1.00
C166   C     0.91265   0.16671   0.25004   0.00000  Uiso   1.00
C167   C     0.75991   0.19100   0.02478   0.00000  Uiso   1.00
C168   C     0.90703   0.15112   0.47540   0.00000  Uiso   1.00
C169   C     0.68781   0.12411   0.24961   0.00000  Uiso   1.00
C170   C     0.97885   0.20923   0.25050   0.00000  Uiso   1.00
C171   C     0.97860   0.12416   0.24966   0.00000  Uiso   1.00
C172   C     0.68807   0.20919   0.25045   0.00000  Uiso   1.00
C173   C     0.95727   0.16672   0.25008   0.00000  Uiso   1.00
C174   C     0.70940   0.16662   0.25001   0.00000  Uiso   1.00
C175   C     0.80734   0.02466   0.22307   0.00000  Uiso   1.00
C176   C     0.85932   0.30867   0.27693   0.00000  Uiso   1.00
C177   C     0.85932   0.02495   0.27693   0.00000  Uiso   1.00
C178   C     0.80734   0.30838   0.22306   0.00000  Uiso   1.00
C179   C     0.83375   0.16662   0.16447   0.00000  Uiso   1.00
C180   C     0.83286   0.16672   0.33553   0.00000  Uiso   1.00
C181   C     0.86798   0.15496   0.40613   0.00000  Uiso   1.00
C182   C     0.79824   0.17988   0.09429   0.00000  Uiso   1.00
C183   C     0.83264   0.16707   0.38369   0.00000  Uiso   1.00
C184   C     0.83354   0.16650   0.11630   0.00000  Uiso   1.00
C185   C     0.79779   0.18161   0.40673   0.00000  Uiso   1.00
C186   C     0.86854   0.15321   0.09287   0.00000  Uiso   1.00
C187   C     0.79698   0.18265   0.45366   0.00000  Uiso   1.00
C188   C     0.86924   0.15371   0.04607   0.00000  Uiso   1.00
C189   C     0.83300   0.16899   0.47668   0.00000  Uiso   1.00
C190   C     0.83311   0.16802   0.02336   0.00000  Uiso   1.00
C191   C     0.86955   0.15810   0.45270   0.00000  Uiso   1.00
C192   C     0.79671   0.17953   0.04752   0.00000  Uiso   1.00
C193   C     0.76111   0.19658   0.47767   0.00000  Uiso   1.00
C194   C     0.90547   0.14150   0.02176   0.00000  Uiso   1.00
Cu195  Cu    0.83333   0.21355   0.25000   0.00000  Uiso   1.00
Cu196  Cu    0.83333   0.11978   0.25000   0.00000  Uiso   1.00
H197   H     0.89435   0.14402   0.38655   0.00000  Uiso   1.00
H198   H     0.77248   0.19096   0.11465   0.00000  Uiso   1.00
H199   H     0.77139   0.19078   0.38703   0.00000  Uiso   1.00
H200   H     0.89541   0.14427   0.11198   0.00000  Uiso   1.00
H201   H     0.70371   0.09084   0.24925   0.00000  Uiso   1.00
H202   H     0.96296   0.24250   0.25087   0.00000  Uiso   1.00
H203   H     0.96250   0.09090   0.24933   0.00000  Uiso   1.00
H204   H     0.70416   0.24244   0.25077   0.00000  Uiso   1.00
H205   H     0.78652   0.04323   0.20149   0.00000  Uiso   1.00
H206   H     0.88014   0.29010   0.29851   0.00000  Uiso   1.00
H207   H     0.88015   0.04375   0.29852   0.00000  Uiso   1.00
H208   H     0.78653   0.28958   0.20147   0.00000  Uiso   1.00
N209   N     0.83333   0.28402   0.25000   0.00000  Uiso   1.00
N210   N     0.83333   0.04931   0.25000   0.00000  Uiso   1.00
O211   O     0.77321   0.20625   0.24999   0.00000  Uiso   1.00
O212   O     0.89345   0.12709   0.25000   0.00000  Uiso   1.00
O213   O     0.89345   0.20625   0.25000   0.00000  Uiso   1.00
O214   O     0.77321   0.12709   0.24999   0.00000  Uiso   1.00
O215   O     0.83332   0.20627   0.18513   0.00000  Uiso   1.00
O216   O     0.83334   0.12707   0.31487   0.00000  Uiso   1.00
O217   O     0.83334   0.20627   0.31487   0.00000  Uiso   1.00
O218   O     0.83332   0.12707   0.18513   0.00000  Uiso   1.00
C219   C     0.72522   0.21904   0.45306   0.00000  Uiso   1.00
C220   C     0.73630   0.26813   0.43640   0.00000  Uiso   1.00
H221   H     0.74421   0.29107   0.46504   0.00000  Uiso   1.00
H222   H     0.76270   0.26761   0.41277   0.00000  Uiso   1.00
H223   H     0.70951   0.28343   0.41901   0.00000  Uiso   1.00
H224   H     0.71517   0.19628   0.42521   0.00000  Uiso   1.00
H225   H     0.69743   0.22352   0.47381   0.00000  Uiso   1.00
C226   C     0.94043   0.11508   0.04447   0.00000  Uiso   1.00
C227   C     0.92660   0.06634   0.05982   0.00000  Uiso   1.00
H228   H     0.90151   0.06793   0.08500   0.00000  Uiso   1.00
H229   H     0.91582   0.04560   0.03078   0.00000  Uiso   1.00
H230   H     0.95296   0.04779   0.07499   0.00000  Uiso   1.00
H231   H     0.96685   0.10813   0.02218   0.00000  Uiso   1.00
H232   H     0.95281   0.13569   0.07278   0.00000  Uiso   1.00
C233   C     0.71910   0.19362   0.05037   0.00000  Uiso   1.00
C234   C     0.70990   0.24326   0.06671   0.00000  Uiso   1.00
H235   H     0.73448   0.25593   0.08920   0.00000  Uiso   1.00
H236   H     0.70748   0.26788   0.03832   0.00000  Uiso   1.00
H237   H     0.68028   0.24338   0.08540   0.00000  Uiso   1.00
H238   H     0.69331   0.17998   0.03021   0.00000  Uiso   1.00
H239   H     0.71862   0.16915   0.07905   0.00000  Uiso   1.00
C240   C     0.94790   0.15918   0.45071   0.00000  Uiso   1.00
C241   C     0.95093   0.20909   0.43199   0.00000  Uiso   1.00
H242   H     0.92471   0.21829   0.41046   0.00000  Uiso   1.00
H243   H     0.95231   0.23477   0.45982   0.00000  Uiso   1.00
H244   H     0.97912   0.21259   0.41124   0.00000  Uiso   1.00
H245   H     0.97502   0.15599   0.47226   0.00000  Uiso   1.00
H246   H     0.95195   0.13299   0.42366   0.00000  Uiso   1.00
C247   C     0.08735   0.49996   0.24999   0.00000  Uiso   1.00
C248   C     0.24598   0.50004   0.25004   0.00000  Uiso   1.00
C249   C     0.09324   0.52434   0.02478   0.00000  Uiso   1.00
C250   C     0.24036   0.48445   0.47540   0.00000  Uiso   1.00
C251   C     0.02115   0.45744   0.24961   0.00000  Uiso   1.00
C252   C     0.31219   0.54257   0.25050   0.00000  Uiso   1.00
C253   C     0.31193   0.45749   0.24966   0.00000  Uiso   1.00
C254   C     0.02140   0.54252   0.25045   0.00000  Uiso   1.00
C255   C     0.29060   0.50006   0.25008   0.00000  Uiso   1.00
C256   C     0.04273   0.49995   0.25001   0.00000  Uiso   1.00
C257   C     0.14067   0.35799   0.22307   0.00000  Uiso   1.00
C258   C     0.19266   0.64201   0.27693   0.00000  Uiso   1.00
C259   C     0.19266   0.35828   0.27693   0.00000  Uiso   1.00
C260   C     0.14068   0.64172   0.22306   0.00000  Uiso   1.00
C261   C     0.16708   0.49996   0.16447   0.00000  Uiso   1.00
C262   C     0.16619   0.50005   0.33553   0.00000  Uiso   1.00
C263   C     0.20131   0.48830   0.40613   0.00000  Uiso   1.00
C264   C     0.13158   0.51321   0.09429   0.00000  Uiso   1.00
C265   C     0.16597   0.50040   0.38369   0.00000  Uiso   1.00
C266   C     0.16688   0.49984   0.11630   0.00000  Uiso   1.00
C267   C     0.13112   0.51494   0.40673   0.00000  Uiso   1.00
C268   C     0.20188   0.48654   0.09287   0.00000  Uiso   1.00
C269   C     0.13032   0.51598   0.45366   0.00000  Uiso   1.00
C270   C     0.20257   0.48705   0.04607   0.00000  Uiso   1.00
C271   C     0.16633   0.50232   0.47668   0.00000  Uiso   1.00
C272   C     0.16644   0.50135   0.02336   0.00000  Uiso   1.00
C273   C     0.20288   0.49144   0.45270   0.00000  Uiso   1.00
C274   C     0.13004   0.51287   0.04752   0.00000  Uiso   1.00
C275   C     0.09444   0.52991   0.47767   0.00000  Uiso   1.00
C276   C     0.23880   0.47483   0.02176   0.00000  Uiso   1.00
Cu277  Cu    0.16667   0.54689   0.25000   0.00000  Uiso   1.00
Cu278  Cu    0.16667   0.45311   0.25000   0.00000  Uiso   1.00
H279   H     0.22769   0.47735   0.38655   0.00000  Uiso   1.00
H280   H     0.10582   0.52430   0.11465   0.00000  Uiso   1.00
H281   H     0.10473   0.52411   0.38703   0.00000  Uiso   1.00
H282   H     0.22874   0.47760   0.11198   0.00000  Uiso   1.00
H283   H     0.03704   0.42417   0.24925   0.00000  Uiso   1.00
H284   H     0.29629   0.57584   0.25087   0.00000  Uiso   1.00
H285   H     0.29584   0.42424   0.24933   0.00000  Uiso   1.00
H286   H     0.03750   0.57578   0.25077   0.00000  Uiso   1.00
H287   H     0.11985   0.37656   0.20149   0.00000  Uiso   1.00
H288   H     0.21348   0.62343   0.29851   0.00000  Uiso   1.00
H289   H     0.21348   0.37708   0.29852   0.00000  Uiso   1.00
H290   H     0.11986   0.62291   0.20147   0.00000  Uiso   1.00
N291   N     0.16667   0.61736   0.25000   0.00000  Uiso   1.00
N292   N     0.16667   0.38264   0.25000   0.00000  Uiso   1.00
O293   O     0.10655   0.53958   0.24999   0.00000  Uiso   1.00
O294   O     0.22679   0.46042   0.25000   0.00000  Uiso   1.00
O295   O     0.22679   0.53958   0.25000   0.00000  Uiso   1.00
O296   O     0.10655   0.46042   0.24999   0.00000  Uiso   1.00
O297   O     0.16666   0.53960   0.18513   0.00000  Uiso   1.00
O298   O     0.16668   0.46040   0.31487   0.00000  Uiso   1.00
O299   O     0.16668   0.53960   0.31487   0.00000  Uiso   1.00
O300   O     0.16666   0.46040   0.18513   0.00000  Uiso   1.00
C301   C     0.05856   0.55237   0.45306   0.00000  Uiso   1.00
C302   C     0.06964   0.60147   0.43640   0.00000  Uiso   1.00
H303   H     0.07754   0.62441   0.46504   0.00000  Uiso   1.00
H304   H     0.09603   0.60095   0.41277   0.00000  Uiso   1.00
H305   H     0.04285   0.61677   0.41901   0.00000  Uiso   1.00
H306   H     0.04851   0.52961   0.42521   0.00000  Uiso   1.00
H307   H     0.03076   0.55685   0.47381   0.00000  Uiso   1.00
C308   C     0.27376   0.44841   0.04447   0.00000  Uiso   1.00
C309   C     0.25994   0.39967   0.05982   0.00000  Uiso   1.00
H310   H     0.23485   0.40126   0.08500   0.00000  Uiso   1.00
H311   H     0.24915   0.37893   0.03078   0.00000  Uiso   1.00
H312   H     0.28630   0.38112   0.07499   0.00000  Uiso   1.00
H313   H     0.30018   0.44146   0.02218   0.00000  Uiso   1.00
H314   H     0.28614   0.46902   0.07278   0.00000  Uiso   1.00
C315   C     0.05243   0.52695   0.05037   0.00000  Uiso   1.00
C316   C     0.04324   0.57659   0.06671   0.00000  Uiso   1.00
H317   H     0.06781   0.58926   0.08920   0.00000  Uiso   1.00
H318   H     0.04081   0.60121   0.03832   0.00000  Uiso   1.00
H319   H     0.01362   0.57671   0.08540   0.00000  Uiso   1.00
H320   H     0.02664   0.51332   0.03021   0.00000  Uiso   1.00
H321   H     0.05196   0.50248   0.07905   0.00000  Uiso   1.00
C322   C     0.28123   0.49251   0.45071   0.00000  Uiso   1.00
C323   C     0.28426   0.54242   0.43199   0.00000  Uiso   1.00
H324   H     0.25804   0.55162   0.41046   0.00000  Uiso   1.00
H325   H     0.28564   0.56810   0.45982   0.00000  Uiso   1.00
H326   H     0.31245   0.54592   0.41124   0.00000  Uiso   1.00
H327   H     0.30835   0.48933   0.47226   0.00000  Uiso   1.00
H328   H     0.28529   0.46632   0.42366   0.00000  Uiso   1.00
C329   C     0.42068   0.49996   0.24999   0.00000  Uiso   1.00
C330   C     0.57932   0.50004   0.25004   0.00000  Uiso   1.00
C331   C     0.42657   0.52434   0.02478   0.00000  Uiso   1.00
C332   C     0.57370   0.48445   0.47540   0.00000  Uiso   1.00
C333   C     0.35448   0.45744   0.24961   0.00000  Uiso   1.00
C334   C     0.64552   0.54257   0.25050   0.00000  Uiso   1.00
C335   C     0.64526   0.45749   0.24966   0.00000  Uiso   1.00
C336   C     0.35473   0.54252   0.25045   0.00000  Uiso   1.00
C337   C     0.62393   0.50006   0.25008   0.00000  Uiso   1.00
C338   C     0.37607   0.49995   0.25001   0.00000  Uiso   1.00
C339   C     0.47401   0.35799   0.22307   0.00000  Uiso   1.00
C340   C     0.52599   0.64201   0.27693   0.00000  Uiso   1.00
C341   C     0.52599   0.35828   0.27693   0.00000  Uiso   1.00
C342   C     0.47401   0.64172   0.22306   0.00000  Uiso   1.00
C343   C     0.50042   0.49996   0.16447   0.00000  Uiso   1.00
C344   C     0.49952   0.50005   0.33553   0.00000  Uiso   1.00
C345   C     0.53465   0.48830   0.40613   0.00000  Uiso   1.00
C346   C     0.46491   0.51321   0.09429   0.00000  Uiso   1.00
C347   C     0.49931   0.50040   0.38369   0.00000  Uiso   1.00
C348   C     0.50021   0.49984   0.11630   0.00000  Uiso   1.00
C349   C     0.46446   0.51494   0.40673   0.00000  Uiso   1.00
C350   C     0.53521   0.48654   0.09287   0.00000  Uiso   1.00
C351   C     0.46365   0.51598   0.45366   0.00000  Uiso   1.00
C352   C     0.53591   0.48705   0.04607   0.00000  Uiso   1.00
C353   C     0.49967   0.50232   0.47668   0.00000  Uiso   1.00
C354   C     0.49978   0.50135   0.02336   0.00000  Uiso   1.00
C355   C     0.53621   0.49144   0.45270   0.00000  Uiso   1.00
C356   C     0.46337   0.51287   0.04752   0.00000  Uiso   1.00
C357   C     0.42778   0.52991   0.47767   0.00000  Uiso   1.00
C358   C     0.57213   0.47483   0.02176   0.00000  Uiso   1.00
Cu359  Cu    0.50000   0.54689   0.25000   0.00000  Uiso   1.00
Cu360  Cu    0.50000   0.45311   0.25000   0.00000  Uiso   1.00
H361   H     0.56102   0.47735   0.38655   0.00000  Uiso   1.00
H362   H     0.43915   0.52430   0.11465   0.00000  Uiso   1.00
H363   H     0.43806   0.52411   0.38703   0.00000  Uiso   1.00
H364   H     0.56208   0.47760   0.11198   0.00000  Uiso   1.00
H365   H     0.37037   0.42417   0.24925   0.00000  Uiso   1.00
H366   H     0.62963   0.57584   0.25087   0.00000  Uiso   1.00
H367   H     0.62917   0.42424   0.24933   0.00000  Uiso   1.00
H368   H     0.37083   0.57578   0.25077   0.00000  Uiso   1.00
H369   H     0.45319   0.37656   0.20149   0.00000  Uiso   1.00
H370   H     0.54681   0.62343   0.29851   0.00000  Uiso   1.00
H371   H     0.54681   0.37708   0.29852   0.00000  Uiso   1.00
H372   H     0.45319   0.62291   0.20147   0.00000  Uiso   1.00
N373   N     0.50000   0.61736   0.25000   0.00000  Uiso   1.00
N374   N     0.50000   0.38264   0.25000   0.00000  Uiso   1.00
O375   O     0.43988   0.53958   0.24999   0.00000  Uiso   1.00
O376   O     0.56012   0.46042   0.25000   0.00000  Uiso   1.00
O377   O     0.56012   0.53958   0.25000   0.00000  Uiso   1.00
O378   O     0.43988   0.46042   0.24999   0.00000  Uiso   1.00
O379   O     0.49999   0.53960   0.18513   0.00000  Uiso   1.00
O380   O     0.50001   0.46040   0.31487   0.00000  Uiso   1.00
O381   O     0.50001   0.53960   0.31487   0.00000  Uiso   1.00
O382   O     0.49999   0.46040   0.18513   0.00000  Uiso   1.00
C383   C     0.39189   0.55237   0.45306   0.00000  Uiso   1.00
C384   C     0.40297   0.60147   0.43640   0.00000  Uiso   1.00
H385   H     0.41087   0.62441   0.46504   0.00000  Uiso   1.00
H386   H     0.42936   0.60095   0.41277   0.00000  Uiso   1.00
H387   H     0.37618   0.61677   0.41901   0.00000  Uiso   1.00
H388   H     0.38184   0.52961   0.42521   0.00000  Uiso   1.00
H389   H     0.36410   0.55685   0.47381   0.00000  Uiso   1.00
C390   C     0.60710   0.44841   0.04447   0.00000  Uiso   1.00
C391   C     0.59327   0.39967   0.05982   0.00000  Uiso   1.00
H392   H     0.56818   0.40126   0.08500   0.00000  Uiso   1.00
H393   H     0.58248   0.37893   0.03078   0.00000  Uiso   1.00
H394   H     0.61963   0.38112   0.07499   0.00000  Uiso   1.00
H395   H     0.63352   0.44146   0.02218   0.00000  Uiso   1.00
H396   H     0.61948   0.46902   0.07278   0.00000  Uiso   1.00
C397   C     0.38577   0.52695   0.05037   0.00000  Uiso   1.00
C398   C     0.37657   0.57659   0.06671   0.00000  Uiso   1.00
H399   H     0.40114   0.58926   0.08920   0.00000  Uiso   1.00
H400   H     0.37414   0.60121   0.03832   0.00000  Uiso   1.00
H401   H     0.34695   0.57671   0.08540   0.00000  Uiso   1.00
H402   H     0.35997   0.51332   0.03021   0.00000  Uiso   1.00
H403   H     0.38529   0.50248   0.07905   0.00000  Uiso   1.00
C404   C     0.61457   0.49251   0.45071   0.00000  Uiso   1.00
C405   C     0.61759   0.54242   0.43199   0.00000  Uiso   1.00
H406   H     0.59137   0.55162   0.41046   0.00000  Uiso   1.00
H407   H     0.61898   0.56810   0.45982   0.00000  Uiso   1.00
H408   H     0.64579   0.54592   0.41124   0.00000  Uiso   1.00
H409   H     0.64168   0.48933   0.47226   0.00000  Uiso   1.00
H410   H     0.61862   0.46632   0.42366   0.00000  Uiso   1.00
C411   C     0.75402   0.49996   0.24999   0.00000  Uiso   1.00
C412   C     0.91265   0.50004   0.25004   0.00000  Uiso   1.00
C413   C     0.75991   0.52434   0.02478   0.00000  Uiso   1.00
C414   C     0.90703   0.48445   0.47540   0.00000  Uiso   1.00
C415   C     0.68781   0.45744   0.24961   0.00000  Uiso   1.00
C416   C     0.97885   0.54257   0.25050   0.00000  Uiso   1.00
C417   C     0.97860   0.45749   0.24966   0.00000  Uiso   1.00
C418   C     0.68807   0.54252   0.25045   0.00000  Uiso   1.00
C419   C     0.95727   0.50006   0.25008   0.00000  Uiso   1.00
C420   C     0.70940   0.49995   0.25001   0.00000  Uiso   1.00
C421   C     0.80734   0.35799   0.22307   0.00000  Uiso   1.00
C422   C     0.85932   0.64201   0.27693   0.00000  Uiso   1.00
C423   C     0.85932   0.35828   0.27693   0.00000  Uiso   1.00
C424   C     0.80734   0.64172   0.22306   0.00000  Uiso   1.00
C425   C     0.83375   0.49996   0.16447   0.00000  Uiso   1.00
C426   C     0.83286   0.50005   0.33553   0.00000  Uiso   1.00
C427   C     0.86798   0.48830   0.40613   0.00000  Uiso   1.00
C428   C     0.79824   0.51321   0.09429   0.00000  Uiso   1.00
C429   C     0.83264   0.50040   0.38369   0.00000  Uiso   1.00
C430   C     0.83354   0.49984   0.11630   0.00000  Uiso   1.00
C431   C     0.79779   0.51494   0.40673   0.00000  Uiso   1.00
C432   C     0.86854   0.48654   0.09287   0.00000  Uiso   1.00
C433   C     0.79698   0.51598   0.45366   0.00000  Uiso   1.00
C434   C     0.86924   0.48705   0.04607   0.00000  Uiso   1.00
C435   C     0.83300   0.50232   0.47668   0.00000  Uiso   1.00
C436   C     0.83311   0.50135   0.02336   0.00000  Uiso   1.00
C437   C     0.86955   0.49144   0.45270   0.00000  Uiso   1.00
C438   C     0.79671   0.51287   0.04752   0.00000  Uiso   1.00
C439   C     0.76111   0.52991   0.47767   0.00000  Uiso   1.00
C440   C     0.90547   0.47483   0.02176   0.00000  Uiso   1.00
Cu441  Cu    0.83333   0.54689   0.25000   0.00000  Uiso   1.00
Cu442  Cu    0.83333   0.45311   0.25000   0.00000  Uiso   1.00
H443   H     0.89435   0.47735   0.38655   0.00000  Uiso   1.00
H444   H     0.77248   0.52430   0.11465   0.00000  Uiso   1.00
H445   H     0.77139   0.52411   0.38703   0.00000  Uiso   1.00
H446   H     0.89541   0.47760   0.11198   0.00000  Uiso   1.00
H447   H     0.70371   0.42417   0.24925   0.00000  Uiso   1.00
H448   H     0.96296   0.57584   0.25087   0.00000  Uiso   1.00
H449   H     0.96250   0.42424   0.24933   0.00000  Uiso   1.00
H450   H     0.70416   0.57578   0.25077   0.00000  Uiso   1.00
H451   H     0.78652   0.37656   0.20149   0.00000  Uiso   1.00
H452   H     0.88014   0.62343   0.29851   0.00000  Uiso   1.00
H453   H     0.88015   0.37708   0.29852   0.00000  Uiso   1.00
H454   H     0.78653   0.62291   0.20147   0.00000  Uiso   1.00
N455   N     0.83333   0.61736   0.25000   0.00000  Uiso   1.00
N456   N     0.83333   0.38264   0.25000   0.00000  Uiso   1.00
O457   O     0.77321   0.53958   0.24999   0.00000  Uiso   1.00
O458   O     0.89345   0.46042   0.25000   0.00000  Uiso   1.00
O459   O     0.89345   0.53958   0.25000   0.00000  Uiso   1.00
O460   O     0.77321   0.46042   0.24999   0.00000  Uiso   1.00
O461   O     0.83332   0.53960   0.18513   0.00000  Uiso   1.00
O462   O     0.83334   0.46040   0.31487   0.00000  Uiso   1.00
O463   O     0.83334   0.53960   0.31487   0.00000  Uiso   1.00
O464   O     0.83332   0.46040   0.18513   0.00000  Uiso   1.00
C465   C     0.72522   0.55237   0.45306   0.00000  Uiso   1.00
C466   C     0.73630   0.60147   0.43640   0.00000  Uiso   1.00
H467   H     0.74421   0.62441   0.46504   0.00000  Uiso   1.00
H468   H     0.76270   0.60095   0.41277   0.00000  Uiso   1.00
H469   H     0.70951   0.61677   0.41901   0.00000  Uiso   1.00
H470   H     0.71517   0.52961   0.42521   0.00000  Uiso   1.00
H471   H     0.69743   0.55685   0.47381   0.00000  Uiso   1.00
C472   C     0.94043   0.44841   0.04447   0.00000  Uiso   1.00
C473   C     0.92660   0.39967   0.05982   0.00000  Uiso   1.00
H474   H     0.90151   0.40126   0.08500   0.00000  Uiso   1.00
H475   H     0.91582   0.37893   0.03078   0.00000  Uiso   1.00
H476   H     0.95296   0.38112   0.07499   0.00000  Uiso   1.00
H477   H     0.96685   0.44146   0.02218   0.00000  Uiso   1.00
H478   H     0.95281   0.46902   0.07278   0.00000  Uiso   1.00
C479   C     0.71910   0.52695   0.05037   0.00000  Uiso   1.00
C480   C     0.70990   0.57659   0.06671   0.00000  Uiso   1.00
H481   H     0.73448   0.58926   0.08920   0.00000  Uiso   1.00
H482   H     0.70748   0.60121   0.03832   0.00000  Uiso   1.00
H483   H     0.68028   0.57671   0.08540   0.00000  Uiso   1.00
H484   H     0.69331   0.51332   0.03021   0.00000  Uiso   1.00
H485   H     0.71862   0.50248   0.07905   0.00000  Uiso   1.00
C486   C     0.94790   0.49251   0.45071   0.00000  Uiso   1.00
C487   C     0.95093   0.54242   0.43199   0.00000  Uiso   1.00
H488   H     0.92471   0.55162   0.41046   0.00000  Uiso   1.00
H489   H     0.95231   0.56810   0.45982   0.00000  Uiso   1.00
H490   H     0.97912   0.54592   0.41124   0.00000  Uiso   1.00
H491   H     0.97502   0.48933   0.47226   0.00000  Uiso   1.00
H492   H     0.95195   0.46632   0.42366   0.00000  Uiso   1.00
C493   C     0.08735   0.83329   0.24999   0.00000  Uiso   1.00
C494   C     0.24598   0.83338   0.25004   0.00000  Uiso   1.00
C495   C     0.09324   0.85767   0.02478   0.00000  Uiso   1.00
C496   C     0.24036   0.81779   0.47540   0.00000  Uiso   1.00
C497   C     0.02115   0.79078   0.24961   0.00000  Uiso   1.00
C498   C     0.31219   0.87590   0.25050   0.00000  Uiso   1.00
C499   C     0.31193   0.79083   0.24966   0.00000  Uiso   1.00
C500   C     0.02140   0.87585   0.25045   0.00000  Uiso   1.00
C501   C     0.29060   0.83339   0.25008   0.00000  Uiso   1.00
C502   C     0.04273   0.83329   0.25001   0.00000  Uiso   1.00
C503   C     0.14067   0.69132   0.22307   0.00000  Uiso   1.00
C504   C     0.19266   0.97534   0.27693   0.00000  Uiso   1.00
C505   C     0.19266   0.69161   0.27693   0.00000  Uiso   1.00
C506   C     0.14068   0.97505   0.22306   0.00000  Uiso   1.00
C507   C     0.16708   0.83329   0.16447   0.00000  Uiso   1.00
C508   C     0.16619   0.83339   0.33553   0.00000  Uiso   1.00
C509   C     0.20131   0.82163   0.40613   0.00000  Uiso   1.00
C510   C     0.13158   0.84655   0.09429   0.00000  Uiso   1.00
C511   C     0.16597   0.83373   0.38369   0.00000  Uiso   1.00
C512   C     0.16688   0.83317   0.11630   0.00000  Uiso   1.00
C513   C     0.13112   0.84827   0.40673   0.00000  Uiso   1.00
C514   C     0.20188   0.81988   0.09287   0.00000  Uiso   1.00
C515   C     0.13032   0.84932   0.45366   0.00000  Uiso   1.00
C516   C     0.20257   0.82038   0.04607   0.00000  Uiso   1.00
C517   C     0.16633   0.83565   0.47668   0.00000  Uiso   1.00
C518   C     0.16644   0.83468   0.02336   0.00000  Uiso   1.00
C519   C     0.20288   0.82477   0.45270   0.00000  Uiso   1.00
C520   C     0.13004   0.84620   0.04752   0.00000  Uiso   1.00
C521   C     0.09444   0.86324   0.47767   0.00000  Uiso   1.00
C522   C     0.23880   0.80817   0.02176   0.00000  Uiso   1.00
Cu523  Cu    0.16667   0.88022   0.25000   0.00000  Uiso   1.00
Cu524  Cu    0.16667   0.78645   0.25000   0.00000  Uiso   1.00
H525   H     0.22769   0.81068   0.38655   0.00000  Uiso   1.00
H526   H     0.10582   0.85763   0.11465   0.00000  Uiso   1.00
H527   H     0.10473   0.85745   0.38703   0.00000  Uiso   1.00
H528   H     0.22874   0.81093   0.11198   0.00000  Uiso   1.00
H529   H     0.03704   0.75751   0.24925   0.00000  Uiso   1.00
H530   H     0.29629   0.90917   0.25087   0.00000  Uiso   1.00
H531   H     0.29584   0.75757   0.24933   0.00000  Uiso   1.00
H532   H     0.03750   0.90911   0.25077   0.00000  Uiso   1.00
H533   H     0.11985   0.70990   0.20149   0.00000  Uiso   1.00
H534   H     0.21348   0.95677   0.29851   0.00000  Uiso   1.00
H535   H     0.21348   0.71042   0.29852   0.00000  Uiso   1.00
H536   H     0.11986   0.95625   0.20147   0.00000  Uiso   1.00
N537   N     0.16667   0.95069   0.25000   0.00000  Uiso   1.00
N538   N     0.16667   0.71598   0.25000   0.00000  Uiso   1.00
O539   O     0.10655   0.87291   0.24999   0.00000  Uiso   1.00
O540   O     0.22679   0.79375   0.25000   0.00000  Uiso   1.00
O541   O     0.22679   0.87291   0.25000   0.00000  Uiso   1.00
O542   O     0.10655   0.79375   0.24999   0.00000  Uiso   1.00
O543   O     0.16666   0.87293   0.18513   0.00000  Uiso   1.00
O544   O     0.16668   0.79373   0.31487   0.00000  Uiso   1.00
O545   O     0.16668   0.87293   0.31487   0.00000  Uiso   1.00
O546   O     0.16666   0.79373   0.18513   0.00000  Uiso   1.00
C547   C     0.05856   0.88571   0.45306   0.00000  Uiso   1.00
C548   C     0.06964   0.93480   0.43640   0.00000  Uiso   1.00
H549   H     0.07754   0.95774   0.46504   0.00000  Uiso   1.00
H550   H     0.09603   0.93428   0.41277   0.00000  Uiso   1.00
H551   H     0.04285   0.95010   0.41901   0.00000  Uiso   1.00
H552   H     0.04851   0.86295   0.42521   0.00000  Uiso   1.00
H553   H     0.03076   0.89019   0.47381   0.00000  Uiso   1.00
C554   C     0.27376   0.78174   0.04447   0.00000  Uiso   1.00
C555   C     0.25994   0.73301   0.05982   0.00000  Uiso   1.00
H556   H     0.23485   0.73459   0.08500   0.00000  Uiso   1.00
H557   H     0.24915   0.71226   0.03078   0.00000  Uiso   1.00
H558   H     0.28630   0.71446   0.07499   0.00000  Uiso   1.00
H559   H     0.30018   0.77480   0.02218   0.00000  Uiso   1.00
H560   H     0.28614   0.80236   0.07278   0.00000  Uiso   1.00
C561   C     0.05243   0.86029   0.05037   0.00000  Uiso   1.00
C562   C     0.04324   0.90992   0.06671   0.00000  Uiso   1.00
H563   H     0.06781   0.92260   0.08920   0.00000  Uiso   1.00
H564   H     0.04081   0.93454   0.03832   0.00000  Uiso   1.00
H565   H     0.01362   0.91004   0.08540   0.00000  Uiso   1.00
H566   H     0.02664   0.84665   0.03021   0.00000  Uiso   1.00
H567   H     0.05196   0.83581   0.07905   0.00000  Uiso   1.00
C568   C     0.28123   0.82585   0.45071   0.00000  Uiso   1.00
C569   C     0.28426   0.87575   0.43199   0.00000  Uiso   1.00
H570   H     0.25804   0.88496   0.41046   0.00000  Uiso   1.00
H571   H     0.28564   0.90143   0.45982   0.00000  Uiso   1.00
H572   H     0.31245   0.87925   0.41124   0.00000  Uiso   1.00
H573   H     0.30835   0.82266   0.47226   0.00000  Uiso   1.00
H574   H     0.28529   0.79965   0.42366   0.00000  Uiso   1.00
C575   C     0.42068   0.83329   0.24999   0.00000  Uiso   1.00
C576   C     0.57932   0.83338   0.25004   0.00000  Uiso   1.00
C577   C     0.42657   0.85767   0.02478   0.00000  Uiso   1.00
C578   C     0.57370   0.81779   0.47540   0.00000  Uiso   1.00
C579   C     0.35448   0.79078   0.24961   0.00000  Uiso   1.00
C580   C     0.64552   0.87590   0.25050   0.00000  Uiso   1.00
C581   C     0.64526   0.79083   0.24966   0.00000  Uiso   1.00
C582   C     0.35473   0.87585   0.25045   0.00000  Uiso   1.00
C583   C     0.62393   0.83339   0.25008   0.00000  Uiso   1.00
C584   C     0.37607   0.83329   0.25001   0.00000  Uiso   1.00
C585   C     0.47401   0.69132   0.22307   0.00000  Uiso   1.00
C586   C     0.52599   0.97534   0.27693   0.00000  Uiso   1.00
C587   C     0.52599   0.69161   0.27693   0.00000  Uiso   1.00
C588   C     0.47401   0.97505   0.22306   0.00000  Uiso   1.00
C589   C     0.50042   0.83329   0.16447   0.00000  Uiso   1.00
C590   C     0.49952   0.83339   0.33553   0.00000  Uiso   1.00
C591   C     0.53465   0.82163   0.40613   0.00000  Uiso   1.00
C592   C     0.46491   0.84655   0.09429   0.00000  Uiso   1.00
C593   C     0.49931   0.83373   0.38369   0.00000  Uiso   1.00
C594   C     0.50021   0.83317   0.11630   0.00000  Uiso   1.00
C595   C     0.46446   0.84827   0.40673   0.00000  Uiso   1.00
C596   C     0.53521   0.81988   0.09287   0.00000  Uiso   1.00
C597   C     0.46365   0.84932   0.45366   0.00000  Uiso   1.00
C598   C     0.53591   0.82038   0.04607   0.00000  Uiso   1.00
C599   C     0.49967   0.83565   0.47668   0.00000  Uiso   1.00
C600   C     0.49978   0.83468   0.02336   0.00000  Uiso   1.00
C601   C     0.53621   0.82477   0.45270   0.00000  Uiso   1.00
C602   C     0.46337   0.84620   0.04752   0.00000  Uiso   1.00
C603   C     0.42778   0.86324   0.47767   0.00000  Uiso   1.00
C604   C     0.57213   0.80817   0.02176   0.00000  Uiso   1.00
Cu605  Cu    0.50000   0.88022   0.25000   0.00000  Uiso   1.00
Cu606  Cu    0.50000   0.78645   0.25000   0.00000  Uiso   1.00
H607   H     0.56102   0.81068   0.38655   0.00000  Uiso   1.00
H608   H     0.43915   0.85763   0.11465   0.00000  Uiso   1.00
H609   H     0.43806   0.85745   0.38703   0.00000  Uiso   1.00
H610   H     0.56208   0.81093   0.11198   0.00000  Uiso   1.00
H611   H     0.37037   0.75751   0.24925   0.00000  Uiso   1.00
H612   H     0.62963   0.90917   0.25087   0.00000  Uiso   1.00
H613   H     0.62917   0.75757   0.24933   0.00000  Uiso   1.00
H614   H     0.37083   0.90911   0.25077   0.00000  Uiso   1.00
H615   H     0.45319   0.70990   0.20149   0.00000  Uiso   1.00
H616   H     0.54681   0.95677   0.29851   0.00000  Uiso   1.00
H617   H     0.54681   0.71042   0.29852   0.00000  Uiso   1.00
H618   H     0.45319   0.95625   0.20147   0.00000  Uiso   1.00
N619   N     0.50000   0.95069   0.25000   0.00000  Uiso   1.00
N620   N     0.50000   0.71598   0.25000   0.00000  Uiso   1.00
O621   O     0.43988   0.87291   0.24999   0.00000  Uiso   1.00
O622   O     0.56012   0.79375   0.25000   0.00000  Uiso   1.00
O623   O     0.56012   0.87291   0.25000   0.00000  Uiso   1.00
O624   O     0.43988   0.79375   0.24999   0.00000  Uiso   1.00
O625   O     0.49999   0.87293   0.18513   0.00000  Uiso   1.00
O626   O     0.50001   0.79373   0.31487   0.00000  Uiso   1.00
O627   O     0.50001   0.87293   0.31487   0.00000  Uiso   1.00
O628   O     0.49999   0.79373   0.18513   0.00000  Uiso   1.00
C629   C     0.39189   0.88571   0.45306   0.00000  Uiso   1.00
C630   C     0.40297   0.93480   0.43640   0.00000  Uiso   1.00
H631   H     0.41087   0.95774   0.46504   0.00000  Uiso   1.00
H632   H     0.42936   0.93428   0.41277   0.00000  Uiso   1.00
H633   H     0.37618   0.95010   0.41901   0.00000  Uiso   1.00
H634   H     0.38184   0.86295   0.42521   0.00000  Uiso   1.00
H635   H     0.36410   0.89019   0.47381   0.00000  Uiso   1.00
C636   C     0.60710   0.78174   0.04447   0.00000  Uiso   1.00
C637   C     0.59327   0.73301   0.05982   0.00000  Uiso   1.00
H638   H     0.56818   0.73459   0.08500   0.00000  Uiso   1.00
H639   H     0.58248   0.71226   0.03078   0.00000  Uiso   1.00
H640   H     0.61963   0.71446   0.07499   0.00000  Uiso   1.00
H641   H     0.63352   0.77480   0.02218   0.00000  Uiso   1.00
H642   H     0.61948   0.80236   0.07278   0.00000  Uiso   1.00
C643   C     0.38577   0.86029   0.05037   0.00000  Uiso   1.00
C644   C     0.37657   0.90992   0.06671   0.00000  Uiso   1.00
H645   H     0.40114   0.92260   0.08920   0.00000  Uiso   1.00
H646   H     0.37414   0.93454   0.03832   0.00000  Uiso   1.00
H647   H     0.34695   0.91004   0.08540   0.00000  Uiso   1.00
H648   H     0.35997   0.84665   0.03021   0.00000  Uiso   1.00
H649   H     0.38529   0.83581   0.07905   0.00000  Uiso   1.00
C650   C     0.61457   0.82585   0.45071   0.00000  Uiso   1.00
C651   C     0.61759   0.87575   0.43199   0.00000  Uiso   1.00
H652   H     0.59137   0.88496   0.41046   0.00000  Uiso   1.00
H653   H     0.61898   0.90143   0.45982   0.00000  Uiso   1.00
H654   H     0.64579   0.87925   0.41124   0.00000  Uiso   1.00
H655   H     0.64168   0.82266   0.47226   0.00000  Uiso   1.00
H656   H     0.61862   0.79965   0.42366   0.00000  Uiso   1.00
C657   C     0.75402   0.83329   0.24999   0.00000  Uiso   1.00
C658   C     0.91265   0.83338   0.25004   0.00000  Uiso   1.00
C659   C     0.75991   0.85767   0.02478   0.00000  Uiso   1.00
C660   C     0.90703   0.81779   0.47540   0.00000  Uiso   1.00
C661   C     0.68781   0.79078   0.24961   0.00000  Uiso   1.00
C662   C     0.97885   0.87590   0.25050   0.00000  Uiso   1.00
C663   C     0.97860   0.79083   0.24966   0.00000  Uiso   1.00
C664   C     0.68807   0.87585   0.25045   0.00000  Uiso   1.00
C665   C     0.95727   0.83339   0.25008   0.00000  Uiso   1.00
C666   C     0.70940   0.83329   0.25001   0.00000  Uiso   1.00
C667   C     0.80734   0.69132   0.22307   0.00000  Uiso   1.00
C668   C     0.85932   0.97534   0.27693   0.00000  Uiso   1.00
C669   C     0.85932   0.69161   0.27693   0.00000  Uiso   1.00
C670   C     0.80734   0.97505   0.22306   0.00000  Uiso   1.00
C671   C     0.83375   0.83329   0.16447   0.00000  Uiso   1.00
C672   C     0.83286   0.83339   0.33553   0.00000  Uiso   1.00
C673   C     0.86798   0.82163   0.40613   0.00000  Uiso   1.00
C674   C     0.79824   0.84655   0.09429   0.00000  Uiso   1.00
C675   C     0.83264   0.83373   0.38369   0.00000  Uiso   1.00
C676   C     0.83354   0.83317   0.11630   0.00000  Uiso   1.00
C677   C     0.79779   0.84827   0.40673   0.00000  Uiso   1.00
C678   C     0.86854   0.81988   0.09287   0.00000  Uiso   1.00
C679   C     0.79698   0.84932   0.45366   0.00000  Uiso   1.00
C680   C     0.86924   0.82038   0.04607   0.00000  Uiso   1.00
C681   C     0.83300   0.83565   0.47668   0.00000  Uiso   1.00
C682   C     0.83311   0.83468   0.02336   0.00000  Uiso   1.00
C683   C     0.86955   0.82477   0.45270   0.00000  Uiso   1.00
C684   C     0.79671   0.84620   0.04752   0.00000  Uiso   1.00
C685   C     0.76111   0.86324   0.47767   0.00000  Uiso   1.00
C686   C     0.90547   0.80817   0.02176   0.00000  Uiso   1.00
Cu687  Cu    0.83333   0.88022   0.25000   0.00000  Uiso   1.00
Cu688  Cu    0.83333   0.78645   0.25000   0.00000  Uiso   1.00
H689   H     0.89435   0.81068   0.38655   0.00000  Uiso   1.00
H690   H     0.77248   0.85763   0.11465   0.00000  Uiso   1.00
H691   H     0.77139   0.85745   0.38703   0.00000  Uiso   1.00
H692   H     0.89541   0.81093   0.11198   0.00000  Uiso   1.00
H693   H     0.70371   0.75751   0.24925   0.00000  Uiso   1.00
H694   H     0.96296   0.90917   0.25087   0.00000  Uiso   1.00
H695   H     0.96250   0.75757   0.24933   0.00000  Uiso   1.00
H696   H     0.70416   0.90911   0.25077   0.00000  Uiso   1.00
H697   H     0.78652   0.70990   0.20149   0.00000  Uiso   1.00
H698   H     0.88014   0.95677   0.29851   0.00000  Uiso   1.00
H699   H     0.88015   0.71042   0.29852   0.00000  Uiso   1.00
H700   H     0.78653   0.95625   0.20147   0.00000  Uiso   1.00
N701   N     0.83333   0.95069   0.25000   0.00000  Uiso   1.00
N702   N     0.83333   0.71598   0.25000   0.00000  Uiso   1.00
O703   O     0.77321   0.87291   0.24999   0.00000  Uiso   1.00
O704   O     0.89345   0.79375   0.25000   0.00000  Uiso   1.00
O705   O     0.89345   0.87291   0.25000   0.00000  Uiso   1.00
O706   O     0.77321   0.79375   0.24999   0.00000  Uiso   1.00
O707   O     0.83332   0.87293   0.18513   0.00000  Uiso   1.00
O708   O     0.83334   0.79373   0.31487   0.00000  Uiso   1.00
O709   O     0.83334   0.87293   0.31487   0.00000  Uiso   1.00
O710   O     0.83332   0.79373   0.18513   0.00000  Uiso   1.00
C711   C     0.72522   0.88571   0.45306   0.00000  Uiso   1.00
C712   C     0.73630   0.93480   0.43640   0.00000  Uiso   1.00
H713   H     0.74421   0.95774   0.46504   0.00000  Uiso   1.00
H714   H     0.76270   0.93428   0.41277   0.00000  Uiso   1.00
H715   H     0.70951   0.95010   0.41901   0.00000  Uiso   1.00
H716   H     0.71517   0.86295   0.42521   0.00000  Uiso   1.00
H717   H     0.69743   0.89019   0.47381   0.00000  Uiso   1.00
C718   C     0.94043   0.78174   0.04447   0.00000  Uiso   1.00
C719   C     0.92660   0.73301   0.05982   0.00000  Uiso   1.00
H720   H     0.90151   0.73459   0.08500   0.00000  Uiso   1.00
H721   H     0.91582   0.71226   0.03078   0.00000  Uiso   1.00
H722   H     0.95296   0.71446   0.07499   0.00000  Uiso   1.00
H723   H     0.96685   0.77480   0.02218   0.00000  Uiso   1.00
H724   H     0.95281   0.80236   0.07278   0.00000  Uiso   1.00
C725   C     0.71910   0.86029   0.05037   0.00000  Uiso   1.00
C726   C     0.70990   0.90992   0.06671   0.00000  Uiso   1.00
H727   H     0.73448   0.92260   0.08920   0.00000  Uiso   1.00
H728   H     0.70748   0.93454   0.03832   0.00000  Uiso   1.00
H729   H     0.68028   0.91004   0.08540   0.00000  Uiso   1.00
H730   H     0.69331   0.84665   0.03021   0.00000  Uiso   1.00
H731   H     0.71862   0.83581   0.07905   0.00000  Uiso   1.00
C732   C     0.94790   0.82585   0.45071   0.00000  Uiso   1.00
C733   C     0.95093   0.87575   0.43199   0.00000  Uiso   1.00
H734   H     0.92471   0.88496   0.41046   0.00000  Uiso   1.00
H735   H     0.95231   0.90143   0.45982   0.00000  Uiso   1.00
H736   H     0.97912   0.87925   0.41124   0.00000  Uiso   1.00
H737   H     0.97502   0.82266   0.47226   0.00000  Uiso   1.00
H738   H     0.95195   0.79965   0.42366   0.00000  Uiso   1.00
C739   C     0.08735   0.16662   0.74999   0.00000  Uiso   1.00
C740   C     0.24598   0.16671   0.75004   0.00000  Uiso   1.00
C741   C     0.09324   0.19100   0.52478   0.00000  Uiso   1.00
C742   C     0.24036   0.15112   0.97540   0.00000  Uiso   1.00
C743   C     0.02115   0.12411   0.74961   0.00000  Uiso   1.00
C744   C     0.31219   0.20923   0.75050   0.00000  Uiso   1.00
C745   C     0.31193   0.12416   0.74966   0.00000  Uiso   1.00
C746   C     0.02140   0.20919   0.75045   0.00000  Uiso   1.00
C747   C     0.29060   0.16672   0.75008   0.00000  Uiso   1.00
C748   C     0.04273   0.16662   0.75001   0.00000  Uiso   1.00
C749   C     0.14067   0.02466   0.72307   0.00000  Uiso   1.00
C750   C     0.19266   0.30867   0.77693   0.00000  Uiso   1.00
C751   C     0.19266   0.02495   0.77693   0.00000  Uiso   1.00
C752   C     0.14068   0.30838   0.72306   0.00000  Uiso   1.00
C753   C     0.16708   0.16662   0.66447   0.00000  Uiso   1.00
C754   C     0.16619   0.16672   0.83553   0.00000  Uiso   1.00
C755   C     0.20131   0.15496   0.90613   0.00000  Uiso   1.00
C756   C     0.13158   0.17988   0.59429   0.00000  Uiso   1.00
C757   C     0.16597   0.16707   0.88369   0.00000  Uiso   1.00
C758   C     0.16688   0.16650   0.61630   0.00000  Uiso   1.00
C759   C     0.13112   0.18161   0.90673   0.00000  Uiso   1.00
C760   C     0.20188   0.15321   0.59287   0.00000  Uiso   1.00
C761   C     0.13032   0.18265   0.95366   0.00000  Uiso   1.00
C762   C     0.20257   0.15371   0.54607   0.00000  Uiso   1.00
C763   C     0.16633   0.16899   0.97668   0.00000  Uiso   1.00
C764   C     0.16644   0.16802   0.52336   0.00000  Uiso   1.00
C765   C     0.20288   0.15810   0.95270   0.00000  Uiso   1.00
C766   C     0.13004   0.17953   0.54752   0.00000  Uiso   1.00
C767   C     0.09444   0.19658   0.97767   0.00000  Uiso   1.00
C768   C     0.23880   0.14150   0.52176   0.00000  Uiso   1.00
Cu769  Cu    0.16667   0.21355   0.75000   0.00000  Uiso   1.00
Cu770  Cu    0.16667   0.11978   0.75000   0.00000  Uiso   1.00
H771   H     0.22769   0.14402   0.88655   0.00000  Uiso   1.00
H772   H     0.10582   0.19096   0.61465   0.00000  Uiso   1.00
H773   H     0.10473   0.19078   0.88703   0.00000  Uiso   1.00
H774   H     0.22874   0.14427   0.61198   0.00000  Uiso   1.00
H775   H     0.03704   0.09084   0.74925   0.00000  Uiso   1.00
H776   H     0.29629   0.24250   0.75087   0.00000  Uiso   1.00
H777   H     0.29584   0.09090   0.74933   0.00000  Uiso   1.00
H778   H     0.03750   0.24244   0.75077   0.00000  Uiso   1.00
H779   H     0.11985   0.04323   0.70149   0.00000  Uiso   1.00
H780   H     0.21348   0.29010   0.79851   0.00000  Uiso   1.00
H781   H     0.21348   0.04375   0.79852   0.00000  Uiso   1.00
H782   H     0.11986   0.28958   0.70147   0.00000  Uiso   1.00
N783   N     0.16667   0.28402   0.75000   0.00000  Uiso   1.00
N784   N     0.16667   0.04931   0.75000   0.00000  Uiso   1.00
O785   O     0.10655   0.20625   0.74999   0.00000  Uiso   1.00
O786   O     0.22679   0.12709   0.75000   0.00000  Uiso   1.00
O787   O     0.22679   0.20625   0.75000   0.00000  Uiso   1.00
O788   O     0.10655   0.12709   0.74999   0.00000  Uiso   1.00
O789   O     0.16666   0.20627   0.68513   0.00000  Uiso   1.00
O790   O     0.16668   0.12707   0.81487   0.00000  Uiso   1.00
O791   O     0.16668   0.20627   0.81487   0.00000  Uiso   1.00
O792   O     0.16666   0.12707   0.68513   0.00000  Uiso   1.00
C793   C     0.05856   0.21904   0.95306   0.00000  Uiso   1.00
C794   C     0.06964   0.26813   0.93640   0.00000  Uiso   1.00
H795   H     0.07754   0.29107   0.96504   0.00000  Uiso   1.00
H796   H     0.09603   0.26761   0.91277   0.00000  Uiso   1.00
H797   H     0.04285   0.28343   0.91901   0.00000  Uiso   1.00
H798   H     0.04851   0.19628   0.92521   0.00000  Uiso   1.00
H799   H     0.03076   0.22352   0.97381   0.00000  Uiso   1.00
C800   C     0.27376   0.11508   0.54447   0.00000  Uiso   1.00
C801   C     0.25994   0.06634   0.55982   0.00000  Uiso   1.00
H802   H     0.23485   0.06793   0.58500   0.00000  Uiso   1.00
H803   H     0.24915   0.04560   0.53078   0.00000  Uiso   1.00
H804   H     0.28630   0.04779   0.57499   0.00000  Uiso   1.00
H805   H     0.30018   0.10813   0.52218   0.00000  Uiso   1.00
H806   H     0.28614   0.13569   0.57278   0.00000  Uiso   1.00
C807   C     0.05243   0.19362   0.55037   0.00000  Uiso   1.00
C808   C     0.04324   0.24326   0.56671   0.00000  Uiso   1.00
H809   H     0.06781   0.25593   0.58920   0.00000  Uiso   1.00
H810   H     0.04081   0.26788   0.53832   0.00000  Uiso   1.00
H811   H     0.01362   0.24338   0.58540   0.00000  Uiso   1.00
H812   H     0.02664   0.17998   0.53021   0.00000  Uiso   1.00
H813   H     0.05196   0.16915   0.57905   0.00000  Uiso   1.00
C814   C     0.28123   0.15918   0.95071   0.00000  Uiso   1.00
C815   C     0.28426   0.20909   0.93199   0.00000  Uiso   1.00
H816   H     0.25804   0.21829   0.91046   0.00000  Uiso   1.00
H817   H     0.28564   0.23477   0.95982   0.00000  Uiso   1.00
H818   H     0.31245   0.21259   0.91124   0.00000  Uiso   1.00
H819   H     0.30835   0.15599   0.97226   0.00000  Uiso   1.00
H820   H     0.28529   0.13299   0.92366   0.00000  Uiso   1.00
C821   C     0.42068   0.16662   0.74999   0.00000  Uiso   1.00
C822   C     0.57932   0.16671   0.75004   0.00000  Uiso   1.00
C823   C     0.42657   0.19100   0.52478   0.00000  Uiso   1.00
C824   C     0.57370   0.15112   0.97540   0.00000  Uiso   1.00
C825   C     0.35448   0.12411   0.74961   0.00000  Uiso   1.00
C826   C     0.64552   0.20923   0.75050   0.00000  Uiso   1.00
C827   C     0.64526   0.12416   0.74966   0.00000  Uiso   1.00
C828   C     0.35473   0.20919   0.75045   0.00000  Uiso   1.00
C829   C     0.62393   0.16672   0.75008   0.00000  Uiso   1.00
C830   C     0.37607   0.16662   0.75001   0.00000  Uiso   1.00
C831   C     0.47401   0.02466   0.72307   0.00000  Uiso   1.00
C832   C     0.52599   0.30867   0.77693   0.00000  Uiso   1.00
C833   C     0.52599   0.02495   0.77693   0.00000  Uiso   1.00
C834   C     0.47401   0.30838   0.72306   0.00000  Uiso   1.00
C835   C     0.50042   0.16662   0.66447   0.00000  Uiso   1.00
C836   C     0.49952   0.16672   0.83553   0.00000  Uiso   1.00
C837   C     0.53465   0.15496   0.90613   0.00000  Uiso   1.00
C838   C     0.46491   0.17988   0.59429   0.00000  Uiso   1.00
C839   C     0.49931   0.16707   0.88369   0.00000  Uiso   1.00
C840   C     0.50021   0.16650   0.61630   0.00000  Uiso   1.00
C841   C     0.46446   0.18161   0.90673   0.00000  Uiso   1.00
C842   C     0.53521   0.15321   0.59287   0.00000  Uiso   1.00
C843   C     0.46365   0.18265   0.95366   0.00000  Uiso   1.00
C844   C     0.53591   0.15371   0.54607   0.00000  Uiso   1.00
C845   C     0.49967   0.16899   0.97668   0.00000  Uiso   1.00
C846   C     0.49978   0.16802   0.52336   0.00000  Uiso   1.00
C847   C     0.53621   0.15810   0.95270   0.00000  Uiso   1.00
C848   C     0.46337   0.17953   0.54752   0.00000  Uiso   1.00
C849   C     0.42778   0.19658   0.97767   0.00000  Uiso   1.00
C850   C     0.57213   0.14150   0.52176   0.00000  Uiso   1.00
Cu851  Cu    0.50000   0.21355   0.75000   0.00000  Uiso   1.00
Cu852  Cu    0.50000   0.11978   0.75000   0.00000  Uiso   1.00
H853   H     0.56102   0.14402   0.88655   0.00000  Uiso   1.00
H854   H     0.43915   0.19096   0.61465   0.00000  Uiso   1.00
H855   H     0.43806   0.19078   0.88703   0.00000  Uiso   1.00
H856   H     0.56208   0.14427   0.61198   0.00000  Uiso   1.00
H857   H     0.37037   0.09084   0.74925   0.00000  Uiso   1.00
H858   H     0.62963   0.24250   0.75087   0.00000  Uiso   1.00
H859   H     0.62917   0.09090   0.74933   0.00000  Uiso   1.00
H860   H     0.37083   0.24244   0.75077   0.00000  Uiso   1.00
H861   H     0.45319   0.04323   0.70149   0.00000  Uiso   1.00
H862   H     0.54681   0.29010   0.79851   0.00000  Uiso   1.00
H863   H     0.54681   0.04375   0.79852   0.00000  Uiso   1.00
H864   H     0.45319   0.28958   0.70147   0.00000  Uiso   1.00
N865   N     0.50000   0.28402   0.75000   0.00000  Uiso   1.00
N866   N     0.50000   0.04931   0.75000   0.00000  Uiso   1.00
O867   O     0.43988   0.20625   0.74999   0.00000  Uiso   1.00
O868   O     0.56012   0.12709   0.75000   0.00000  Uiso   1.00
O869   O     0.56012   0.20625   0.75000   0.00000  Uiso   1.00
O870   O     0.43988   0.12709   0.74999   0.00000  Uiso   1.00
O871   O     0.49999   0.20627   0.68513   0.00000  Uiso   1.00
O872   O     0.50001   0.12707   0.81487   0.00000  Uiso   1.00
O873   O     0.50001   0.20627   0.81487   0.00000  Uiso   1.00
O874   O     0.49999   0.12707   0.68513   0.00000  Uiso   1.00
C875   C     0.39189   0.21904   0.95306   0.00000  Uiso   1.00
C876   C     0.40297   0.26813   0.93640   0.00000  Uiso   1.00
H877   H     0.41087   0.29107   0.96504   0.00000  Uiso   1.00
H878   H     0.42936   0.26761   0.91277   0.00000  Uiso   1.00
H879   H     0.37618   0.28343   0.91901   0.00000  Uiso   1.00
H880   H     0.38184   0.19628   0.92521   0.00000  Uiso   1.00
H881   H     0.36410   0.22352   0.97381   0.00000  Uiso   1.00
C882   C     0.60710   0.11508   0.54447   0.00000  Uiso   1.00
C883   C     0.59327   0.06634   0.55982   0.00000  Uiso   1.00
H884   H     0.56818   0.06793   0.58500   0.00000  Uiso   1.00
H885   H     0.58248   0.04560   0.53078   0.00000  Uiso   1.00
H886   H     0.61963   0.04779   0.57499   0.00000  Uiso   1.00
H887   H     0.63352   0.10813   0.52218   0.00000  Uiso   1.00
H888   H     0.61948   0.13569   0.57278   0.00000  Uiso   1.00
C889   C     0.38577   0.19362   0.55037   0.00000  Uiso   1.00
C890   C     0.37657   0.24326   0.56671   0.00000  Uiso   1.00
H891   H     0.40114   0.25593   0.58920   0.00000  Uiso   1.00
H892   H     0.37414   0.26788   0.53832   0.00000  Uiso   1.00
H893   H     0.34695   0.24338   0.58540   0.00000  Uiso   1.00
H894   H     0.35997   0.17998   0.53021   0.00000  Uiso   1.00
H895   H     0.38529   0.16915   0.57905   0.00000  Uiso   1.00
C896   C     0.61457   0.15918   0.95071   0.00000  Uiso   1.00
C897   C     0.61759   0.20909   0.93199   0.00000  Uiso   1.00
H898   H     0.59137   0.21829   0.91046   0.00000  Uiso   1.00
H899   H     0.61898   0.23477   0.95982   0.00000  Uiso   1.00
H900   H     0.64579   0.21259   0.91124   0.00000  Uiso   1.00
H901   H     0.64168   0.15599   0.97226   0.00000  Uiso   1.00
H902   H     0.61862   0.13299   0.92366   0.00000  Uiso   1.00
C903   C     0.75402   0.16662   0.74999   0.00000  Uiso   1.00
C904   C     0.91265   0.16671   0.75004   0.00000  Uiso   1.00
C905   C     0.75991   0.19100   0.52478   0.00000  Uiso   1.00
C906   C     0.90703   0.15112   0.97540   0.00000  Uiso   1.00
C907   C     0.68781   0.12411   0.74961   0.00000  Uiso   1.00
C908   C     0.97885   0.20923   0.75050   0.00000  Uiso   1.00
C909   C     0.97860   0.12416   0.74966   0.00000  Uiso   1.00
C910   C     0.68807   0.20919   0.75045   0.00000  Uiso   1.00
C911   C     0.95727   0.16672   0.75008   0.00000  Uiso   1.00
C912   C     0.70940   0.16662   0.75001   0.00000  Uiso   1.00
C913   C     0.80734   0.02466   0.72307   0.00000  Uiso   1.00
C914   C     0.85932   0.30867   0.77693   0.00000  Uiso   1.00
C915   C     0.85932   0.02495   0.77693   0.00000  Uiso   1.00
C916   C     0.80734   0.30838   0.72306   0.00000  Uiso   1.00
C917   C     0.83375   0.16662   0.66447   0.00000  Uiso   1.00
C918   C     0.83286   0.16672   0.83553   0.00000  Uiso   1.00
C919   C     0.86798   0.15496   0.90613   0.00000  Uiso   1.00
C920   C     0.79824   0.17988   0.59429   0.00000  Uiso   1.00
C921   C     0.83264   0.16707   0.88369   0.00000  Uiso   1.00
C922   C     0.83354   0.16650   0.61630   0.00000  Uiso   1.00
C923   C     0.79779   0.18161   0.90673   0.00000  Uiso   1.00
C924   C     0.86854   0.15321   0.59287   0.00000  Uiso   1.00
C925   C     0.79698   0.18265   0.95366   0.00000  Uiso   1.00
C926   C     0.86924   0.15371   0.54607   0.00000  Uiso   1.00
C927   C     0.83300   0.16899   0.97668   0.00000  Uiso   1.00
C928   C     0.83311   0.16802   0.52336   0.00000  Uiso   1.00
C929   C     0.86955   0.15810   0.95270   0.00000  Uiso   1.00
C930   C     0.79671   0.17953   0.54752   0.00000  Uiso   1.00
C931   C     0.76111   0.19658   0.97767   0.00000  Uiso   1.00
C932   C     0.90547   0.14150   0.52176   0.00000  Uiso   1.00
Cu933  Cu    0.83333   0.21355   0.75000   0.00000  Uiso   1.00
Cu934  Cu    0.83333   0.11978   0.75000   0.00000  Uiso   1.00
H935   H     0.89435   0.14402   0.88655   0.00000  Uiso   1.00
H936   H     0.77248   0.19096   0.61465   0.00000  Uiso   1.00
H937   H     0.77139   0.19078   0.88703   0.00000  Uiso   1.00
H938   H     0.89541   0.14427   0.61198   0.00000  Uiso   1.00
H939   H     0.70371   0.09084   0.74925   0.00000  Uiso   1.00
H940   H     0.96296   0.24250   0.75087   0.00000  Uiso   1.00
H941   H     0.96250   0.09090   0.74933   0.00000  Uiso   1.00
H942   H     0.70416   0.24244   0.75077   0.00000  Uiso   1.00
H943   H     0.78652   0.04323   0.70149   0.00000  Uiso   1.00
H944   H     0.88014   0.29010   0.79851   0.00000  Uiso   1.00
H945   H     0.88015   0.04375   0.79852   0.00000  Uiso   1.00
H946   H     0.78653   0.28958   0.70147   0.00000  Uiso   1.00
N947   N     0.83333   0.28402   0.75000   0.00000  Uiso   1.00
N948   N     0.83333   0.04931   0.75000   0.00000  Uiso   1.00
O949   O     0.77321   0.20625   0.74999   0.00000  Uiso   1.00
O950   O     0.89345   0.12709   0.75000   0.00000  Uiso   1.00
O951   O     0.89345   0.20625   0.75000   0.00000  Uiso   1.00
O952   O     0.77321   0.12709   0.74999   0.00000  Uiso   1.00
O953   O     0.83332   0.20627   0.68513   0.00000  Uiso   1.00
O954   O     0.83334   0.12707   0.81487   0.00000  Uiso   1.00
O955   O     0.83334   0.20627   0.81487   0.00000  Uiso   1.00
O956   O     0.83332   0.12707   0.68513   0.00000  Uiso   1.00
C957   C     0.72522   0.21904   0.95306   0.00000  Uiso   1.00
C958   C     0.73630   0.26813   0.93640   0.00000  Uiso   1.00
H959   H     0.74421   0.29107   0.96504   0.00000  Uiso   1.00
H960   H     0.76270   0.26761   0.91277   0.00000  Uiso   1.00
H961   H     0.70951   0.28343   0.91901   0.00000  Uiso   1.00
H962   H     0.71517   0.19628   0.92521   0.00000  Uiso   1.00
H963   H     0.69743   0.22352   0.97381   0.00000  Uiso   1.00
C964   C     0.94043   0.11508   0.54447   0.00000  Uiso   1.00
C965   C     0.92660   0.06634   0.55982   0.00000  Uiso   1.00
H966   H     0.90151   0.06793   0.58500   0.00000  Uiso   1.00
H967   H     0.91582   0.04560   0.53078   0.00000  Uiso   1.00
H968   H     0.95296   0.04779   0.57499   0.00000  Uiso   1.00
H969   H     0.96685   0.10813   0.52218   0.00000  Uiso   1.00
H970   H     0.95281   0.13569   0.57278   0.00000  Uiso   1.00
C971   C     0.71910   0.19362   0.55037   0.00000  Uiso   1.00
C972   C     0.70990   0.24326   0.56671   0.00000  Uiso   1.00
H973   H     0.73448   0.25593   0.58920   0.00000  Uiso   1.00
H974   H     0.70748   0.26788   0.53832   0.00000  Uiso   1.00
H975   H     0.68028   0.24338   0.58540   0.00000  Uiso   1.00
H976   H     0.69331   0.17998   0.53021   0.00000  Uiso   1.00
H977   H     0.71862   0.16915   0.57905   0.00000  Uiso   1.00
C978   C     0.94790   0.15918   0.95071   0.00000  Uiso   1.00
C979   C     0.95093   0.20909   0.93199   0.00000  Uiso   1.00
H980   H     0.92471   0.21829   0.91046   0.00000  Uiso   1.00
H981   H     0.95231   0.23477   0.95982   0.00000  Uiso   1.00
H982   H     0.97912   0.21259   0.91124   0.00000  Uiso   1.00
H983   H     0.97502   0.15599   0.97226   0.00000  Uiso   1.00
H984   H     0.95195   0.13299   0.92366   0.00000  Uiso   1.00
C985   C     0.08735   0.49996   0.74999   0.00000  Uiso   1.00
C986   C     0.24598   0.50004   0.75004   0.00000  Uiso   1.00
C987   C     0.09324   0.52434   0.52478   0.00000  Uiso   1.00
C988   C     0.24036   0.48445   0.97540   0.00000  Uiso   1.00
C989   C     0.02115   0.45744   0.74961   0.00000  Uiso   1.00
C990   C     0.31219   0.54257   0.75050   0.00000  Uiso   1.00
C991   C     0.31193   0.45749   0.74966   0.00000  Uiso   1.00
C992   C     0.02140   0.54252   0.75045   0.00000  Uiso   1.00
C993   C     0.29060   0.50006   0.75008   0.00000  Uiso   1.00
C994   C     0.04273   0.49995   0.75001   0.00000  Uiso   1.00
C995   C     0.14067   0.35799   0.72307   0.00000  Uiso   1.00
C996   C     0.19266   0.64201   0.77693   0.00000  Uiso   1.00
C997   C     0.19266   0.35828   0.77693   0.00000  Uiso   1.00
C998   C     0.14068   0.64172   0.72306   0.00000  Uiso   1.00
C999   C     0.16708   0.49996   0.66447   0.00000  Uiso   1.00
C1000  C     0.16619   0.50005   0.83553   0.00000  Uiso   1.00
C1001  C     0.20131   0.48830   0.90613   0.00000  Uiso   1.00
C1002  C     0.13158   0.51321   0.59429   0.00000  Uiso   1.00
C1003  C     0.16597   0.50040   0.88369   0.00000  Uiso   1.00
C1004  C     0.16688   0.49984   0.61630   0.00000  Uiso   1.00
C1005  C     0.13112   0.51494   0.90673   0.00000  Uiso   1.00
C1006  C     0.20188   0.48654   0.59287   0.00000  Uiso   1.00
C1007  C     0.13032   0.51598   0.95366   0.00000  Uiso   1.00
C1008  C     0.20257   0.48705   0.54607   0.00000  Uiso   1.00
C1009  C     0.16633   0.50232   0.97668   0.00000  Uiso   1.00
C1010  C     0.16644   0.50135   0.52336   0.00000  Uiso   1.00
C1011  C     0.20288   0.49144   0.95270   0.00000  Uiso   1.00
C1012  C     0.13004   0.51287   0.54752   0.00000  Uiso   1.00
C1013  C     0.09444   0.52991   0.97767   0.00000  Uiso   1.00
C1014  C     0.23880   0.47483   0.52176   0.00000  Uiso   1.00
Cu1015 Cu    0.16667   0.54689   0.75000   0.00000  Uiso   1.00
Cu1016 Cu    0.16667   0.45311   0.75000   0.00000  Uiso   1.00
H1017  H     0.22769   0.47735   0.88655   0.00000  Uiso   1.00
H1018  H     0.10582   0.52430   0.61465   0.00000  Uiso   1.00
H1019  H     0.10473   0.52411   0.88703   0.00000  Uiso   1.00
H1020  H     0.22874   0.47760   0.61198   0.00000  Uiso   1.00
H1021  H     0.03704   0.42417   0.74925   0.00000  Uiso   1.00
H1022  H     0.29629   0.57584   0.75087   0.00000  Uiso   1.00
H1023  H     0.29584   0.42424   0.74933   0.00000  Uiso   1.00
H1024  H     0.03750   0.57578   0.75077   0.00000  Uiso   1.00
H1025  H     0.11985   0.37656   0.70149   0.00000  Uiso   1.00
H1026  H     0.21348   0.62343   0.79851   0.00000  Uiso   1.00
H1027  H     0.21348   0.37708   0.79852   0.00000  Uiso   1.00
H1028  H     0.11986   0.62291   0.70147   0.00000  Uiso   1.00
N1029  N     0.16667   0.61736   0.75000   0.00000  Uiso   1.00
N1030  N     0.16667   0.38264   0.75000   0.00000  Uiso   1.00
O1031  O     0.10655   0.53958   0.74999   0.00000  Uiso   1.00
O1032  O     0.22679   0.46042   0.75000   0.00000  Uiso   1.00
O1033  O     0.22679   0.53958   0.75000   0.00000  Uiso   1.00
O1034  O     0.10655   0.46042   0.74999   0.00000  Uiso   1.00
O1035  O     0.16666   0.53960   0.68513   0.00000  Uiso   1.00
O1036  O     0.16668   0.46040   0.81487   0.00000  Uiso   1.00
O1037  O     0.16668   0.53960   0.81487   0.00000  Uiso   1.00
O1038  O     0.16666   0.46040   0.68513   0.00000  Uiso   1.00
C1039  C     0.05856   0.55237   0.95306   0.00000  Uiso   1.00
C1040  C     0.06964   0.60147   0.93640   0.00000  Uiso   1.00
H1041  H     0.07754   0.62441   0.96504   0.00000  Uiso   1.00
H1042  H     0.09603   0.60095   0.91277   0.00000  Uiso   1.00
H1043  H     0.04285   0.61677   0.91901   0.00000  Uiso   1.00
H1044  H     0.04851   0.52961   0.92521   0.00000  Uiso   1.00
H1045  H     0.03076   0.55685   0.97381   0.00000  Uiso   1.00
C1046  C     0.27376   0.44841   0.54447   0.00000  Uiso   1.00
C1047  C     0.25994   0.39967   0.55982   0.00000  Uiso   1.00
H1048  H     0.23485   0.40126   0.58500   0.00000  Uiso   1.00
H1049  H     0.24915   0.37893   0.53078   0.00000  Uiso   1.00
H1050  H     0.28630   0.38112   0.57499   0.00000  Uiso   1.00
H1051  H     0.30018   0.44146   0.52218   0.00000  Uiso   1.00
H1052  H     0.28614   0.46902   0.57278   0.00000  Uiso   1.00
C1053  C     0.05243   0.52695   0.55037   0.00000  Uiso   1.00
C1054  C     0.04324   0.57659   0.56671   0.00000  Uiso   1.00
H1055  H     0.06781   0.58926   0.58920   0.00000  Uiso   1.00
H1056  H     0.04081   0.60121   0.53832   0.00000  Uiso   1.00
H1057  H     0.01362   0.57671   0.58540   0.00000  Uiso   1.00
H1058  H     0.02664   0.51332   0.53021   0.00000  Uiso   1.00
H1059  H     0.05196   0.50248   0.57905   0.00000  Uiso   1.00
C1060  C     0.28123   0.49251   0.95071   0.00000  Uiso   1.00
C1061  C     0.28426   0.54242   0.93199   0.00000  Uiso   1.00
H1062  H     0.25804   0.55162   0.91046   0.00000  Uiso   1.00
H1063  H     0.28564   0.56810   0.95982   0.00000  Uiso   1.00
H1064  H     0.31245   0.54592   0.91124   0.00000  Uiso   1.00
H1065  H     0.30835   0.48933   0.97226   0.00000  Uiso   1.00
H1066  H     0.28529   0.46632   0.92366   0.00000  Uiso   1.00
C1067  C     0.42068   0.49996   0.74999   0.00000  Uiso   1.00
C1068  C     0.57932   0.50004   0.75004   0.00000  Uiso   1.00
C1069  C     0.42657   0.52434   0.52478   0.00000  Uiso   1.00
C1070  C     0.57370   0.48445   0.97540   0.00000  Uiso   1.00
C1071  C     0.35448   0.45744   0.74961   0.00000  Uiso   1.00
C1072  C     0.64552   0.54257   0.75050   0.00000  Uiso   1.00
C1073  C     0.64526   0.45749   0.74966   0.00000  Uiso   1.00
C1074  C     0.35473   0.54252   0.75045   0.00000  Uiso   1.00
C1075  C     0.62393   0.50006   0.75008   0.00000  Uiso   1.00
C1076  C     0.37607   0.49995   0.75001   0.00000  Uiso   1.00
C1077  C     0.47401   0.35799   0.72307   0.00000  Uiso   1.00
C1078  C     0.52599   0.64201   0.77693   0.00000  Uiso   1.00
C1079  C     0.52599   0.35828   0.77693   0.00000  Uiso   1.00
C1080  C     0.47401   0.64172   0.72306   0.00000  Uiso   1.00
C1081  C     0.50042   0.49996   0.66447   0.00000  Uiso   1.00
C1082  C     0.49952   0.50005   0.83553   0.00000  Uiso   1.00
C1083  C     0.53465   0.48830   0.90613   0.00000  Uiso   1.00
C1084  C     0.46491   0.51321   0.59429   0.00000  Uiso   1.00
C1085  C     0.49931   0.50040   0.88369   0.00000  Uiso   1.00
C1086  C     0.50021   0.49984   0.61630   0.00000  Uiso   1.00
C1087  C     0.46446   0.51494   0.90673   0.00000  Uiso   1.00
C1088  C     0.53521   0.48654   0.59287   0.00000  Uiso   1.00
C1089  C     0.46365   0.51598   0.95366   0.00000  Uiso   1.00
C1090  C     0.53591   0.48705   0.54607   0.00000  Uiso   1.00
C1091  C     0.49967   0.50232   0.97668   0.00000  Uiso   1.00
C1092  C     0.49978   0.50135   0.52336   0.00000  Uiso   1.00
C1093  C     0.53621   0.49144   0.95270   0.00000  Uiso   1.00
C1094  C     0.46337   0.51287   0.54752   0.00000  Uiso   1.00
C1095  C     0.42778   0.52991   0.97767   0.00000  Uiso   1.00
C1096  C     0.57213   0.47483   0.52176   0.00000  Uiso   1.00
Cu1097 Cu    0.50000   0.54689   0.75000   0.00000  Uiso   1.00
Cu1098 Cu    0.50000   0.45311   0.75000   0.00000  Uiso   1.00
H1099  H     0.56102   0.47735   0.88655   0.00000  Uiso   1.00
H1100  H     0.43915   0.52430   0.61465   0.00000  Uiso   1.00
H1101  H     0.43806   0.52411   0.88703   0.00000  Uiso   1.00
H1102  H     0.56208   0.47760   0.61198   0.00000  Uiso   1.00
H1103  H     0.37037   0.42417   0.74925   0.00000  Uiso   1.00
H1104  H     0.62963   0.57584   0.75087   0.00000  Uiso   1.00
H1105  H     0.62917   0.42424   0.74933   0.00000  Uiso   1.00
H1106  H     0.37083   0.57578   0.75077   0.00000  Uiso   1.00
H1107  H     0.45319   0.37656   0.70149   0.00000  Uiso   1.00
H1108  H     0.54681   0.62343   0.79851   0.00000  Uiso   1.00
H1109  H     0.54681   0.37708   0.79852   0.00000  Uiso   1.00
H1110  H     0.45319   0.62291   0.70147   0.00000  Uiso   1.00
N1111  N     0.50000   0.61736   0.75000   0.00000  Uiso   1.00
N1112  N     0.50000   0.38264   0.75000   0.00000  Uiso   1.00
O1113  O     0.43988   0.53958   0.74999   0.00000  Uiso   1.00
O1114  O     0.56012   0.46042   0.75000   0.00000  Uiso   1.00
O1115  O     0.56012   0.53958   0.75000   0.00000  Uiso   1.00
O1116  O     0.43988   0.46042   0.74999   0.00000  Uiso   1.00
O1117  O     0.49999   0.53960   0.68513   0.00000  Uiso   1.00
O1118  O     0.50001   0.46040   0.81487   0.00000  Uiso   1.00
O1119  O     0.50001   0.53960   0.81487   0.00000  Uiso   1.00
O1120  O     0.49999   0.46040   0.68513   0.00000  Uiso   1.00
C1121  C     0.39189   0.55237   0.95306   0.00000  Uiso   1.00
C1122  C     0.40297   0.60147   0.93640   0.00000  Uiso   1.00
H1123  H     0.41087   0.62441   0.96504   0.00000  Uiso   1.00
H1124  H     0.42936   0.60095   0.91277   0.00000  Uiso   1.00
H1125  H     0.37618   0.61677   0.91901   0.00000  Uiso   1.00
H1126  H     0.38184   0.52961   0.92521   0.00000  Uiso   1.00
H1127  H     0.36410   0.55685   0.97381   0.00000  Uiso   1.00
C1128  C     0.60710   0.44841   0.54447   0.00000  Uiso   1.00
C1129  C     0.59327   0.39967   0.55982   0.00000  Uiso   1.00
H1130  H     0.56818   0.40126   0.58500   0.00000  Uiso   1.00
H1131  H     0.58248   0.37893   0.53078   0.00000  Uiso   1.00
H1132  H     0.61963   0.38112   0.57499   0.00000  Uiso   1.00
H1133  H     0.63352   0.44146   0.52218   0.00000  Uiso   1.00
H1134  H     0.61948   0.46902   0.57278   0.00000  Uiso   1.00
C1135  C     0.38577   0.52695   0.55037   0.00000  Uiso   1.00
C1136  C     0.37657   0.57659   0.56671   0.00000  Uiso   1.00
H1137  H     0.40114   0.58926   0.58920   0.00000  Uiso   1.00
H1138  H     0.37414   0.60121   0.53832   0.00000  Uiso   1.00
H1139  H     0.34695   0.57671   0.58540   0.00000  Uiso   1.00
H1140  H     0.35997   0.51332   0.53021   0.00000  Uiso   1.00
H1141  H     0.38529   0.50248   0.57905   0.00000  Uiso   1.00
C1142  C     0.61457   0.49251   0.95071   0.00000  Uiso   1.00
C1143  C     0.61759   0.54242   0.93199   0.00000  Uiso   1.00
H1144  H     0.59137   0.55162   0.91046   0.00000  Uiso   1.00
H1145  H     0.61898   0.56810   0.95982   0.00000  Uiso   1.00
H1146  H     0.64579   0.54592   0.91124   0.00000  Uiso   1.00
H1147  H     0.64168   0.48933   0.97226   0.00000  Uiso   1.00
H1148  H     0.61862   0.46632   0.92366   0.00000  Uiso   1.00
C1149  C     0.75402   0.49996   0.74999   0.00000  Uiso   1.00
C1150  C     0.91265   0.50004   0.75004   0.00000  Uiso   1.00
C1151  C     0.75991   0.52434   0.52478   0.00000  Uiso   1.00
C1152  C     0.90703   0.48445   0.97540   0.00000  Uiso   1.00
C1153  C     0.68781   0.45744   0.74961   0.00000  Uiso   1.00
C1154  C     0.97885   0.54257   0.75050   0.00000  Uiso   1.00
C1155  C     0.97860   0.45749   0.74966   0.00000  Uiso   1.00
C1156  C     0.68807   0.54252   0.75045   0.00000  Uiso   1.00
C1157  C     0.95727   0.50006   0.75008   0.00000  Uiso   1.00
C1158  C     0.70940   0.49995   0.75001   0.00000  Uiso   1.00
C1159  C     0.80734   0.35799   0.72307   0.00000  Uiso   1.00
C1160  C     0.85932   0.64201   0.77693   0.00000  Uiso   1.00
C1161  C     0.85932   0.35828   0.77693   0.00000  Uiso   1.00
C1162  C     0.80734   0.64172   0.72306   0.00000  Uiso   1.00
C1163  C     0.83375   0.49996   0.66447   0.00000  Uiso   1.00
C1164  C     0.83286   0.50005   0.83553   0.00000  Uiso   1.00
C1165  C     0.86798   0.48830   0.90613   0.00000  Uiso   1.00
C1166  C     0.79824   0.51321   0.59429   0.00000  Uiso   1.00
C1167  C     0.83264   0.50040   0.88369   0.00000  Uiso   1.00
C1168  C     0.83354   0.49984   0.61630   0.00000  Uiso   1.00
C1169  C     0.79779   0.51494   0.90673   0.00000  Uiso   1.00
C1170  C     0.86854   0.48654   0.59287   0.00000  Uiso   1.00
C1171  C     0.79698   0.51598   0.95366   0.00000  Uiso   1.00
C1172  C     0.86924   0.48705   0.54607   0.00000  Uiso   1.00
C1173  C     0.83300   0.50232   0.97668   0.00000  Uiso   1.00
C1174  C     0.83311   0.50135   0.52336   0.00000  Uiso   1.00
C1175  C     0.86955   0.49144   0.95270   0.00000  Uiso   1.00
C1176  C     0.79671   0.51287   0.54752   0.00000  Uiso   1.00
C1177  C     0.76111   0.52991   0.97767   0.00000  Uiso   1.00
C1178  C     0.90547   0.47483   0.52176   0.00000  Uiso   1.00
Cu1179 Cu    0.83333   0.54689   0.75000   0.00000  Uiso   1.00
Cu1180 Cu    0.83333   0.45311   0.75000   0.00000  Uiso   1.00
H1181  H     0.89435   0.47735   0.88655   0.00000  Uiso   1.00
H1182  H     0.77248   0.52430   0.61465   0.00000  Uiso   1.00
H1183  H     0.77139   0.52411   0.88703   0.00000  Uiso   1.00
H1184  H     0.89541   0.47760   0.61198   0.00000  Uiso   1.00
H1185  H     0.70371   0.42417   0.74925   0.00000  Uiso   1.00
H1186  H     0.96296   0.57584   0.75087   0.00000  Uiso   1.00
H1187  H     0.96250   0.42424   0.74933   0.00000  Uiso   1.00
H1188  H     0.70416   0.57578   0.75077   0.00000  Uiso   1.00
H1189  H     0.78652   0.37656   0.70149   0.00000  Uiso   1.00
H1190  H     0.88014   0.62343   0.79851   0.00000  Uiso   1.00
H1191  H     0.88015   0.37708   0.79852   0.00000  Uiso   1.00
H1192  H     0.78653   0.62291   0.70147   0.00000  Uiso   1.00
N1193  N     0.83333   0.61736   0.75000   0.00000  Uiso   1.00
N1194  N     0.83333   0.38264   0.75000   0.00000  Uiso   1.00
O1195  O     0.77321   0.53958   0.74999   0.00000  Uiso   1.00
O1196  O     0.89345   0.46042   0.75000   0.00000  Uiso   1.00
O1197  O     0.89345   0.53958   0.75000   0.00000  Uiso   1.00
O1198  O     0.77321   0.46042   0.74999   0.00000  Uiso   1.00
O1199  O     0.83332   0.53960   0.68513   0.00000  Uiso   1.00
O1200  O     0.83334   0.46040   0.81487   0.00000  Uiso   1.00
O1201  O     0.83334   0.53960   0.81487   0.00000  Uiso   1.00
O1202  O     0.83332   0.46040   0.68513   0.00000  Uiso   1.00
C1203  C     0.72522   0.55237   0.95306   0.00000  Uiso   1.00
C1204  C     0.73630   0.60147   0.93640   0.00000  Uiso   1.00
H1205  H     0.74421   0.62441   0.96504   0.00000  Uiso   1.00
H1206  H     0.76270   0.60095   0.91277   0.00000  Uiso   1.00
H1207  H     0.70951   0.61677   0.91901   0.00000  Uiso   1.00
H1208  H     0.71517   0.52961   0.92521   0.00000  Uiso   1.00
H1209  H     0.69743   0.55685   0.97381   0.00000  Uiso   1.00
C1210  C     0.94043   0.44841   0.54447   0.00000  Uiso   1.00
C1211  C     0.92660   0.39967   0.55982   0.00000  Uiso   1.00
H1212  H     0.90151   0.40126   0.58500   0.00000  Uiso   1.00
H1213  H     0.91582   0.37893   0.53078   0.00000  Uiso   1.00
H1214  H     0.95296   0.38112   0.57499   0.00000  Uiso   1.00
H1215  H     0.96685   0.44146   0.52218   0.00000  Uiso   1.00
H1216  H     0.95281   0.46902   0.57278   0.00000  Uiso   1.00
C1217  C     0.71910   0.52695   0.55037   0.00000  Uiso   1.00
C1218  C     0.70990   0.57659   0.56671   0.00000  Uiso   1.00
H1219  H     0.73448   0.58926   0.58920   0.00000  Uiso   1.00
H1220  H     0.70748   0.60121   0.53832   0.00000  Uiso   1.00
H1221  H     0.68028   0.57671   0.58540   0.00000  Uiso   1.00
H1222  H     0.69331   0.51332   0.53021   0.00000  Uiso   1.00
H1223  H     0.71862   0.50248   0.57905   0.00000  Uiso   1.00
C1224  C     0.94790   0.49251   0.95071   0.00000  Uiso   1.00
C1225  C     0.95093   0.54242   0.93199   0.00000  Uiso   1.00
H1226  H     0.92471   0.55162   0.91046   0.00000  Uiso   1.00
H1227  H     0.95231   0.56810   0.95982   0.00000  Uiso   1.00
H1228  H     0.97912   0.54592   0.91124   0.00000  Uiso   1.00
H1229  H     0.97502   0.48933   0.97226   0.00000  Uiso   1.00
H1230  H     0.95195   0.46632   0.92366   0.00000  Uiso   1.00
C1231  C     0.08735   0.83329   0.74999   0.00000  Uiso   1.00
C1232  C     0.24598   0.83338   0.75004   0.00000  Uiso   1.00
C1233  C     0.09324   0.85767   0.52478   0.00000  Uiso   1.00
C1234  C     0.24036   0.81779   0.97540   0.00000  Uiso   1.00
C1235  C     0.02115   0.79078   0.74961   0.00000  Uiso   1.00
C1236  C     0.31219   0.87590   0.75050   0.00000  Uiso   1.00
C1237  C     0.31193   0.79083   0.74966   0.00000  Uiso   1.00
C1238  C     0.02140   0.87585   0.75045   0.00000  Uiso   1.00
C1239  C     0.29060   0.83339   0.75008   0.00000  Uiso   1.00
C1240  C     0.04273   0.83329   0.75001   0.00000  Uiso   1.00
C1241  C     0.14067   0.69132   0.72307   0.00000  Uiso   1.00
C1242  C     0.19266   0.97534   0.77693   0.00000  Uiso   1.00
C1243  C     0.19266   0.69161   0.77693   0.00000  Uiso   1.00
C1244  C     0.14068   0.97505   0.72306   0.00000  Uiso   1.00
C1245  C     0.16708   0.83329   0.66447   0.00000  Uiso   1.00
C1246  C     0.16619   0.83339   0.83553   0.00000  Uiso   1.00
C1247  C     0.20131   0.82163   0.90613   0.00000  Uiso   1.00
C1248  C     0.13158   0.84655   0.59429   0.00000  Uiso   1.00
C1249  C     0.16597   0.83373   0.88369   0.00000  Uiso   1.00
C1250  C     0.16688   0.83317   0.61630   0.00000  Uiso   1.00
C1251  C     0.13112   0.84827   0.90673   0.00000  Uiso   1.00
C1252  C     0.20188   0.81988   0.59287   0.00000  Uiso   1.00
C1253  C     0.13032   0.84932   0.95366   0.00000  Uiso   1.00
C1254  C     0.20257   0.82038   0.54607   0.00000  Uiso   1.00
C1255  C     0.16633   0.83565   0.97668   0.00000  Uiso   1.00
C1256  C     0.16644   0.83468   0.52336   0.00000  Uiso   1.00
C1257  C     0.20288   0.82477   0.95270   0.00000  Uiso   1.00
C1258  C     0.13004   0.84620   0.54752   0.00000  Uiso   1.00
C1259  C     0.09444   0.86324   0.97767   0.00000  Uiso   1.00
C1260  C     0.23880   0.80817   0.52176   0.00000  Uiso   1.00
Cu1261 Cu    0.16667   0.88022   0.75000   0.00000  Uiso   1.00
Cu1262 Cu    0.16667   0.78645   0.75000   0.00000  Uiso   1.00
H1263  H     0.22769   0.81068   0.88655   0.00000  Uiso   1.00
H1264  H     0.10582   0.85763   0.61465   0.00000  Uiso   1.00
H1265  H     0.10473   0.85745   0.88703   0.00000  Uiso   1.00
H1266  H     0.22874   0.81093   0.61198   0.00000  Uiso   1.00
H1267  H     0.03704   0.75751   0.74925   0.00000  Uiso   1.00
H1268  H     0.29629   0.90917   0.75087   0.00000  Uiso   1.00
H1269  H     0.29584   0.75757   0.74933   0.00000  Uiso   1.00
H1270  H     0.03750   0.90911   0.75077   0.00000  Uiso   1.00
H1271  H     0.11985   0.70990   0.70149   0.00000  Uiso   1.00
H1272  H     0.21348   0.95677   0.79851   0.00000  Uiso   1.00
H1273  H     0.21348   0.71042   0.79852   0.00000  Uiso   1.00
H1274  H     0.11986   0.95625   0.70147   0.00000  Uiso   1.00
N1275  N     0.16667   0.95069   0.75000   0.00000  Uiso   1.00
N1276  N     0.16667   0.71598   0.75000   0.00000  Uiso   1.00
O1277  O     0.10655   0.87291   0.74999   0.00000  Uiso   1.00
O1278  O     0.22679   0.79375   0.75000   0.00000  Uiso   1.00
O1279  O     0.22679   0.87291   0.75000   0.00000  Uiso   1.00
O1280  O     0.10655   0.79375   0.74999   0.00000  Uiso   1.00
O1281  O     0.16666   0.87293   0.68513   0.00000  Uiso   1.00
O1282  O     0.16668   0.79373   0.81487   0.00000  Uiso   1.00
O1283  O     0.16668   0.87293   0.81487   0.00000  Uiso   1.00
O1284  O     0.16666   0.79373   0.68513   0.00000  Uiso   1.00
C1285  C     0.05856   0.88571   0.95306   0.00000  Uiso   1.00
C1286  C     0.06964   0.93480   0.93640   0.00000  Uiso   1.00
H1287  H     0.07754   0.95774   0.96504   0.00000  Uiso   1.00
H1288  H     0.09603   0.93428   0.91277   0.00000  Uiso   1.00
H1289  H     0.04285   0.95010   0.91901   0.00000  Uiso   1.00
H1290  H     0.04851   0.86295   0.92521   0.00000  Uiso   1.00
H1291  H     0.03076   0.89019   0.97381   0.00000  Uiso   1.00
C1292  C     0.27376   0.78174   0.54447   0.00000  Uiso   1.00
C1293  C     0.25994   0.73301   0.55982   0.00000  Uiso   1.00
H1294  H     0.23485   0.73459   0.58500   0.00000  Uiso   1.00
H1295  H     0.24915   0.71226   0.53078   0.00000  Uiso   1.00
H1296  H     0.28630   0.71446   0.57499   0.00000  Uiso   1.00
H1297  H     0.30018   0.77480   0.52218   0.00000  Uiso   1.00
H1298  H     0.28614   0.80236   0.57278   0.00000  Uiso   1.00
C1299  C     0.05243   0.86029   0.55037   0.00000  Uiso   1.00
C1300  C     0.04324   0.90992   0.56671   0.00000  Uiso   1.00
H1301  H     0.06781   0.92260   0.58920   0.00000  Uiso   1.00
H1302  H     0.04081   0.93454   0.53832   0.00000  Uiso   1.00
H1303  H     0.01362   0.91004   0.58540   0.00000  Uiso   1.00
H1304  H     0.02664   0.84665   0.53021   0.00000  Uiso   1.00
H1305  H     0.05196   0.83581   0.57905   0.00000  Uiso   1.00
C1306  C     0.28123   0.82585   0.95071   0.00000  Uiso   1.00
C1307  C     0.28426   0.87575   0.93199   0.00000  Uiso   1.00
H1308  H     0.25804   0.88496   0.91046   0.00000  Uiso   1.00
H1309  H     0.28564   0.90143   0.95982   0.00000  Uiso   1.00
H1310  H     0.31245   0.87925   0.91124   0.00000  Uiso   1.00
H1311  H     0.30835   0.82266   0.97226   0.00000  Uiso   1.00
H1312  H     0.28529   0.79965   0.92366   0.00000  Uiso   1.00
C1313  C     0.42068   0.83329   0.74999   0.00000  Uiso   1.00
C1314  C     0.57932   0.83338   0.75004   0.00000  Uiso   1.00
C1315  C     0.42657   0.85767   0.52478   0.00000  Uiso   1.00
C1316  C     0.57370   0.81779   0.97540   0.00000  Uiso   1.00
C1317  C     0.35448   0.79078   0.74961   0.00000  Uiso   1.00
C1318  C     0.64552   0.87590   0.75050   0.00000  Uiso   1.00
C1319  C     0.64526   0.79083   0.74966   0.00000  Uiso   1.00
C1320  C     0.35473   0.87585   0.75045   0.00000  Uiso   1.00
C1321  C     0.62393   0.83339   0.75008   0.00000  Uiso   1.00
C1322  C     0.37607   0.83329   0.75001   0.00000  Uiso   1.00
C1323  C     0.47401   0.69132   0.72307   0.00000  Uiso   1.00
C1324  C     0.52599   0.97534   0.77693   0.00000  Uiso   1.00
C1325  C     0.52599   0.69161   0.77693   0.00000  Uiso   1.00
C1326  C     0.47401   0.97505   0.72306   0.00000  Uiso   1.00
C1327  C     0.50042   0.83329   0.66447   0.00000  Uiso   1.00
C1328  C     0.49952   0.83339   0.83553   0.00000  Uiso   1.00
C1329  C     0.53465   0.82163   0.90613   0.00000  Uiso   1.00
C1330  C     0.46491   0.84655   0.59429   0.00000  Uiso   1.00
C1331  C     0.49931   0.83373   0.88369   0.00000  Uiso   1.00
C1332  C     0.50021   0.83317   0.61630   0.00000  Uiso   1.00
C1333  C     0.46446   0.84827   0.90673   0.00000  Uiso   1.00
C1334  C     0.53521   0.81988   0.59287   0.00000  Uiso   1.00
C1335  C     0.46365   0.84932   0.95366   0.00000  Uiso   1.00
C1336  C     0.53591   0.82038   0.54607   0.00000  Uiso   1.00
C1337  C     0.49967   0.83565   0.97668   0.00000  Uiso   1.00
C1338  C     0.49978   0.83468   0.52336   0.00000  Uiso   1.00
C1339  C     0.53621   0.82477   0.95270   0.00000  Uiso   1.00
C1340  C     0.46337   0.84620   0.54752   0.00000  Uiso   1.00
C1341  C     0.42778   0.86324   0.97767   0.00000  Uiso   1.00
C1342  C     0.57213   0.80817   0.52176   0.00000  Uiso   1.00
Cu1343 Cu    0.50000   0.88022   0.75000   0.00000  Uiso   1.00
Cu1344 Cu    0.50000   0.78645   0.75000   0.00000  Uiso   1.00
H1345  H     0.56102   0.81068   0.88655   0.00000  Uiso   1.00
H1346  H     0.43915   0.85763   0.61465   0.00000  Uiso   1.00
H1347  H     0.43806   0.85745   0.88703   0.00000  Uiso   1.00
H1348  H     0.56208   0.81093   0.61198   0.00000  Uiso   1.00
H1349  H     0.37037   0.75751   0.74925   0.00000  Uiso   1.00
H1350  H     0.62963   0.90917   0.75087   0.00000  Uiso   1.00
H1351  H     0.62917   0.75757   0.74933   0.00000  Uiso   1.00
H1352  H     0.37083   0.90911   0.75077   0.00000  Uiso   1.00
H1353  H     0.45319   0.70990   0.70149   0.00000  Uiso   1.00
H1354  H     0.54681   0.95677   0.79851   0.00000  Uiso   1.00
H1355  H     0.54681   0.71042   0.79852   0.00000  Uiso   1.00
H1356  H     0.45319   0.95625   0.70147   0.00000  Uiso   1.00
N1357  N     0.50000   0.95069   0.75000   0.00000  Uiso   1.00
N1358  N     0.50000   0.71598   0.75000   0.00000  Uiso   1.00
O1359  O     0.43988   0.87291   0.74999   0.00000  Uiso   1.00
O1360  O     0.56012   0.79375   0.75000   0.00000  Uiso   1.00
O1361  O     0.56012   0.87291   0.75000   0.00000  Uiso   1.00
O1362  O     0.43988   0.79375   0.74999   0.00000  Uiso   1.00
O1363  O     0.49999   0.87293   0.68513   0.00000  Uiso   1.00
O1364  O     0.50001   0.79373   0.81487   0.00000  Uiso   1.00
O1365  O     0.50001   0.87293   0.81487   0.00000  Uiso   1.00
O1366  O     0.49999   0.79373   0.68513   0.00000  Uiso   1.00
C1367  C     0.39189   0.88571   0.95306   0.00000  Uiso   1.00
C1368  C     0.40297   0.93480   0.93640   0.00000  Uiso   1.00
H1369  H     0.41087   0.95774   0.96504   0.00000  Uiso   1.00
H1370  H     0.42936   0.93428   0.91277   0.00000  Uiso   1.00
H1371  H     0.37618   0.95010   0.91901   0.00000  Uiso   1.00
H1372  H     0.38184   0.86295   0.92521   0.00000  Uiso   1.00
H1373  H     0.36410   0.89019   0.97381   0.00000  Uiso   1.00
C1374  C     0.60710   0.78174   0.54447   0.00000  Uiso   1.00
C1375  C     0.59327   0.73301   0.55982   0.00000  Uiso   1.00
H1376  H     0.56818   0.73459   0.58500   0.00000  Uiso   1.00
H1377  H     0.58248   0.71226   0.53078   0.00000  Uiso   1.00
H1378  H     0.61963   0.71446   0.57499   0.00000  Uiso   1.00
H1379  H     0.63352   0.77480   0.52218   0.00000  Uiso   1.00
H1380  H     0.61948   0.80236   0.57278   0.00000  Uiso   1.00
C1381  C     0.38577   0.86029   0.55037   0.00000  Uiso   1.00
C1382  C     0.37657   0.90992   0.56671   0.00000  Uiso   1.00
H1383  H     0.40114   0.92260   0.58920   0.00000  Uiso   1.00
H1384  H     0.37414   0.93454   0.53832   0.00000  Uiso   1.00
H1385  H     0.34695   0.91004   0.58540   0.00000  Uiso   1.00
H1386  H     0.35997   0.84665   0.53021   0.00000  Uiso   1.00
H1387  H     0.38529   0.83581   0.57905   0.00000  Uiso   1.00
C1388  C     0.61457   0.82585   0.95071   0.00000  Uiso   1.00
C1389  C     0.61759   0.87575   0.93199   0.00000  Uiso   1.00
H1390  H     0.59137   0.88496   0.91046   0.00000  Uiso   1.00
H1391  H     0.61898   0.90143   0.95982   0.00000  Uiso   1.00
H1392  H     0.64579   0.87925   0.91124   0.00000  Uiso   1.00
H1393  H     0.64168   0.82266   0.97226   0.00000  Uiso   1.00
H1394  H     0.61862   0.79965   0.92366   0.00000  Uiso   1.00
C1395  C     0.75402   0.83329   0.74999   0.00000  Uiso   1.00
C1396  C     0.91265   0.83338   0.75004   0.00000  Uiso   1.00
C1397  C     0.75991   0.85767   0.52478   0.00000  Uiso   1.00
C1398  C     0.90703   0.81779   0.97540   0.00000  Uiso   1.00
C1399  C     0.68781   0.79078   0.74961   0.00000  Uiso   1.00
C1400  C     0.97885   0.87590   0.75050   0.00000  Uiso   1.00
C1401  C     0.97860   0.79083   0.74966   0.00000  Uiso   1.00
C1402  C     0.68807   0.87585   0.75045   0.00000  Uiso   1.00
C1403  C     0.95727   0.83339   0.75008   0.00000  Uiso   1.00
C1404  C     0.70940   0.83329   0.75001   0.00000  Uiso   1.00
C1405  C     0.80734   0.69132   0.72307   0.00000  Uiso   1.00
C1406  C     0.85932   0.97534   0.77693   0.00000  Uiso   1.00
C1407  C     0.85932   0.69161   0.77693   0.00000  Uiso   1.00
C1408  C     0.80734   0.97505   0.72306   0.00000  Uiso   1.00
C1409  C     0.83375   0.83329   0.66447   0.00000  Uiso   1.00
C1410  C     0.83286   0.83339   0.83553   0.00000  Uiso   1.00
C1411  C     0.86798   0.82163   0.90613   0.00000  Uiso   1.00
C1412  C     0.79824   0.84655   0.59429   0.00000  Uiso   1.00
C1413  C     0.83264   0.83373   0.88369   0.00000  Uiso   1.00
C1414  C     0.83354   0.83317   0.61630   0.00000  Uiso   1.00
C1415  C     0.79779   0.84827   0.90673   0.00000  Uiso   1.00
C1416  C     0.86854   0.81988   0.59287   0.00000  Uiso   1.00
C1417  C     0.79698   0.84932   0.95366   0.00000  Uiso   1.00
C1418  C     0.86924   0.82038   0.54607   0.00000  Uiso   1.00
C1419  C     0.83300   0.83565   0.97668   0.00000  Uiso   1.00
C1420  C     0.83311   0.83468   0.52336   0.00000  Uiso   1.00
C1421  C     0.86955   0.82477   0.95270   0.00000  Uiso   1.00
C1422  C     0.79671   0.84620   0.54752   0.00000  Uiso   1.00
C1423  C     0.76111   0.86324   0.97767   0.00000  Uiso   1.00
C1424  C     0.90547   0.80817   0.52176   0.00000  Uiso   1.00
Cu1425 Cu    0.83333   0.88022   0.75000   0.00000  Uiso   1.00
Cu1426 Cu    0.83333   0.78645   0.75000   0.00000  Uiso   1.00
H1427  H     0.89435   0.81068   0.88655   0.00000  Uiso   1.00
H1428  H     0.77248   0.85763   0.61465   0.00000  Uiso   1.00
H1429  H     0.77139   0.85745   0.88703   0.00000  Uiso   1.00
H1430  H     0.89541   0.81093   0.61198   0.00000  Uiso   1.00
H1431  H     0.70371   0.75751   0.74925   0.00000  Uiso   1.00
H1432  H     0.96296   0.90917   0.75087   0.00000  Uiso   1.00
H1433  H     0.96250   0.75757   0.74933   0.00000  Uiso   1.00
H1434  H     0.70416   0.90911   0.75077   0.00000  Uiso   1.00
H1435  H     0.78652   0.70990   0.70149   0.00000  Uiso   1.00
H1436  H     0.88014   0.95677   0.79851   0.00000  Uiso   1.00
H1437  H     0.88015   0.71042   0.79852   0.00000  Uiso   1.00
H1438  H     0.78653   0.95625   0.70147   0.00000  Uiso   1.00
N1439  N     0.83333   0.95069   0.75000   0.00000  Uiso   1.00
N1440  N     0.83333   0.71598   0.75000   0.00000  Uiso   1.00
O1441  O     0.77321   0.87291   0.74999   0.00000  Uiso   1.00
O1442  O     0.89345   0.79375   0.75000   0.00000  Uiso   1.00
O1443  O     0.89345   0.87291   0.75000   0.00000  Uiso   1.00
O1444  O     0.77321   0.79375   0.74999   0.00000  Uiso   1.00
O1445  O     0.83332   0.87293   0.68513   0.00000  Uiso   1.00
O1446  O     0.83334   0.79373   0.81487   0.00000  Uiso   1.00
O1447  O     0.83334   0.87293   0.81487   0.00000  Uiso   1.00
O1448  O     0.83332   0.79373   0.68513   0.00000  Uiso   1.00
C1449  C     0.72522   0.88571   0.95306   0.00000  Uiso   1.00
C1450  C     0.73630   0.93480   0.93640   0.00000  Uiso   1.00
H1451  H     0.74421   0.95774   0.96504   0.00000  Uiso   1.00
H1452  H     0.76270   0.93428   0.91277   0.00000  Uiso   1.00
H1453  H     0.70951   0.95010   0.91901   0.00000  Uiso   1.00
H1454  H     0.71517   0.86295   0.92521   0.00000  Uiso   1.00
H1455  H     0.69743   0.89019   0.97381   0.00000  Uiso   1.00
C1456  C     0.94043   0.78174   0.54447   0.00000  Uiso   1.00
C1457  C     0.92660   0.73301   0.55982   0.00000  Uiso   1.00
H1458  H     0.90151   0.73459   0.58500   0.00000  Uiso   1.00
H1459  H     0.91582   0.71226   0.53078   0.00000  Uiso   1.00
H1460  H     0.95296   0.71446   0.57499   0.00000  Uiso   1.00
H1461  H     0.96685   0.77480   0.52218   0.00000  Uiso   1.00
H1462  H     0.95281   0.80236   0.57278   0.00000  Uiso   1.00
C1463  C     0.71910   0.86029   0.55037   0.00000  Uiso   1.00
C1464  C     0.70990   0.90992   0.56671   0.00000  Uiso   1.00
H1465  H     0.73448   0.92260   0.58920   0.00000  Uiso   1.00
H1466  H     0.70748   0.93454   0.53832   0.00000  Uiso   1.00
H1467  H     0.68028   0.91004   0.58540   0.00000  Uiso   1.00
H1468  H     0.69331   0.84665   0.53021   0.00000  Uiso   1.00
H1469  H     0.71862   0.83581   0.57905   0.00000  Uiso   1.00
C1470  C     0.94790   0.82585   0.95071   0.00000  Uiso   1.00
C1471  C     0.95093   0.87575   0.93199   0.00000  Uiso   1.00
H1472  H     0.92471   0.88496   0.91046   0.00000  Uiso   1.00
H1473  H     0.95231   0.90143   0.95982   0.00000  Uiso   1.00
H1474  H     0.97912   0.87925   0.91124   0.00000  Uiso   1.00
H1475  H     0.97502   0.82266   0.97226   0.00000  Uiso   1.00
H1476  H     0.95195   0.79965   0.92366   0.00000  Uiso   1.00
loop_
_geom_bond_atom_site_label_1
_geom_bond_atom_site_label_2
_geom_bond_distance
_geom_bond_site_symmetry_2
_ccdc_geom_bond_type
C1     O50     1.292   .     A
C1     O47     1.291   .     A
C1     C10     1.451   .     S
C2     O48     1.291   .     A
C2     O49     1.292   .     A
C2     C9      1.451   .     S
C3     C28     1.422   .     A
C3     C69     1.529   .     S
C3     C767    1.422   1_554 S
C4     C27     1.417   .     A
C4     C76     1.533   .     S
C4     C768    1.418   .     S
C5     H37     1.083   .     S
C5     C10     1.401   .     A
C5     C171    1.384   1_455 S
C6     C9      1.401   .     A
C6     H38     1.083   .     S
C6     C90     1.384   .     S
C7     C9      1.402   .     A
C7     H39     1.083   .     S
C7     C87     1.384   .     S
C8     C10     1.402   .     A
C8     H40     1.083   .     S
C8     C170    1.384   1_455 S
C11    H41     1.082   .     S
C11    N46     1.367   .     A
C11    C506    1.417   1_545 S
C12    H42     1.082   .     S
C12    N45     1.367   .     A
C12    C259    1.417   .     S
C13    N46     1.367   .     A
C13    H43     1.082   .     S
C13    C504    1.417   1_545 S
C14    N45     1.367   .     A
C14    H44     1.082   .     S
C14    C257    1.417   .     S
C15    O51     1.290   .     A
C15    C20     1.444   .     S
C15    O54     1.289   .     A
C16    O53     1.289   .     A
C16    O52     1.290   .     A
C16    C19     1.444   .     S
C17    H33     1.082   .     S
C17    C27     1.400   .     A
C17    C19     1.382   .     A
C18    C28     1.403   .     A
C18    H34     1.080   .     S
C18    C20     1.385   .     A
C19    C21     1.387   .     A
C20    C22     1.386   .     A
C21    H35     1.080   .     S
C21    C23     1.407   .     A
C22    C24     1.403   .     A
C22    H36     1.081   .     S
C23    C29     1.423   .     A
C23    C25     1.421   .     A
C24    C26     1.425   .     A
C24    C30     1.424   .     A
C25    C27     1.419   .     A
C25    C764    1.400   .     S
C26    C28     1.422   .     A
C26    C763    1.400   1_554 S
C29    C55     1.530   .     S
C29    C741    1.422   .     S
C30    C62     1.532   .     S
C30    C742    1.418   1_554 S
Cu31   O47     1.966   .     S
Cu31   O49     1.968   .     S
Cu31   Cu32    2.678   .     S
Cu31   O53     1.956   .     S
Cu31   O51     1.956   .     S
Cu31   N45     2.013   .     S
Cu32   O52     1.956   .     S
Cu32   O48     1.966   .     S
Cu32   O54     1.956   .     S
Cu32   O50     1.968   .     S
Cu32   N46     2.013   .     S
C55    C56     1.530   .     S
C55    H60     1.108   .     S
C55    H61     1.101   .     S
C56    H57     1.111   .     S
C56    H59     1.111   .     S
C56    H58     1.108   .     S
C62    H67     1.102   .     S
C62    C63     1.532   .     S
C62    H68     1.110   .     S
C63    H65     1.111   .     S
C63    H66     1.111   .     S
C63    H64     1.108   .     S
C69    H74     1.108   .     S
C69    H75     1.109   .     S
C69    C70     1.529   .     S
C70    H71     1.110   .     S
C70    H73     1.110   .     S
C70    H72     1.109   .     S
C76    C77     1.535   .     S
C76    H82     1.110   .     S
C76    H81     1.102   .     S
C77    H78     1.107   .     S
C77    H79     1.111   .     S
C77    H80     1.108   .     S
C83    O132    1.292   .     A
C83    O129    1.291   .     A
C83    C92     1.451   .     S
C84    O130    1.291   .     A
C84    O131    1.292   .     A
C84    C91     1.451   .     S
C85    C110    1.422   .     A
C85    C151    1.529   .     S
C85    C849    1.422   1_554 S
C86    C109    1.417   .     A
C86    C158    1.533   .     S
C86    C850    1.418   .     S
C87    H119    1.083   .     S
C87    C92     1.401   .     A
C88    C91     1.401   .     A
C88    H120    1.083   .     S
C88    C172    1.384   .     S
C89    C91     1.402   .     A
C89    H121    1.083   .     S
C89    C169    1.384   .     S
C90    C92     1.402   .     A
C90    H122    1.083   .     S
C93    H123    1.082   .     S
C93    N128    1.367   .     A
C93    C588    1.417   1_545 S
C94    H124    1.082   .     S
C94    N127    1.367   .     A
C94    C341    1.417   .     S
C95    N128    1.367   .     A
C95    H125    1.082   .     S
C95    C586    1.417   1_545 S
C96    N127    1.367   .     A
C96    H126    1.082   .     S
C96    C339    1.417   .     S
C97    O133    1.290   .     A
C97    C102    1.444   .     S
C97    O136    1.289   .     A
C98    O135    1.289   .     A
C98    O134    1.290   .     A
C98    C101    1.444   .     S
C99    H115    1.082   .     S
C99    C109    1.400   .     A
C99    C101    1.382   .     A
C100   C110    1.403   .     A
C100   H116    1.080   .     S
C100   C102    1.385   .     A
C101   C103    1.387   .     A
C102   C104    1.386   .     A
C103   H117    1.080   .     S
C103   C105    1.407   .     A
C104   C106    1.403   .     A
C104   H118    1.081   .     S
C105   C111    1.423   .     A
C105   C107    1.421   .     A
C106   C108    1.425   .     A
C106   C112    1.424   .     A
C107   C109    1.419   .     A
C107   C846    1.400   .     S
C108   C110    1.422   .     A
C108   C845    1.400   1_554 S
C111   C137    1.530   .     S
C111   C823    1.422   .     S
C112   C144    1.532   .     S
C112   C824    1.418   1_554 S
Cu113  O129    1.966   .     S
Cu113  O131    1.968   .     S
Cu113  Cu114   2.678   .     S
Cu113  O135    1.956   .     S
Cu113  O133    1.956   .     S
Cu113  N127    2.013   .     S
Cu114  O134    1.956   .     S
Cu114  O130    1.966   .     S
Cu114  O136    1.956   .     S
Cu114  O132    1.968   .     S
Cu114  N128    2.013   .     S
C137   C138    1.530   .     S
C137   H142    1.108   .     S
C137   H143    1.101   .     S
C138   H139    1.111   .     S
C138   H141    1.111   .     S
C138   H140    1.108   .     S
C144   H149    1.102   .     S
C144   C145    1.532   .     S
C144   H150    1.110   .     S
C145   H147    1.111   .     S
C145   H148    1.111   .     S
C145   H146    1.108   .     S
C151   H156    1.108   .     S
C151   H157    1.109   .     S
C151   C152    1.529   .     S
C152   H153    1.110   .     S
C152   H155    1.110   .     S
C152   H154    1.109   .     S
C158   C159    1.535   .     S
C158   H164    1.110   .     S
C158   H163    1.102   .     S
C159   H160    1.107   .     S
C159   H161    1.111   .     S
C159   H162    1.108   .     S
C165   O214    1.292   .     A
C165   O211    1.291   .     A
C165   C174    1.451   .     S
C166   O212    1.291   .     A
C166   O213    1.292   .     A
C166   C173    1.451   .     S
C167   C192    1.422   .     A
C167   C233    1.529   .     S
C167   C931    1.422   1_554 S
C168   C191    1.417   .     A
C168   C240    1.533   .     S
C168   C932    1.418   .     S
C169   H201    1.083   .     S
C169   C174    1.401   .     A
C170   C173    1.401   .     A
C170   H202    1.083   .     S
C170   C8      1.384   1_655 S
C171   C173    1.402   .     A
C171   H203    1.083   .     S
C171   C5      1.384   1_655 S
C172   C174    1.402   .     A
C172   H204    1.083   .     S
C175   H205    1.082   .     S
C175   N210    1.367   .     A
C175   C670    1.417   1_545 S
C176   H206    1.082   .     S
C176   N209    1.367   .     A
C176   C423    1.417   .     S
C177   N210    1.367   .     A
C177   H207    1.082   .     S
C177   C668    1.417   1_545 S
C178   N209    1.367   .     A
C178   H208    1.082   .     S
C178   C421    1.417   .     S
C179   O215    1.290   .     A
C179   C184    1.444   .     S
C179   O218    1.289   .     A
C180   O217    1.289   .     A
C180   O216    1.290   .     A
C180   C183    1.444   .     S
C181   H197    1.082   .     S
C181   C191    1.400   .     A
C181   C183    1.382   .     A
C182   C192    1.403   .     A
C182   H198    1.080   .     S
C182   C184    1.385   .     A
C183   C185    1.387   .     A
C184   C186    1.386   .     A
C185   H199    1.080   .     S
C185   C187    1.407   .     A
C186   C188    1.403   .     A
C186   H200    1.081   .     S
C187   C193    1.423   .     A
C187   C189    1.421   .     A
C188   C190    1.425   .     A
C188   C194    1.424   .     A
C189   C191    1.419   .     A
C189   C928    1.400   .     S
C190   C192    1.422   .     A
C190   C927    1.400   1_554 S
C193   C219    1.530   .     S
C193   C905    1.422   .     S
C194   C226    1.532   .     S
C194   C906    1.418   1_554 S
Cu195  O211    1.966   .     S
Cu195  O213    1.968   .     S
Cu195  Cu196   2.678   .     S
Cu195  O217    1.956   .     S
Cu195  O215    1.956   .     S
Cu195  N209    2.013   .     S
Cu196  O216    1.956   .     S
Cu196  O212    1.966   .     S
Cu196  O218    1.956   .     S
Cu196  O214    1.968   .     S
Cu196  N210    2.013   .     S
C219   C220    1.530   .     S
C219   H224    1.108   .     S
C219   H225    1.101   .     S
C220   H221    1.111   .     S
C220   H223    1.111   .     S
C220   H222    1.108   .     S
C226   H231    1.102   .     S
C226   C227    1.532   .     S
C226   H232    1.110   .     S
C227   H229    1.111   .     S
C227   H230    1.111   .     S
C227   H228    1.108   .     S
C233   H238    1.108   .     S
C233   H239    1.109   .     S
C233   C234    1.529   .     S
C234   H235    1.110   .     S
C234   H237    1.110   .     S
C234   H236    1.109   .     S
C240   C241    1.535   .     S
C240   H246    1.110   .     S
C240   H245    1.102   .     S
C241   H242    1.107   .     S
C241   H243    1.111   .     S
C241   H244    1.108   .     S
C247   O296    1.292   .     A
C247   O293    1.291   .     A
C247   C256    1.451   .     S
C248   O294    1.291   .     A
C248   O295    1.292   .     A
C248   C255    1.451   .     S
C249   C274    1.422   .     A
C249   C315    1.529   .     S
C249   C1013   1.422   1_554 S
C250   C273    1.417   .     A
C250   C322    1.533   .     S
C250   C1014   1.418   .     S
C251   H283    1.083   .     S
C251   C256    1.401   .     A
C251   C417    1.384   1_455 S
C252   C255    1.401   .     A
C252   H284    1.083   .     S
C252   C336    1.384   .     S
C253   C255    1.402   .     A
C253   H285    1.083   .     S
C253   C333    1.384   .     S
C254   C256    1.402   .     A
C254   H286    1.083   .     S
C254   C416    1.384   1_455 S
C257   H287    1.082   .     S
C257   N292    1.367   .     A
C258   H288    1.082   .     S
C258   N291    1.367   .     A
C258   C505    1.417   .     S
C259   N292    1.367   .     A
C259   H289    1.082   .     S
C260   N291    1.367   .     A
C260   H290    1.082   .     S
C260   C503    1.417   .     S
C261   O297    1.290   .     A
C261   C266    1.444   .     S
C261   O300    1.289   .     A
C262   O299    1.289   .     A
C262   O298    1.290   .     A
C262   C265    1.444   .     S
C263   H279    1.082   .     S
C263   C273    1.400   .     A
C263   C265    1.382   .     A
C264   C274    1.403   .     A
C264   H280    1.080   .     S
C264   C266    1.385   .     A
C265   C267    1.387   .     A
C266   C268    1.386   .     A
C267   H281    1.080   .     S
C267   C269    1.407   .     A
C268   C270    1.403   .     A
C268   H282    1.081   .     S
C269   C275    1.423   .     A
C269   C271    1.421   .     A
C270   C272    1.425   .     A
C270   C276    1.424   .     A
C271   C273    1.419   .     A
C271   C1010   1.400   .     S
C272   C274    1.422   .     A
C272   C1009   1.400   1_554 S
C275   C301    1.530   .     S
C275   C987    1.422   .     S
C276   C308    1.532   .     S
C276   C988    1.418   1_554 S
Cu277  O293    1.966   .     S
Cu277  O295    1.968   .     S
Cu277  Cu278   2.678   .     S
Cu277  O299    1.956   .     S
Cu277  O297    1.956   .     S
Cu277  N291    2.013   .     S
Cu278  O298    1.956   .     S
Cu278  O294    1.966   .     S
Cu278  O300    1.956   .     S
Cu278  O296    1.968   .     S
Cu278  N292    2.013   .     S
C301   C302    1.530   .     S
C301   H306    1.108   .     S
C301   H307    1.101   .     S
C302   H303    1.111   .     S
C302   H305    1.111   .     S
C302   H304    1.108   .     S
C308   H313    1.102   .     S
C308   C309    1.532   .     S
C308   H314    1.110   .     S
C309   H311    1.111   .     S
C309   H312    1.111   .     S
C309   H310    1.108   .     S
C315   H320    1.108   .     S
C315   H321    1.109   .     S
C315   C316    1.529   .     S
C316   H317    1.110   .     S
C316   H319    1.110   .     S
C316   H318    1.109   .     S
C322   C323    1.535   .     S
C322   H328    1.110   .     S
C322   H327    1.102   .     S
C323   H324    1.107   .     S
C323   H325    1.111   .     S
C323   H326    1.108   .     S
C329   O378    1.292   .     A
C329   O375    1.291   .     A
C329   C338    1.451   .     S
C330   O376    1.291   .     A
C330   O377    1.292   .     A
C330   C337    1.451   .     S
C331   C356    1.422   .     A
C331   C397    1.529   .     S
C331   C1095   1.422   1_554 S
C332   C355    1.417   .     A
C332   C404    1.533   .     S
C332   C1096   1.418   .     S
C333   H365    1.083   .     S
C333   C338    1.401   .     A
C334   C337    1.401   .     A
C334   H366    1.083   .     S
C334   C418    1.384   .     S
C335   C337    1.402   .     A
C335   H367    1.083   .     S
C335   C415    1.384   .     S
C336   C338    1.402   .     A
C336   H368    1.083   .     S
C339   H369    1.082   .     S
C339   N374    1.367   .     A
C340   H370    1.082   .     S
C340   N373    1.367   .     A
C340   C587    1.417   .     S
C341   N374    1.367   .     A
C341   H371    1.082   .     S
C342   N373    1.367   .     A
C342   H372    1.082   .     S
C342   C585    1.417   .     S
C343   O379    1.290   .     A
C343   C348    1.444   .     S
C343   O382    1.289   .     A
C344   O381    1.289   .     A
C344   O380    1.290   .     A
C344   C347    1.444   .     S
C345   H361    1.082   .     S
C345   C355    1.400   .     A
C345   C347    1.382   .     A
C346   C356    1.403   .     A
C346   H362    1.080   .     S
C346   C348    1.385   .     A
C347   C349    1.387   .     A
C348   C350    1.386   .     A
C349   H363    1.080   .     S
C349   C351    1.407   .     A
C350   C352    1.403   .     A
C350   H364    1.081   .     S
C351   C357    1.423   .     A
C351   C353    1.421   .     A
C352   C354    1.425   .     A
C352   C358    1.424   .     A
C353   C355    1.419   .     A
C353   C1092   1.400   .     S
C354   C356    1.422   .     A
C354   C1091   1.400   1_554 S
C357   C383    1.530   .     S
C357   C1069   1.422   .     S
C358   C390    1.532   .     S
C358   C1070   1.418   1_554 S
Cu359  O375    1.966   .     S
Cu359  O377    1.968   .     S
Cu359  Cu360   2.678   .     S
Cu359  O381    1.956   .     S
Cu359  O379    1.956   .     S
Cu359  N373    2.013   .     S
Cu360  O380    1.956   .     S
Cu360  O376    1.966   .     S
Cu360  O382    1.956   .     S
Cu360  O378    1.968   .     S
Cu360  N374    2.013   .     S
C383   C384    1.530   .     S
C383   H388    1.108   .     S
C383   H389    1.101   .     S
C384   H385    1.111   .     S
C384   H387    1.111   .     S
C384   H386    1.108   .     S
C390   H395    1.102   .     S
C390   C391    1.532   .     S
C390   H396    1.110   .     S
C391   H393    1.111   .     S
C391   H394    1.111   .     S
C391   H392    1.108   .     S
C397   H402    1.108   .     S
C397   H403    1.109   .     S
C397   C398    1.529   .     S
C398   H399    1.110   .     S
C398   H401    1.110   .     S
C398   H400    1.109   .     S
C404   C405    1.535   .     S
C404   H410    1.110   .     S
C404   H409    1.102   .     S
C405   H406    1.107   .     S
C405   H407    1.111   .     S
C405   H408    1.108   .     S
C411   O460    1.292   .     A
C411   O457    1.291   .     A
C411   C420    1.451   .     S
C412   O458    1.291   .     A
C412   O459    1.292   .     A
C412   C419    1.451   .     S
C413   C438    1.422   .     A
C413   C479    1.529   .     S
C413   C1177   1.422   1_554 S
C414   C437    1.417   .     A
C414   C486    1.533   .     S
C414   C1178   1.418   .     S
C415   H447    1.083   .     S
C415   C420    1.401   .     A
C416   C419    1.401   .     A
C416   H448    1.083   .     S
C416   C254    1.384   1_655 S
C417   C419    1.402   .     A
C417   H449    1.083   .     S
C417   C251    1.384   1_655 S
C418   C420    1.402   .     A
C418   H450    1.083   .     S
C421   H451    1.082   .     S
C421   N456    1.367   .     A
C422   H452    1.082   .     S
C422   N455    1.367   .     A
C422   C669    1.417   .     S
C423   N456    1.367   .     A
C423   H453    1.082   .     S
C424   N455    1.367   .     A
C424   H454    1.082   .     S
C424   C667    1.417   .     S
C425   O461    1.290   .     A
C425   C430    1.444   .     S
C425   O464    1.289   .     A
C426   O463    1.289   .     A
C426   O462    1.290   .     A
C426   C429    1.444   .     S
C427   H443    1.082   .     S
C427   C437    1.400   .     A
C427   C429    1.382   .     A
C428   C438    1.403   .     A
C428   H444    1.080   .     S
C428   C430    1.385   .     A
C429   C431    1.387   .     A
C430   C432    1.386   .     A
C431   H445    1.080   .     S
C431   C433    1.407   .     A
C432   C434    1.403   .     A
C432   H446    1.081   .     S
C433   C439    1.423   .     A
C433   C435    1.421   .     A
C434   C436    1.425   .     A
C434   C440    1.424   .     A
C435   C437    1.419   .     A
C435   C1174   1.400   .     S
C436   C438    1.422   .     A
C436   C1173   1.400   1_554 S
C439   C465    1.530   .     S
C439   C1151   1.422   .     S
C440   C472    1.532   .     S
C440   C1152   1.418   1_554 S
Cu441  O457    1.966   .     S
Cu441  O459    1.968   .     S
Cu441  Cu442   2.678   .     S
Cu441  O463    1.956   .     S
Cu441  O461    1.956   .     S
Cu441  N455    2.013   .     S
Cu442  O462    1.956   .     S
Cu442  O458    1.966   .     S
Cu442  O464    1.956   .     S
Cu442  O460    1.968   .     S
Cu442  N456    2.013   .     S
C465   C466    1.530   .     S
C465   H470    1.108   .     S
C465   H471    1.101   .     S
C466   H467    1.111   .     S
C466   H469    1.111   .     S
C466   H468    1.108   .     S
C472   H477    1.102   .     S
C472   C473    1.532   .     S
C472   H478    1.110   .     S
C473   H475    1.111   .     S
C473   H476    1.111   .     S
C473   H474    1.108   .     S
C479   H484    1.108   .     S
C479   H485    1.109   .     S
C479   C480    1.529   .     S
C480   H481    1.110   .     S
C480   H483    1.110   .     S
C480   H482    1.109   .     S
C486   C487    1.535   .     S
C486   H492    1.110   .     S
C486   H491    1.102   .     S
C487   H488    1.107   .     S
C487   H489    1.111   .     S
C487   H490    1.108   .     S
C493   O542    1.292   .     A
C493   O539    1.291   .     A
C493   C502    1.451   .     S
C494   O540    1.291   .     A
C494   O541    1.292   .     A
C494   C501    1.451   .     S
C495   C520    1.422   .     A
C495   C561    1.529   .     S
C495   C1259   1.422   1_554 S
C496   C519    1.417   .     A
C496   C568    1.533   .     S
C496   C1260   1.418   .     S
C497   H529    1.083   .     S
C497   C502    1.401   .     A
C497   C663    1.384   1_455 S
C498   C501    1.401   .     A
C498   H530    1.083   .     S
C498   C582    1.384   .     S
C499   C501    1.402   .     A
C499   H531    1.083   .     S
C499   C579    1.384   .     S
C500   C502    1.402   .     A
C500   H532    1.083   .     S
C500   C662    1.384   1_455 S
C503   H533    1.082   .     S
C503   N538    1.367   .     A
C504   H534    1.082   .     S
C504   N537    1.367   .     A
C504   C13     1.417   1_565 S
C505   N538    1.367   .     A
C505   H535    1.082   .     S
C506   N537    1.367   .     A
C506   H536    1.082   .     S
C506   C11     1.417   1_565 S
C507   O543    1.290   .     A
C507   C512    1.444   .     S
C507   O546    1.289   .     A
C508   O545    1.289   .     A
C508   O544    1.290   .     A
C508   C511    1.444   .     S
C509   H525    1.082   .     S
C509   C519    1.400   .     A
C509   C511    1.382   .     A
C510   C520    1.403   .     A
C510   H526    1.080   .     S
C510   C512    1.385   .     A
C511   C513    1.387   .     A
C512   C514    1.386   .     A
C513   H527    1.080   .     S
C513   C515    1.407   .     A
C514   C516    1.403   .     A
C514   H528    1.081   .     S
C515   C521    1.423   .     A
C515   C517    1.421   .     A
C516   C518    1.425   .     A
C516   C522    1.424   .     A
C517   C519    1.419   .     A
C517   C1256   1.400   .     S
C518   C520    1.422   .     A
C518   C1255   1.400   1_554 S
C521   C547    1.530   .     S
C521   C1233   1.422   .     S
C522   C554    1.532   .     S
C522   C1234   1.418   1_554 S
Cu523  O539    1.966   .     S
Cu523  O541    1.968   .     S
Cu523  Cu524   2.678   .     S
Cu523  O545    1.956   .     S
Cu523  O543    1.956   .     S
Cu523  N537    2.013   .     S
Cu524  O544    1.956   .     S
Cu524  O540    1.966   .     S
Cu524  O546    1.956   .     S
Cu524  O542    1.968   .     S
Cu524  N538    2.013   .     S
C547   C548    1.530   .     S
C547   H552    1.108   .     S
C547   H553    1.101   .     S
C548   H549    1.111   .     S
C548   H551    1.111   .     S
C548   H550    1.108   .     S
C554   H559    1.102   .     S
C554   C555    1.532   .     S
C554   H560    1.110   .     S
C555   H557    1.111   .     S
C555   H558    1.111   .     S
C555   H556    1.108   .     S
C561   H566    1.108   .     S
C561   H567    1.109   .     S
C561   C562    1.529   .     S
C562   H563    1.110   .     S
C562   H565    1.110   .     S
C562   H564    1.109   .     S
C568   C569    1.535   .     S
C568   H574    1.110   .     S
C568   H573    1.102   .     S
C569   H570    1.107   .     S
C569   H571    1.111   .     S
C569   H572    1.108   .     S
C575   O624    1.292   .     A
C575   O621    1.291   .     A
C575   C584    1.451   .     S
C576   O622    1.291   .     A
C576   O623    1.292   .     A
C576   C583    1.451   .     S
C577   C602    1.422   .     A
C577   C643    1.529   .     S
C577   C1341   1.422   1_554 S
C578   C601    1.417   .     A
C578   C650    1.533   .     S
C578   C1342   1.418   .     S
C579   H611    1.083   .     S
C579   C584    1.401   .     A
C580   C583    1.401   .     A
C580   H612    1.083   .     S
C580   C664    1.384   .     S
C581   C583    1.402   .     A
C581   H613    1.083   .     S
C581   C661    1.384   .     S
C582   C584    1.402   .     A
C582   H614    1.083   .     S
C585   H615    1.082   .     S
C585   N620    1.367   .     A
C586   H616    1.082   .     S
C586   N619    1.367   .     A
C586   C95     1.417   1_565 S
C587   N620    1.367   .     A
C587   H617    1.082   .     S
C588   N619    1.367   .     A
C588   H618    1.082   .     S
C588   C93     1.417   1_565 S
C589   O625    1.290   .     A
C589   C594    1.444   .     S
C589   O628    1.289   .     A
C590   O627    1.289   .     A
C590   O626    1.290   .     A
C590   C593    1.444   .     S
C591   H607    1.082   .     S
C591   C601    1.400   .     A
C591   C593    1.382   .     A
C592   C602    1.403   .     A
C592   H608    1.080   .     S
C592   C594    1.385   .     A
C593   C595    1.387   .     A
C594   C596    1.386   .     A
C595   H609    1.080   .     S
C595   C597    1.407   .     A
C596   C598    1.403   .     A
C596   H610    1.081   .     S
C597   C603    1.423   .     A
C597   C599    1.421   .     A
C598   C600    1.425   .     A
C598   C604    1.424   .     A
C599   C601    1.419   .     A
C599   C1338   1.400   .     S
C600   C602    1.422   .     A
C600   C1337   1.400   1_554 S
C603   C629    1.530   .     S
C603   C1315   1.422   .     S
C604   C636    1.532   .     S
C604   C1316   1.418   1_554 S
Cu605  O621    1.966   .     S
Cu605  O623    1.968   .     S
Cu605  Cu606   2.678   .     S
Cu605  O627    1.956   .     S
Cu605  O625    1.956   .     S
Cu605  N619    2.013   .     S
Cu606  O626    1.956   .     S
Cu606  O622    1.966   .     S
Cu606  O628    1.956   .     S
Cu606  O624    1.968   .     S
Cu606  N620    2.013   .     S
C629   C630    1.530   .     S
C629   H634    1.108   .     S
C629   H635    1.101   .     S
C630   H631    1.111   .     S
C630   H633    1.111   .     S
C630   H632    1.108   .     S
C636   H641    1.102   .     S
C636   C637    1.532   .     S
C636   H642    1.110   .     S
C637   H639    1.111   .     S
C637   H640    1.111   .     S
C637   H638    1.108   .     S
C643   H648    1.108   .     S
C643   H649    1.109   .     S
C643   C644    1.529   .     S
C644   H645    1.110   .     S
C644   H647    1.110   .     S
C644   H646    1.109   .     S
C650   C651    1.535   .     S
C650   H656    1.110   .     S
C650   H655    1.102   .     S
C651   H652    1.107   .     S
C651   H653    1.111   .     S
C651   H654    1.108   .     S
C657   O706    1.292   .     A
C657   O703    1.291   .     A
C657   C666    1.451   .     S
C658   O704    1.291   .     A
C658   O705    1.292   .     A
C658   C665    1.451   .     S
C659   C684    1.422   .     A
C659   C725    1.529   .     S
C659   C1423   1.422   1_554 S
C660   C683    1.417   .     A
C660   C732    1.533   .     S
C660   C1424   1.418   .     S
C661   H693    1.083   .     S
C661   C666    1.401   .     A
C662   C665    1.401   .     A
C662   H694    1.083   .     S
C662   C500    1.384   1_655 S
C663   C665    1.402   .     A
C663   H695    1.083   .     S
C663   C497    1.384   1_655 S
C664   C666    1.402   .     A
C664   H696    1.083   .     S
C667   H697    1.082   .     S
C667   N702    1.367   .     A
C668   H698    1.082   .     S
C668   N701    1.367   .     A
C668   C177    1.417   1_565 S
C669   N702    1.367   .     A
C669   H699    1.082   .     S
C670   N701    1.367   .     A
C670   H700    1.082   .     S
C670   C175    1.417   1_565 S
C671   O707    1.290   .     A
C671   C676    1.444   .     S
C671   O710    1.289   .     A
C672   O709    1.289   .     A
C672   O708    1.290   .     A
C672   C675    1.444   .     S
C673   H689    1.082   .     S
C673   C683    1.400   .     A
C673   C675    1.382   .     A
C674   C684    1.403   .     A
C674   H690    1.080   .     S
C674   C676    1.385   .     A
C675   C677    1.387   .     A
C676   C678    1.386   .     A
C677   H691    1.080   .     S
C677   C679    1.407   .     A
C678   C680    1.403   .     A
C678   H692    1.081   .     S
C679   C685    1.423   .     A
C679   C681    1.421   .     A
C680   C682    1.425   .     A
C680   C686    1.424   .     A
C681   C683    1.419   .     A
C681   C1420   1.400   .     S
C682   C684    1.422   .     A
C682   C1419   1.400   1_554 S
C685   C711    1.530   .     S
C685   C1397   1.422   .     S
C686   C718    1.532   .     S
C686   C1398   1.418   1_554 S
Cu687  O703    1.966   .     S
Cu687  O705    1.968   .     S
Cu687  Cu688   2.678   .     S
Cu687  O709    1.956   .     S
Cu687  O707    1.956   .     S
Cu687  N701    2.013   .     S
Cu688  O708    1.956   .     S
Cu688  O704    1.966   .     S
Cu688  O710    1.956   .     S
Cu688  O706    1.968   .     S
Cu688  N702    2.013   .     S
C711   C712    1.530   .     S
C711   H716    1.108   .     S
C711   H717    1.101   .     S
C712   H713    1.111   .     S
C712   H715    1.111   .     S
C712   H714    1.108   .     S
C718   H723    1.102   .     S
C718   C719    1.532   .     S
C718   H724    1.110   .     S
C719   H721    1.111   .     S
C719   H722    1.111   .     S
C719   H720    1.108   .     S
C725   H730    1.108   .     S
C725   H731    1.109   .     S
C725   C726    1.529   .     S
C726   H727    1.110   .     S
C726   H729    1.110   .     S
C726   H728    1.109   .     S
C732   C733    1.535   .     S
C732   H738    1.110   .     S
C732   H737    1.102   .     S
C733   H734    1.107   .     S
C733   H735    1.111   .     S
C733   H736    1.108   .     S
C739   O788    1.292   .     A
C739   O785    1.291   .     A
C739   C748    1.451   .     S
C740   O786    1.291   .     A
C740   O787    1.292   .     A
C740   C747    1.451   .     S
C741   C766    1.422   .     A
C741   C807    1.529   .     S
C742   C765    1.417   .     A
C742   C814    1.533   .     S
C742   C30     1.418   1_556 S
C743   H775    1.083   .     S
C743   C748    1.401   .     A
C743   C909    1.384   1_455 S
C744   C747    1.401   .     A
C744   H776    1.083   .     S
C744   C828    1.384   .     S
C745   C747    1.402   .     A
C745   H777    1.083   .     S
C745   C825    1.384   .     S
C746   C748    1.402   .     A
C746   H778    1.083   .     S
C746   C908    1.384   1_455 S
C749   H779    1.082   .     S
C749   N784    1.367   .     A
C749   C1244   1.417   1_545 S
C750   H780    1.082   .     S
C750   N783    1.367   .     A
C750   C997    1.417   .     S
C751   N784    1.367   .     A
C751   H781    1.082   .     S
C751   C1242   1.417   1_545 S
C752   N783    1.367   .     A
C752   H782    1.082   .     S
C752   C995    1.417   .     S
C753   O789    1.290   .     A
C753   C758    1.444   .     S
C753   O792    1.289   .     A
C754   O791    1.289   .     A
C754   O790    1.290   .     A
C754   C757    1.444   .     S
C755   H771    1.082   .     S
C755   C765    1.400   .     A
C755   C757    1.382   .     A
C756   C766    1.403   .     A
C756   H772    1.080   .     S
C756   C758    1.385   .     A
C757   C759    1.387   .     A
C758   C760    1.386   .     A
C759   H773    1.080   .     S
C759   C761    1.407   .     A
C760   C762    1.403   .     A
C760   H774    1.081   .     S
C761   C767    1.423   .     A
C761   C763    1.421   .     A
C762   C764    1.425   .     A
C762   C768    1.424   .     A
C763   C765    1.419   .     A
C763   C26     1.400   1_556 S
C764   C766    1.422   .     A
C767   C793    1.530   .     S
C767   C3      1.422   1_556 S
C768   C800    1.532   .     S
Cu769  O785    1.966   .     S
Cu769  O787    1.968   .     S
Cu769  Cu770   2.678   .     S
Cu769  O791    1.956   .     S
Cu769  O789    1.956   .     S
Cu769  N783    2.013   .     S
Cu770  O790    1.956   .     S
Cu770  O786    1.966   .     S
Cu770  O792    1.956   .     S
Cu770  O788    1.968   .     S
Cu770  N784    2.013   .     S
C793   C794    1.530   .     S
C793   H798    1.108   .     S
C793   H799    1.101   .     S
C794   H795    1.111   .     S
C794   H797    1.111   .     S
C794   H796    1.108   .     S
C800   H805    1.102   .     S
C800   C801    1.532   .     S
C800   H806    1.110   .     S
C801   H803    1.111   .     S
C801   H804    1.111   .     S
C801   H802    1.108   .     S
C807   H812    1.108   .     S
C807   H813    1.109   .     S
C807   C808    1.529   .     S
C808   H809    1.110   .     S
C808   H811    1.110   .     S
C808   H810    1.109   .     S
C814   C815    1.535   .     S
C814   H820    1.110   .     S
C814   H819    1.102   .     S
C815   H816    1.107   .     S
C815   H817    1.111   .     S
C815   H818    1.108   .     S
C821   O870    1.292   .     A
C821   O867    1.291   .     A
C821   C830    1.451   .     S
C822   O868    1.291   .     A
C822   O869    1.292   .     A
C822   C829    1.451   .     S
C823   C848    1.422   .     A
C823   C889    1.529   .     S
C824   C847    1.417   .     A
C824   C896    1.533   .     S
C824   C112    1.418   1_556 S
C825   H857    1.083   .     S
C825   C830    1.401   .     A
C826   C829    1.401   .     A
C826   H858    1.083   .     S
C826   C910    1.384   .     S
C827   C829    1.402   .     A
C827   H859    1.083   .     S
C827   C907    1.384   .     S
C828   C830    1.402   .     A
C828   H860    1.083   .     S
C831   H861    1.082   .     S
C831   N866    1.367   .     A
C831   C1326   1.417   1_545 S
C832   H862    1.082   .     S
C832   N865    1.367   .     A
C832   C1079   1.417   .     S
C833   N866    1.367   .     A
C833   H863    1.082   .     S
C833   C1324   1.417   1_545 S
C834   N865    1.367   .     A
C834   H864    1.082   .     S
C834   C1077   1.417   .     S
C835   O871    1.290   .     A
C835   C840    1.444   .     S
C835   O874    1.289   .     A
C836   O873    1.289   .     A
C836   O872    1.290   .     A
C836   C839    1.444   .     S
C837   H853    1.082   .     S
C837   C847    1.400   .     A
C837   C839    1.382   .     A
C838   C848    1.403   .     A
C838   H854    1.080   .     S
C838   C840    1.385   .     A
C839   C841    1.387   .     A
C840   C842    1.386   .     A
C841   H855    1.080   .     S
C841   C843    1.407   .     A
C842   C844    1.403   .     A
C842   H856    1.081   .     S
C843   C849    1.423   .     A
C843   C845    1.421   .     A
C844   C846    1.425   .     A
C844   C850    1.424   .     A
C845   C847    1.419   .     A
C845   C108    1.400   1_556 S
C846   C848    1.422   .     A
C849   C875    1.530   .     S
C849   C85     1.422   1_556 S
C850   C882    1.532   .     S
Cu851  O867    1.966   .     S
Cu851  O869    1.968   .     S
Cu851  Cu852   2.678   .     S
Cu851  O873    1.956   .     S
Cu851  O871    1.956   .     S
Cu851  N865    2.013   .     S
Cu852  O872    1.956   .     S
Cu852  O868    1.966   .     S
Cu852  O874    1.956   .     S
Cu852  O870    1.968   .     S
Cu852  N866    2.013   .     S
C875   C876    1.530   .     S
C875   H880    1.108   .     S
C875   H881    1.101   .     S
C876   H877    1.111   .     S
C876   H879    1.111   .     S
C876   H878    1.108   .     S
C882   H887    1.102   .     S
C882   C883    1.532   .     S
C882   H888    1.110   .     S
C883   H885    1.111   .     S
C883   H886    1.111   .     S
C883   H884    1.108   .     S
C889   H894    1.108   .     S
C889   H895    1.109   .     S
C889   C890    1.529   .     S
C890   H891    1.110   .     S
C890   H893    1.110   .     S
C890   H892    1.109   .     S
C896   C897    1.535   .     S
C896   H902    1.110   .     S
C896   H901    1.102   .     S
C897   H898    1.107   .     S
C897   H899    1.111   .     S
C897   H900    1.108   .     S
C903   O952    1.292   .     A
C903   O949    1.291   .     A
C903   C912    1.451   .     S
C904   O950    1.291   .     A
C904   O951    1.292   .     A
C904   C911    1.451   .     S
C905   C930    1.422   .     A
C905   C971    1.529   .     S
C906   C929    1.417   .     A
C906   C978    1.533   .     S
C906   C194    1.418   1_556 S
C907   H939    1.083   .     S
C907   C912    1.401   .     A
C908   C911    1.401   .     A
C908   H940    1.083   .     S
C908   C746    1.384   1_655 S
C909   C911    1.402   .     A
C909   H941    1.083   .     S
C909   C743    1.384   1_655 S
C910   C912    1.402   .     A
C910   H942    1.083   .     S
C913   H943    1.082   .     S
C913   N948    1.367   .     A
C913   C1408   1.417   1_545 S
C914   H944    1.082   .     S
C914   N947    1.367   .     A
C914   C1161   1.417   .     S
C915   N948    1.367   .     A
C915   H945    1.082   .     S
C915   C1406   1.417   1_545 S
C916   N947    1.367   .     A
C916   H946    1.082   .     S
C916   C1159   1.417   .     S
C917   O953    1.290   .     A
C917   C922    1.444   .     S
C917   O956    1.289   .     A
C918   O955    1.289   .     A
C918   O954    1.290   .     A
C918   C921    1.444   .     S
C919   H935    1.082   .     S
C919   C929    1.400   .     A
C919   C921    1.382   .     A
C920   C930    1.403   .     A
C920   H936    1.080   .     S
C920   C922    1.385   .     A
C921   C923    1.387   .     A
C922   C924    1.386   .     A
C923   H937    1.080   .     S
C923   C925    1.407   .     A
C924   C926    1.403   .     A
C924   H938    1.081   .     S
C925   C931    1.423   .     A
C925   C927    1.421   .     A
C926   C928    1.425   .     A
C926   C932    1.424   .     A
C927   C929    1.419   .     A
C927   C190    1.400   1_556 S
C928   C930    1.422   .     A
C931   C957    1.530   .     S
C931   C167    1.422   1_556 S
C932   C964    1.532   .     S
Cu933  O949    1.966   .     S
Cu933  O951    1.968   .     S
Cu933  Cu934   2.678   .     S
Cu933  O955    1.956   .     S
Cu933  O953    1.956   .     S
Cu933  N947    2.013   .     S
Cu934  O954    1.956   .     S
Cu934  O950    1.966   .     S
Cu934  O956    1.956   .     S
Cu934  O952    1.968   .     S
Cu934  N948    2.013   .     S
C957   C958    1.530   .     S
C957   H962    1.108   .     S
C957   H963    1.101   .     S
C958   H959    1.111   .     S
C958   H961    1.111   .     S
C958   H960    1.108   .     S
C964   H969    1.102   .     S
C964   C965    1.532   .     S
C964   H970    1.110   .     S
C965   H967    1.111   .     S
C965   H968    1.111   .     S
C965   H966    1.108   .     S
C971   H976    1.108   .     S
C971   H977    1.109   .     S
C971   C972    1.529   .     S
C972   H973    1.110   .     S
C972   H975    1.110   .     S
C972   H974    1.109   .     S
C978   C979    1.535   .     S
C978   H984    1.110   .     S
C978   H983    1.102   .     S
C979   H980    1.107   .     S
C979   H981    1.111   .     S
C979   H982    1.108   .     S
C985   O1034   1.292   .     A
C985   O1031   1.291   .     A
C985   C994    1.451   .     S
C986   O1032   1.291   .     A
C986   O1033   1.292   .     A
C986   C993    1.451   .     S
C987   C1012   1.422   .     A
C987   C1053   1.529   .     S
C988   C1011   1.417   .     A
C988   C1060   1.533   .     S
C988   C276    1.418   1_556 S
C989   H1021   1.083   .     S
C989   C994    1.401   .     A
C989   C1155   1.384   1_455 S
C990   C993    1.401   .     A
C990   H1022   1.083   .     S
C990   C1074   1.384   .     S
C991   C993    1.402   .     A
C991   H1023   1.083   .     S
C991   C1071   1.384   .     S
C992   C994    1.402   .     A
C992   H1024   1.083   .     S
C992   C1154   1.384   1_455 S
C995   H1025   1.082   .     S
C995   N1030   1.367   .     A
C996   H1026   1.082   .     S
C996   N1029   1.367   .     A
C996   C1243   1.417   .     S
C997   N1030   1.367   .     A
C997   H1027   1.082   .     S
C998   N1029   1.367   .     A
C998   H1028   1.082   .     S
C998   C1241   1.417   .     S
C999   O1035   1.290   .     A
C999   C1004   1.444   .     S
C999   O1038   1.289   .     A
C1000  O1037   1.289   .     A
C1000  O1036   1.290   .     A
C1000  C1003   1.444   .     S
C1001  H1017   1.082   .     S
C1001  C1011   1.400   .     A
C1001  C1003   1.382   .     A
C1002  C1012   1.403   .     A
C1002  H1018   1.080   .     S
C1002  C1004   1.385   .     A
C1003  C1005   1.387   .     A
C1004  C1006   1.386   .     A
C1005  H1019   1.080   .     S
C1005  C1007   1.407   .     A
C1006  C1008   1.403   .     A
C1006  H1020   1.081   .     S
C1007  C1013   1.423   .     A
C1007  C1009   1.421   .     A
C1008  C1010   1.425   .     A
C1008  C1014   1.424   .     A
C1009  C1011   1.419   .     A
C1009  C272    1.400   1_556 S
C1010  C1012   1.422   .     A
C1013  C1039   1.530   .     S
C1013  C249    1.422   1_556 S
C1014  C1046   1.532   .     S
Cu1015 O1031   1.966   .     S
Cu1015 O1033   1.968   .     S
Cu1015 Cu1016  2.678   .     S
Cu1015 O1037   1.956   .     S
Cu1015 O1035   1.956   .     S
Cu1015 N1029   2.013   .     S
Cu1016 O1036   1.956   .     S
Cu1016 O1032   1.966   .     S
Cu1016 O1038   1.956   .     S
Cu1016 O1034   1.968   .     S
Cu1016 N1030   2.013   .     S
C1039  C1040   1.530   .     S
C1039  H1044   1.108   .     S
C1039  H1045   1.101   .     S
C1040  H1041   1.111   .     S
C1040  H1043   1.111   .     S
C1040  H1042   1.108   .     S
C1046  H1051   1.102   .     S
C1046  C1047   1.532   .     S
C1046  H1052   1.110   .     S
C1047  H1049   1.111   .     S
C1047  H1050   1.111   .     S
C1047  H1048   1.108   .     S
C1053  H1058   1.108   .     S
C1053  H1059   1.109   .     S
C1053  C1054   1.529   .     S
C1054  H1055   1.110   .     S
C1054  H1057   1.110   .     S
C1054  H1056   1.109   .     S
C1060  C1061   1.535   .     S
C1060  H1066   1.110   .     S
C1060  H1065   1.102   .     S
C1061  H1062   1.107   .     S
C1061  H1063   1.111   .     S
C1061  H1064   1.108   .     S
C1067  O1116   1.292   .     A
C1067  O1113   1.291   .     A
C1067  C1076   1.451   .     S
C1068  O1114   1.291   .     A
C1068  O1115   1.292   .     A
C1068  C1075   1.451   .     S
C1069  C1094   1.422   .     A
C1069  C1135   1.529   .     S
C1070  C1093   1.417   .     A
C1070  C1142   1.533   .     S
C1070  C358    1.418   1_556 S
C1071  H1103   1.083   .     S
C1071  C1076   1.401   .     A
C1072  C1075   1.401   .     A
C1072  H1104   1.083   .     S
C1072  C1156   1.384   .     S
C1073  C1075   1.402   .     A
C1073  H1105   1.083   .     S
C1073  C1153   1.384   .     S
C1074  C1076   1.402   .     A
C1074  H1106   1.083   .     S
C1077  H1107   1.082   .     S
C1077  N1112   1.367   .     A
C1078  H1108   1.082   .     S
C1078  N1111   1.367   .     A
C1078  C1325   1.417   .     S
C1079  N1112   1.367   .     A
C1079  H1109   1.082   .     S
C1080  N1111   1.367   .     A
C1080  H1110   1.082   .     S
C1080  C1323   1.417   .     S
C1081  O1117   1.290   .     A
C1081  C1086   1.444   .     S
C1081  O1120   1.289   .     A
C1082  O1119   1.289   .     A
C1082  O1118   1.290   .     A
C1082  C1085   1.444   .     S
C1083  H1099   1.082   .     S
C1083  C1093   1.400   .     A
C1083  C1085   1.382   .     A
C1084  C1094   1.403   .     A
C1084  H1100   1.080   .     S
C1084  C1086   1.385   .     A
C1085  C1087   1.387   .     A
C1086  C1088   1.386   .     A
C1087  H1101   1.080   .     S
C1087  C1089   1.407   .     A
C1088  C1090   1.403   .     A
C1088  H1102   1.081   .     S
C1089  C1095   1.423   .     A
C1089  C1091   1.421   .     A
C1090  C1092   1.425   .     A
C1090  C1096   1.424   .     A
C1091  C1093   1.419   .     A
C1091  C354    1.400   1_556 S
C1092  C1094   1.422   .     A
C1095  C1121   1.530   .     S
C1095  C331    1.422   1_556 S
C1096  C1128   1.532   .     S
Cu1097 O1113   1.966   .     S
Cu1097 O1115   1.968   .     S
Cu1097 Cu1098  2.678   .     S
Cu1097 O1119   1.956   .     S
Cu1097 O1117   1.956   .     S
Cu1097 N1111   2.013   .     S
Cu1098 O1118   1.956   .     S
Cu1098 O1114   1.966   .     S
Cu1098 O1120   1.956   .     S
Cu1098 O1116   1.968   .     S
Cu1098 N1112   2.013   .     S
C1121  C1122   1.530   .     S
C1121  H1126   1.108   .     S
C1121  H1127   1.101   .     S
C1122  H1123   1.111   .     S
C1122  H1125   1.111   .     S
C1122  H1124   1.108   .     S
C1128  H1133   1.102   .     S
C1128  C1129   1.532   .     S
C1128  H1134   1.110   .     S
C1129  H1131   1.111   .     S
C1129  H1132   1.111   .     S
C1129  H1130   1.108   .     S
C1135  H1140   1.108   .     S
C1135  H1141   1.109   .     S
C1135  C1136   1.529   .     S
C1136  H1137   1.110   .     S
C1136  H1139   1.110   .     S
C1136  H1138   1.109   .     S
C1142  C1143   1.535   .     S
C1142  H1148   1.110   .     S
C1142  H1147   1.102   .     S
C1143  H1144   1.107   .     S
C1143  H1145   1.111   .     S
C1143  H1146   1.108   .     S
C1149  O1198   1.292   .     A
C1149  O1195   1.291   .     A
C1149  C1158   1.451   .     S
C1150  O1196   1.291   .     A
C1150  O1197   1.292   .     A
C1150  C1157   1.451   .     S
C1151  C1176   1.422   .     A
C1151  C1217   1.529   .     S
C1152  C1175   1.417   .     A
C1152  C1224   1.533   .     S
C1152  C440    1.418   1_556 S
C1153  H1185   1.083   .     S
C1153  C1158   1.401   .     A
C1154  C1157   1.401   .     A
C1154  H1186   1.083   .     S
C1154  C992    1.384   1_655 S
C1155  C1157   1.402   .     A
C1155  H1187   1.083   .     S
C1155  C989    1.384   1_655 S
C1156  C1158   1.402   .     A
C1156  H1188   1.083   .     S
C1159  H1189   1.082   .     S
C1159  N1194   1.367   .     A
C1160  H1190   1.082   .     S
C1160  N1193   1.367   .     A
C1160  C1407   1.417   .     S
C1161  N1194   1.367   .     A
C1161  H1191   1.082   .     S
C1162  N1193   1.367   .     A
C1162  H1192   1.082   .     S
C1162  C1405   1.417   .     S
C1163  O1199   1.290   .     A
C1163  C1168   1.444   .     S
C1163  O1202   1.289   .     A
C1164  O1201   1.289   .     A
C1164  O1200   1.290   .     A
C1164  C1167   1.444   .     S
C1165  H1181   1.082   .     S
C1165  C1175   1.400   .     A
C1165  C1167   1.382   .     A
C1166  C1176   1.403   .     A
C1166  H1182   1.080   .     S
C1166  C1168   1.385   .     A
C1167  C1169   1.387   .     A
C1168  C1170   1.386   .     A
C1169  H1183   1.080   .     S
C1169  C1171   1.407   .     A
C1170  C1172   1.403   .     A
C1170  H1184   1.081   .     S
C1171  C1177   1.423   .     A
C1171  C1173   1.421   .     A
C1172  C1174   1.425   .     A
C1172  C1178   1.424   .     A
C1173  C1175   1.419   .     A
C1173  C436    1.400   1_556 S
C1174  C1176   1.422   .     A
C1177  C1203   1.530   .     S
C1177  C413    1.422   1_556 S
C1178  C1210   1.532   .     S
Cu1179 O1195   1.966   .     S
Cu1179 O1197   1.968   .     S
Cu1179 Cu1180  2.678   .     S
Cu1179 O1201   1.956   .     S
Cu1179 O1199   1.956   .     S
Cu1179 N1193   2.013   .     S
Cu1180 O1200   1.956   .     S
Cu1180 O1196   1.966   .     S
Cu1180 O1202   1.956   .     S
Cu1180 O1198   1.968   .     S
Cu1180 N1194   2.013   .     S
C1203  C1204   1.530   .     S
C1203  H1208   1.108   .     S
C1203  H1209   1.101   .     S
C1204  H1205   1.111   .     S
C1204  H1207   1.111   .     S
C1204  H1206   1.108   .     S
C1210  H1215   1.102   .     S
C1210  C1211   1.532   .     S
C1210  H1216   1.110   .     S
C1211  H1213   1.111   .     S
C1211  H1214   1.111   .     S
C1211  H1212   1.108   .     S
C1217  H1222   1.108   .     S
C1217  H1223   1.109   .     S
C1217  C1218   1.529   .     S
C1218  H1219   1.110   .     S
C1218  H1221   1.110   .     S
C1218  H1220   1.109   .     S
C1224  C1225   1.535   .     S
C1224  H1230   1.110   .     S
C1224  H1229   1.102   .     S
C1225  H1226   1.107   .     S
C1225  H1227   1.111   .     S
C1225  H1228   1.108   .     S
C1231  O1280   1.292   .     A
C1231  O1277   1.291   .     A
C1231  C1240   1.451   .     S
C1232  O1278   1.291   .     A
C1232  O1279   1.292   .     A
C1232  C1239   1.451   .     S
C1233  C1258   1.422   .     A
C1233  C1299   1.529   .     S
C1234  C1257   1.417   .     A
C1234  C1306   1.533   .     S
C1234  C522    1.418   1_556 S
C1235  H1267   1.083   .     S
C1235  C1240   1.401   .     A
C1235  C1401   1.384   1_455 S
C1236  C1239   1.401   .     A
C1236  H1268   1.083   .     S
C1236  C1320   1.384   .     S
C1237  C1239   1.402   .     A
C1237  H1269   1.083   .     S
C1237  C1317   1.384   .     S
C1238  C1240   1.402   .     A
C1238  H1270   1.083   .     S
C1238  C1400   1.384   1_455 S
C1241  H1271   1.082   .     S
C1241  N1276   1.367   .     A
C1242  H1272   1.082   .     S
C1242  N1275   1.367   .     A
C1242  C751    1.417   1_565 S
C1243  N1276   1.367   .     A
C1243  H1273   1.082   .     S
C1244  N1275   1.367   .     A
C1244  H1274   1.082   .     S
C1244  C749    1.417   1_565 S
C1245  O1281   1.290   .     A
C1245  C1250   1.444   .     S
C1245  O1284   1.289   .     A
C1246  O1283   1.289   .     A
C1246  O1282   1.290   .     A
C1246  C1249   1.444   .     S
C1247  H1263   1.082   .     S
C1247  C1257   1.400   .     A
C1247  C1249   1.382   .     A
C1248  C1258   1.403   .     A
C1248  H1264   1.080   .     S
C1248  C1250   1.385   .     A
C1249  C1251   1.387   .     A
C1250  C1252   1.386   .     A
C1251  H1265   1.080   .     S
C1251  C1253   1.407   .     A
C1252  C1254   1.403   .     A
C1252  H1266   1.081   .     S
C1253  C1259   1.423   .     A
C1253  C1255   1.421   .     A
C1254  C1256   1.425   .     A
C1254  C1260   1.424   .     A
C1255  C1257   1.419   .     A
C1255  C518    1.400   1_556 S
C1256  C1258   1.422   .     A
C1259  C1285   1.530   .     S
C1259  C495    1.422   1_556 S
C1260  C1292   1.532   .     S
Cu1261 O1277   1.966   .     S
Cu1261 O1279   1.968   .     S
Cu1261 Cu1262  2.678   .     S
Cu1261 O1283   1.956   .     S
Cu1261 O1281   1.956   .     S
Cu1261 N1275   2.013   .     S
Cu1262 O1282   1.956   .     S
Cu1262 O1278   1.966   .     S
Cu1262 O1284   1.956   .     S
Cu1262 O1280   1.968   .     S
Cu1262 N1276   2.013   .     S
C1285  C1286   1.530   .     S
C1285  H1290   1.108   .     S
C1285  H1291   1.101   .     S
C1286  H1287   1.111   .     S
C1286  H1289   1.111   .     S
C1286  H1288   1.108   .     S
C1292  H1297   1.102   .     S
C1292  C1293   1.532   .     S
C1292  H1298   1.110   .     S
C1293  H1295   1.111   .     S
C1293  H1296   1.111   .     S
C1293  H1294   1.108   .     S
C1299  H1304   1.108   .     S
C1299  H1305   1.109   .     S
C1299  C1300   1.529   .     S
C1300  H1301   1.110   .     S
C1300  H1303   1.110   .     S
C1300  H1302   1.109   .     S
C1306  C1307   1.535   .     S
C1306  H1312   1.110   .     S
C1306  H1311   1.102   .     S
C1307  H1308   1.107   .     S
C1307  H1309   1.111   .     S
C1307  H1310   1.108   .     S
C1313  O1362   1.292   .     A
C1313  O1359   1.291   .     A
C1313  C1322   1.451   .     S
C1314  O1360   1.291   .     A
C1314  O1361   1.292   .     A
C1314  C1321   1.451   .     S
C1315  C1340   1.422   .     A
C1315  C1381   1.529   .     S
C1316  C1339   1.417   .     A
C1316  C1388   1.533   .     S
C1316  C604    1.418   1_556 S
C1317  H1349   1.083   .     S
C1317  C1322   1.401   .     A
C1318  C1321   1.401   .     A
C1318  H1350   1.083   .     S
C1318  C1402   1.384   .     S
C1319  C1321   1.402   .     A
C1319  H1351   1.083   .     S
C1319  C1399   1.384   .     S
C1320  C1322   1.402   .     A
C1320  H1352   1.083   .     S
C1323  H1353   1.082   .     S
C1323  N1358   1.367   .     A
C1324  H1354   1.082   .     S
C1324  N1357   1.367   .     A
C1324  C833    1.417   1_565 S
C1325  N1358   1.367   .     A
C1325  H1355   1.082   .     S
C1326  N1357   1.367   .     A
C1326  H1356   1.082   .     S
C1326  C831    1.417   1_565 S
C1327  O1363   1.290   .     A
C1327  C1332   1.444   .     S
C1327  O1366   1.289   .     A
C1328  O1365   1.289   .     A
C1328  O1364   1.290   .     A
C1328  C1331   1.444   .     S
C1329  H1345   1.082   .     S
C1329  C1339   1.400   .     A
C1329  C1331   1.382   .     A
C1330  C1340   1.403   .     A
C1330  H1346   1.080   .     S
C1330  C1332   1.385   .     A
C1331  C1333   1.387   .     A
C1332  C1334   1.386   .     A
C1333  H1347   1.080   .     S
C1333  C1335   1.407   .     A
C1334  C1336   1.403   .     A
C1334  H1348   1.081   .     S
C1335  C1341   1.423   .     A
C1335  C1337   1.421   .     A
C1336  C1338   1.425   .     A
C1336  C1342   1.424   .     A
C1337  C1339   1.419   .     A
C1337  C600    1.400   1_556 S
C1338  C1340   1.422   .     A
C1341  C1367   1.530   .     S
C1341  C577    1.422   1_556 S
C1342  C1374   1.532   .     S
Cu1343 O1359   1.966   .     S
Cu1343 O1361   1.968   .     S
Cu1343 Cu1344  2.678   .     S
Cu1343 O1365   1.956   .     S
Cu1343 O1363   1.956   .     S
Cu1343 N1357   2.013   .     S
Cu1344 O1364   1.956   .     S
Cu1344 O1360   1.966   .     S
Cu1344 O1366   1.956   .     S
Cu1344 O1362   1.968   .     S
Cu1344 N1358   2.013   .     S
C1367  C1368   1.530   .     S
C1367  H1372   1.108   .     S
C1367  H1373   1.101   .     S
C1368  H1369   1.111   .     S
C1368  H1371   1.111   .     S
C1368  H1370   1.108   .     S
C1374  H1379   1.102   .     S
C1374  C1375   1.532   .     S
C1374  H1380   1.110   .     S
C1375  H1377   1.111   .     S
C1375  H1378   1.111   .     S
C1375  H1376   1.108   .     S
C1381  H1386   1.108   .     S
C1381  H1387   1.109   .     S
C1381  C1382   1.529   .     S
C1382  H1383   1.110   .     S
C1382  H1385   1.110   .     S
C1382  H1384   1.109   .     S
C1388  C1389   1.535   .     S
C1388  H1394   1.110   .     S
C1388  H1393   1.102   .     S
C1389  H1390   1.107   .     S
C1389  H1391   1.111   .     S
C1389  H1392   1.108   .     S
C1395  O1444   1.292   .     A
C1395  O1441   1.291   .     A
C1395  C1404   1.451   .     S
C1396  O1442   1.291   .     A
C1396  O1443   1.292   .     A
C1396  C1403   1.451   .     S
C1397  C1422   1.422   .     A
C1397  C1463   1.529   .     S
C1398  C1421   1.417   .     A
C1398  C1470   1.533   .     S
C1398  C686    1.418   1_556 S
C1399  H1431   1.083   .     S
C1399  C1404   1.401   .     A
C1400  C1403   1.401   .     A
C1400  H1432   1.083   .     S
C1400  C1238   1.384   1_655 S
C1401  C1403   1.402   .     A
C1401  H1433   1.083   .     S
C1401  C1235   1.384   1_655 S
C1402  C1404   1.402   .     A
C1402  H1434   1.083   .     S
C1405  H1435   1.082   .     S
C1405  N1440   1.367   .     A
C1406  H1436   1.082   .     S
C1406  N1439   1.367   .     A
C1406  C915    1.417   1_565 S
C1407  N1440   1.367   .     A
C1407  H1437   1.082   .     S
C1408  N1439   1.367   .     A
C1408  H1438   1.082   .     S
C1408  C913    1.417   1_565 S
C1409  O1445   1.290   .     A
C1409  C1414   1.444   .     S
C1409  O1448   1.289   .     A
C1410  O1447   1.289   .     A
C1410  O1446   1.290   .     A
C1410  C1413   1.444   .     S
C1411  H1427   1.082   .     S
C1411  C1421   1.400   .     A
C1411  C1413   1.382   .     A
C1412  C1422   1.403   .     A
C1412  H1428   1.080   .     S
C1412  C1414   1.385   .     A
C1413  C1415   1.387   .     A
C1414  C1416   1.386   .     A
C1415  H1429   1.080   .     S
C1415  C1417   1.407   .     A
C1416  C1418   1.403   .     A
C1416  H1430   1.081   .     S
C1417  C1423   1.423   .     A
C1417  C1419   1.421   .     A
C1418  C1420   1.425   .     A
C1418  C1424   1.424   .     A
C1419  C1421   1.419   .     A
C1419  C682    1.400   1_556 S
C1420  C1422   1.422   .     A
C1423  C1449   1.530   .     S
C1423  C659    1.422   1_556 S
C1424  C1456   1.532   .     S
Cu1425 O1441   1.966   .     S
Cu1425 O1443   1.968   .     S
Cu1425 Cu1426  2.678   .     S
Cu1425 O1447   1.956   .     S
Cu1425 O1445   1.956   .     S
Cu1425 N1439   2.013   .     S
Cu1426 O1446   1.956   .     S
Cu1426 O1442   1.966   .     S
Cu1426 O1448   1.956   .     S
Cu1426 O1444   1.968   .     S
Cu1426 N1440   2.013   .     S
C1449  C1450   1.530   .     S
C1449  H1454   1.108   .     S
C1449  H1455   1.101   .     S
C1450  H1451   1.111   .     S
C1450  H1453   1.111   .     S
C1450  H1452   1.108   .     S
C1456  H1461   1.102   .     S
C1456  C1457   1.532   .     S
C1456  H1462   1.110   .     S
C1457  H1459   1.111   .     S
C1457  H1460   1.111   .     S
C1457  H1458   1.108   .     S
C1463  H1468   1.108   .     S
C1463  H1469   1.109   .     S
C1463  C1464   1.529   .     S
C1464  H1465   1.110   .     S
C1464  H1467   1.110   .     S
C1464  H1466   1.109   .     S
C1470  C1471   1.535   .     S
C1470  H1476   1.110   .     S
C1470  H1475   1.102   .     S
C1471  H1472   1.107   .     S
C1471  H1473   1.111   .     S
C1471  H1474   1.108   .     S
