data_str_m2_o10_o17_pcu_sym.60
_audit_creation_date              2020-01-03
_audit_creation_method            'Materials Studio'
_symmetry_space_group_name_H-M    'P1'
_symmetry_Int_Tables_number       1
_symmetry_cell_setting            triclinic
loop_
_symmetry_equiv_pos_as_xyz
  x,y,z
_cell_length_a                    29.9768
_cell_length_b                    26.0373
_cell_length_c                    22.5954
_cell_angle_alpha                 103.1387
_cell_angle_beta                  94.6918
_cell_angle_gamma                 92.6144
loop_
_atom_site_label
_atom_site_type_symbol
_atom_site_fract_x
_atom_site_fract_y
_atom_site_fract_z
_atom_site_U_iso_or_equiv
_atom_site_adp_type
_atom_site_occupancy
C1     C     0.24787   0.06664   0.15112   0.00000  Uiso   1.00
C2     C     0.09151   0.12064   0.15647   0.00000  Uiso   1.00
C3     C     0.38335   0.16453   0.16468   0.00000  Uiso   1.00
C4     C     0.11665   0.16880   0.16866   0.00000  Uiso   1.00
C5     C     0.40405   0.11627   0.15306   0.00000  Uiso   1.00
C6     C     0.09595   0.21706   0.18027   0.00000  Uiso   1.00
C7     C     0.45105   0.11681   0.15337   0.00000  Uiso   1.00
C8     C     0.04895   0.21652   0.17997   0.00000  Uiso   1.00
C9     C     0.47647   0.16597   0.16608   0.00000  Uiso   1.00
C10    C     0.02353   0.16736   0.16725   0.00000  Uiso   1.00
C11    C     0.45493   0.21382   0.17781   0.00000  Uiso   1.00
C12    C     0.25213   0.26669   0.18222   0.00000  Uiso   1.00
C13    C     0.04507   0.11951   0.15552   0.00000  Uiso   1.00
C14    C     0.47344   0.06971   0.14157   0.00000  Uiso   1.00
C15    C     0.02656   0.26362   0.19177   0.00000  Uiso   1.00
C16    C     0.01992   0.07113   0.14268   0.00000  Uiso   1.00
C17    C     0.48008   0.26220   0.19065   0.00000  Uiso   1.00
C18    C     0.24634   0.01051   0.14263   0.00000  Uiso   1.00
C19    C     0.25366   0.32283   0.19070   0.00000  Uiso   1.00
C20    C     0.16472   0.16756   0.16734   0.00000  Uiso   1.00
C21    C     0.33528   0.16577   0.16599   0.00000  Uiso   1.00
C22    C     0.40849   0.21269   0.17687   0.00000  Uiso   1.00
Cu23   Cu    0.25501   0.17246   0.22813   0.00000  Uiso   1.00
Cu24   Cu    0.24500   0.16087   0.10521   0.00000  Uiso   1.00
H25    H     0.39168   0.24935   0.18595   0.00000  Uiso   1.00
H26    H     0.10832   0.08398   0.14738   0.00000  Uiso   1.00
H27    H     0.45563   0.03130   0.13112   0.00000  Uiso   1.00
H28    H     0.04437   0.30204   0.20221   0.00000  Uiso   1.00
H29    H     0.03624   0.03423   0.13327   0.00000  Uiso   1.00
H30    H     0.46376   0.29910   0.20007   0.00000  Uiso   1.00
H31    H     0.23947   0.31973   0.09642   0.00000  Uiso   1.00
H32    H     0.26053   0.01360   0.23691   0.00000  Uiso   1.00
I33    I     0.36387   0.04372   0.13739   0.00000  Uiso   1.00
I34    I     0.13613   0.28961   0.19594   0.00000  Uiso   1.00
I35    I     0.18669   0.09688   0.30054   0.00000  Uiso   1.00
I36    I     0.31331   0.23645   0.03279   0.00000  Uiso   1.00
N37    N     0.23745   0.15214   0.01284   0.00000  Uiso   1.00
N38    N     0.26256   0.18119   0.32049   0.00000  Uiso   1.00
O39    O     0.25326   0.09538   0.20659   0.00000  Uiso   1.00
O40    O     0.24675   0.23796   0.12674   0.00000  Uiso   1.00
O41    O     0.24480   0.08559   0.10279   0.00000  Uiso   1.00
O42    O     0.25520   0.24774   0.23055   0.00000  Uiso   1.00
O43    O     0.18936   0.17155   0.21857   0.00000  Uiso   1.00
O44    O     0.31065   0.16179   0.11476   0.00000  Uiso   1.00
O45    O     0.18090   0.16176   0.11477   0.00000  Uiso   1.00
O46    O     0.31910   0.17157   0.21857   0.00000  Uiso   1.00
C47    C     0.74787   0.06664   0.15112   0.00000  Uiso   1.00
C48    C     0.59151   0.12064   0.15647   0.00000  Uiso   1.00
C49    C     0.88335   0.16453   0.16468   0.00000  Uiso   1.00
C50    C     0.61665   0.16880   0.16866   0.00000  Uiso   1.00
C51    C     0.90405   0.11627   0.15306   0.00000  Uiso   1.00
C52    C     0.59595   0.21706   0.18027   0.00000  Uiso   1.00
C53    C     0.95105   0.11681   0.15337   0.00000  Uiso   1.00
C54    C     0.54895   0.21652   0.17997   0.00000  Uiso   1.00
C55    C     0.97647   0.16597   0.16608   0.00000  Uiso   1.00
C56    C     0.52353   0.16736   0.16725   0.00000  Uiso   1.00
C57    C     0.95493   0.21382   0.17781   0.00000  Uiso   1.00
C58    C     0.75213   0.26669   0.18222   0.00000  Uiso   1.00
C59    C     0.54507   0.11951   0.15552   0.00000  Uiso   1.00
C60    C     0.97344   0.06971   0.14157   0.00000  Uiso   1.00
C61    C     0.52656   0.26362   0.19177   0.00000  Uiso   1.00
C62    C     0.51992   0.07113   0.14268   0.00000  Uiso   1.00
C63    C     0.98008   0.26220   0.19065   0.00000  Uiso   1.00
C64    C     0.74634   0.01051   0.14263   0.00000  Uiso   1.00
C65    C     0.75366   0.32283   0.19070   0.00000  Uiso   1.00
C66    C     0.66472   0.16756   0.16734   0.00000  Uiso   1.00
C67    C     0.83528   0.16577   0.16599   0.00000  Uiso   1.00
C68    C     0.90849   0.21269   0.17687   0.00000  Uiso   1.00
Cu69   Cu    0.75501   0.17246   0.22813   0.00000  Uiso   1.00
Cu70   Cu    0.74500   0.16087   0.10521   0.00000  Uiso   1.00
H71    H     0.89168   0.24935   0.18595   0.00000  Uiso   1.00
H72    H     0.60832   0.08398   0.14738   0.00000  Uiso   1.00
H73    H     0.95563   0.03130   0.13112   0.00000  Uiso   1.00
H74    H     0.54437   0.30204   0.20221   0.00000  Uiso   1.00
H75    H     0.53624   0.03423   0.13327   0.00000  Uiso   1.00
H76    H     0.96376   0.29910   0.20007   0.00000  Uiso   1.00
H77    H     0.73947   0.31973   0.09642   0.00000  Uiso   1.00
H78    H     0.76053   0.01360   0.23691   0.00000  Uiso   1.00
I79    I     0.86387   0.04372   0.13739   0.00000  Uiso   1.00
I80    I     0.63613   0.28961   0.19594   0.00000  Uiso   1.00
I81    I     0.68669   0.09688   0.30054   0.00000  Uiso   1.00
I82    I     0.81331   0.23645   0.03279   0.00000  Uiso   1.00
N83    N     0.73745   0.15214   0.01284   0.00000  Uiso   1.00
N84    N     0.76256   0.18119   0.32049   0.00000  Uiso   1.00
O85    O     0.75326   0.09538   0.20659   0.00000  Uiso   1.00
O86    O     0.74675   0.23796   0.12674   0.00000  Uiso   1.00
O87    O     0.74480   0.08559   0.10279   0.00000  Uiso   1.00
O88    O     0.75520   0.24774   0.23055   0.00000  Uiso   1.00
O89    O     0.68936   0.17155   0.21857   0.00000  Uiso   1.00
O90    O     0.81065   0.16179   0.11476   0.00000  Uiso   1.00
O91    O     0.68090   0.16176   0.11477   0.00000  Uiso   1.00
O92    O     0.81910   0.17157   0.21857   0.00000  Uiso   1.00
C93    C     0.24787   0.39998   0.15112   0.00000  Uiso   1.00
C94    C     0.09151   0.45398   0.15647   0.00000  Uiso   1.00
C95    C     0.38335   0.49786   0.16468   0.00000  Uiso   1.00
C96    C     0.11665   0.50214   0.16866   0.00000  Uiso   1.00
C97    C     0.40405   0.44961   0.15306   0.00000  Uiso   1.00
C98    C     0.09595   0.55039   0.18027   0.00000  Uiso   1.00
C99    C     0.45105   0.45014   0.15337   0.00000  Uiso   1.00
C100   C     0.04895   0.54986   0.17997   0.00000  Uiso   1.00
C101   C     0.47647   0.49930   0.16608   0.00000  Uiso   1.00
C102   C     0.02353   0.50070   0.16725   0.00000  Uiso   1.00
C103   C     0.45493   0.54715   0.17781   0.00000  Uiso   1.00
C104   C     0.25213   0.60002   0.18222   0.00000  Uiso   1.00
C105   C     0.04507   0.45285   0.15552   0.00000  Uiso   1.00
C106   C     0.47344   0.40305   0.14157   0.00000  Uiso   1.00
C107   C     0.02656   0.59695   0.19177   0.00000  Uiso   1.00
C108   C     0.01992   0.40447   0.14268   0.00000  Uiso   1.00
C109   C     0.48008   0.59553   0.19065   0.00000  Uiso   1.00
C110   C     0.24634   0.34384   0.14263   0.00000  Uiso   1.00
C111   C     0.25366   0.65616   0.19070   0.00000  Uiso   1.00
C112   C     0.16472   0.50089   0.16734   0.00000  Uiso   1.00
C113   C     0.33528   0.49911   0.16599   0.00000  Uiso   1.00
C114   C     0.40849   0.54602   0.17687   0.00000  Uiso   1.00
Cu115  Cu    0.25501   0.50579   0.22813   0.00000  Uiso   1.00
Cu116  Cu    0.24500   0.49421   0.10521   0.00000  Uiso   1.00
H117   H     0.39168   0.58268   0.18595   0.00000  Uiso   1.00
H118   H     0.10832   0.41732   0.14738   0.00000  Uiso   1.00
H119   H     0.45563   0.36463   0.13112   0.00000  Uiso   1.00
H120   H     0.04437   0.63537   0.20221   0.00000  Uiso   1.00
H121   H     0.03624   0.36756   0.13327   0.00000  Uiso   1.00
H122   H     0.46376   0.63244   0.20007   0.00000  Uiso   1.00
H123   H     0.23947   0.65306   0.09642   0.00000  Uiso   1.00
H124   H     0.26053   0.34694   0.23691   0.00000  Uiso   1.00
I125   I     0.36387   0.37706   0.13739   0.00000  Uiso   1.00
I126   I     0.13613   0.62294   0.19594   0.00000  Uiso   1.00
I127   I     0.18669   0.43021   0.30054   0.00000  Uiso   1.00
I128   I     0.31331   0.56979   0.03279   0.00000  Uiso   1.00
N129   N     0.23745   0.48547   0.01284   0.00000  Uiso   1.00
N130   N     0.26256   0.51453   0.32049   0.00000  Uiso   1.00
O131   O     0.25326   0.42871   0.20659   0.00000  Uiso   1.00
O132   O     0.24675   0.57129   0.12674   0.00000  Uiso   1.00
O133   O     0.24480   0.41892   0.10279   0.00000  Uiso   1.00
O134   O     0.25520   0.58108   0.23055   0.00000  Uiso   1.00
O135   O     0.18936   0.50488   0.21857   0.00000  Uiso   1.00
O136   O     0.31065   0.49512   0.11476   0.00000  Uiso   1.00
O137   O     0.18090   0.49510   0.11477   0.00000  Uiso   1.00
O138   O     0.31910   0.50490   0.21857   0.00000  Uiso   1.00
C139   C     0.74787   0.39998   0.15112   0.00000  Uiso   1.00
C140   C     0.59151   0.45398   0.15647   0.00000  Uiso   1.00
C141   C     0.88335   0.49786   0.16468   0.00000  Uiso   1.00
C142   C     0.61665   0.50214   0.16866   0.00000  Uiso   1.00
C143   C     0.90405   0.44961   0.15306   0.00000  Uiso   1.00
C144   C     0.59595   0.55039   0.18027   0.00000  Uiso   1.00
C145   C     0.95105   0.45014   0.15337   0.00000  Uiso   1.00
C146   C     0.54895   0.54986   0.17997   0.00000  Uiso   1.00
C147   C     0.97647   0.49930   0.16608   0.00000  Uiso   1.00
C148   C     0.52353   0.50070   0.16725   0.00000  Uiso   1.00
C149   C     0.95493   0.54715   0.17781   0.00000  Uiso   1.00
C150   C     0.75213   0.60002   0.18222   0.00000  Uiso   1.00
C151   C     0.54507   0.45285   0.15552   0.00000  Uiso   1.00
C152   C     0.97344   0.40305   0.14157   0.00000  Uiso   1.00
C153   C     0.52656   0.59695   0.19177   0.00000  Uiso   1.00
C154   C     0.51992   0.40447   0.14268   0.00000  Uiso   1.00
C155   C     0.98008   0.59553   0.19065   0.00000  Uiso   1.00
C156   C     0.74634   0.34384   0.14263   0.00000  Uiso   1.00
C157   C     0.75366   0.65616   0.19070   0.00000  Uiso   1.00
C158   C     0.66472   0.50089   0.16734   0.00000  Uiso   1.00
C159   C     0.83528   0.49911   0.16599   0.00000  Uiso   1.00
C160   C     0.90849   0.54602   0.17687   0.00000  Uiso   1.00
Cu161  Cu    0.75501   0.50579   0.22813   0.00000  Uiso   1.00
Cu162  Cu    0.74500   0.49421   0.10521   0.00000  Uiso   1.00
H163   H     0.89168   0.58268   0.18595   0.00000  Uiso   1.00
H164   H     0.60832   0.41732   0.14738   0.00000  Uiso   1.00
H165   H     0.95563   0.36463   0.13112   0.00000  Uiso   1.00
H166   H     0.54437   0.63537   0.20221   0.00000  Uiso   1.00
H167   H     0.53624   0.36756   0.13327   0.00000  Uiso   1.00
H168   H     0.96376   0.63244   0.20007   0.00000  Uiso   1.00
H169   H     0.73947   0.65306   0.09642   0.00000  Uiso   1.00
H170   H     0.76053   0.34694   0.23691   0.00000  Uiso   1.00
I171   I     0.86387   0.37706   0.13739   0.00000  Uiso   1.00
I172   I     0.63613   0.62294   0.19594   0.00000  Uiso   1.00
I173   I     0.68669   0.43021   0.30054   0.00000  Uiso   1.00
I174   I     0.81331   0.56979   0.03279   0.00000  Uiso   1.00
N175   N     0.73745   0.48547   0.01284   0.00000  Uiso   1.00
N176   N     0.76256   0.51453   0.32049   0.00000  Uiso   1.00
O177   O     0.75326   0.42871   0.20659   0.00000  Uiso   1.00
O178   O     0.74675   0.57129   0.12674   0.00000  Uiso   1.00
O179   O     0.74480   0.41892   0.10279   0.00000  Uiso   1.00
O180   O     0.75520   0.58108   0.23055   0.00000  Uiso   1.00
O181   O     0.68936   0.50488   0.21857   0.00000  Uiso   1.00
O182   O     0.81065   0.49512   0.11476   0.00000  Uiso   1.00
O183   O     0.68090   0.49510   0.11477   0.00000  Uiso   1.00
O184   O     0.81910   0.50490   0.21857   0.00000  Uiso   1.00
C185   C     0.24787   0.73331   0.15112   0.00000  Uiso   1.00
C186   C     0.09151   0.78731   0.15647   0.00000  Uiso   1.00
C187   C     0.38335   0.83120   0.16468   0.00000  Uiso   1.00
C188   C     0.11665   0.83547   0.16866   0.00000  Uiso   1.00
C189   C     0.40405   0.78294   0.15306   0.00000  Uiso   1.00
C190   C     0.09595   0.88373   0.18027   0.00000  Uiso   1.00
C191   C     0.45105   0.78348   0.15337   0.00000  Uiso   1.00
C192   C     0.04895   0.88319   0.17997   0.00000  Uiso   1.00
C193   C     0.47647   0.83264   0.16608   0.00000  Uiso   1.00
C194   C     0.02353   0.83403   0.16725   0.00000  Uiso   1.00
C195   C     0.45493   0.88049   0.17781   0.00000  Uiso   1.00
C196   C     0.25213   0.93336   0.18222   0.00000  Uiso   1.00
C197   C     0.04507   0.78618   0.15552   0.00000  Uiso   1.00
C198   C     0.47344   0.73638   0.14157   0.00000  Uiso   1.00
C199   C     0.02656   0.93029   0.19177   0.00000  Uiso   1.00
C200   C     0.01992   0.73780   0.14268   0.00000  Uiso   1.00
C201   C     0.48008   0.92887   0.19065   0.00000  Uiso   1.00
C202   C     0.24634   0.67717   0.14263   0.00000  Uiso   1.00
C203   C     0.25366   0.98949   0.19070   0.00000  Uiso   1.00
C204   C     0.16472   0.83423   0.16734   0.00000  Uiso   1.00
C205   C     0.33528   0.83244   0.16599   0.00000  Uiso   1.00
C206   C     0.40849   0.87936   0.17687   0.00000  Uiso   1.00
Cu207  Cu    0.25501   0.83913   0.22813   0.00000  Uiso   1.00
Cu208  Cu    0.24500   0.82754   0.10521   0.00000  Uiso   1.00
H209   H     0.39168   0.91602   0.18595   0.00000  Uiso   1.00
H210   H     0.10832   0.75065   0.14738   0.00000  Uiso   1.00
H211   H     0.45563   0.69796   0.13112   0.00000  Uiso   1.00
H212   H     0.04437   0.96870   0.20221   0.00000  Uiso   1.00
H213   H     0.03624   0.70090   0.13327   0.00000  Uiso   1.00
H214   H     0.46376   0.96577   0.20007   0.00000  Uiso   1.00
H215   H     0.23947   0.98640   0.09642   0.00000  Uiso   1.00
H216   H     0.26053   0.68027   0.23691   0.00000  Uiso   1.00
I217   I     0.36387   0.71039   0.13739   0.00000  Uiso   1.00
I218   I     0.13613   0.95628   0.19594   0.00000  Uiso   1.00
I219   I     0.18669   0.76354   0.30054   0.00000  Uiso   1.00
I220   I     0.31331   0.90312   0.03279   0.00000  Uiso   1.00
N221   N     0.23745   0.81881   0.01284   0.00000  Uiso   1.00
N222   N     0.26256   0.84786   0.32049   0.00000  Uiso   1.00
O223   O     0.25326   0.76204   0.20659   0.00000  Uiso   1.00
O224   O     0.24675   0.90462   0.12674   0.00000  Uiso   1.00
O225   O     0.24480   0.75226   0.10279   0.00000  Uiso   1.00
O226   O     0.25520   0.91441   0.23055   0.00000  Uiso   1.00
O227   O     0.18936   0.83821   0.21857   0.00000  Uiso   1.00
O228   O     0.31065   0.82845   0.11476   0.00000  Uiso   1.00
O229   O     0.18090   0.82843   0.11477   0.00000  Uiso   1.00
O230   O     0.31910   0.83824   0.21857   0.00000  Uiso   1.00
C231   C     0.74787   0.73331   0.15112   0.00000  Uiso   1.00
C232   C     0.59151   0.78731   0.15647   0.00000  Uiso   1.00
C233   C     0.88335   0.83120   0.16468   0.00000  Uiso   1.00
C234   C     0.61665   0.83547   0.16866   0.00000  Uiso   1.00
C235   C     0.90405   0.78294   0.15306   0.00000  Uiso   1.00
C236   C     0.59595   0.88373   0.18027   0.00000  Uiso   1.00
C237   C     0.95105   0.78348   0.15337   0.00000  Uiso   1.00
C238   C     0.54895   0.88319   0.17997   0.00000  Uiso   1.00
C239   C     0.97647   0.83264   0.16608   0.00000  Uiso   1.00
C240   C     0.52353   0.83403   0.16725   0.00000  Uiso   1.00
C241   C     0.95493   0.88049   0.17781   0.00000  Uiso   1.00
C242   C     0.75213   0.93336   0.18222   0.00000  Uiso   1.00
C243   C     0.54507   0.78618   0.15552   0.00000  Uiso   1.00
C244   C     0.97344   0.73638   0.14157   0.00000  Uiso   1.00
C245   C     0.52656   0.93029   0.19177   0.00000  Uiso   1.00
C246   C     0.51992   0.73780   0.14268   0.00000  Uiso   1.00
C247   C     0.98008   0.92887   0.19065   0.00000  Uiso   1.00
C248   C     0.74634   0.67717   0.14263   0.00000  Uiso   1.00
C249   C     0.75366   0.98949   0.19070   0.00000  Uiso   1.00
C250   C     0.66472   0.83423   0.16734   0.00000  Uiso   1.00
C251   C     0.83528   0.83244   0.16599   0.00000  Uiso   1.00
C252   C     0.90849   0.87936   0.17687   0.00000  Uiso   1.00
Cu253  Cu    0.75501   0.83913   0.22813   0.00000  Uiso   1.00
Cu254  Cu    0.74500   0.82754   0.10521   0.00000  Uiso   1.00
H255   H     0.89168   0.91602   0.18595   0.00000  Uiso   1.00
H256   H     0.60832   0.75065   0.14738   0.00000  Uiso   1.00
H257   H     0.95563   0.69796   0.13112   0.00000  Uiso   1.00
H258   H     0.54437   0.96870   0.20221   0.00000  Uiso   1.00
H259   H     0.53624   0.70090   0.13327   0.00000  Uiso   1.00
H260   H     0.96376   0.96577   0.20007   0.00000  Uiso   1.00
H261   H     0.73947   0.98640   0.09642   0.00000  Uiso   1.00
H262   H     0.76053   0.68027   0.23691   0.00000  Uiso   1.00
I263   I     0.86387   0.71039   0.13739   0.00000  Uiso   1.00
I264   I     0.63613   0.95628   0.19594   0.00000  Uiso   1.00
I265   I     0.68669   0.76354   0.30054   0.00000  Uiso   1.00
I266   I     0.81331   0.90312   0.03279   0.00000  Uiso   1.00
N267   N     0.73745   0.81881   0.01284   0.00000  Uiso   1.00
N268   N     0.76256   0.84786   0.32049   0.00000  Uiso   1.00
O269   O     0.75326   0.76204   0.20659   0.00000  Uiso   1.00
O270   O     0.74675   0.90462   0.12674   0.00000  Uiso   1.00
O271   O     0.74480   0.75226   0.10279   0.00000  Uiso   1.00
O272   O     0.75520   0.91441   0.23055   0.00000  Uiso   1.00
O273   O     0.68936   0.83821   0.21857   0.00000  Uiso   1.00
O274   O     0.81065   0.82845   0.11476   0.00000  Uiso   1.00
O275   O     0.68090   0.82843   0.11477   0.00000  Uiso   1.00
O276   O     0.81910   0.83824   0.21857   0.00000  Uiso   1.00
C277   C     0.24787   0.06664   0.48445   0.00000  Uiso   1.00
C278   C     0.09151   0.12064   0.48980   0.00000  Uiso   1.00
C279   C     0.38335   0.16453   0.49801   0.00000  Uiso   1.00
C280   C     0.11665   0.16880   0.50199   0.00000  Uiso   1.00
C281   C     0.40405   0.11627   0.48640   0.00000  Uiso   1.00
C282   C     0.09595   0.21706   0.51360   0.00000  Uiso   1.00
C283   C     0.45105   0.11681   0.48670   0.00000  Uiso   1.00
C284   C     0.04895   0.21652   0.51330   0.00000  Uiso   1.00
C285   C     0.47647   0.16597   0.49942   0.00000  Uiso   1.00
C286   C     0.02353   0.16736   0.50059   0.00000  Uiso   1.00
C287   C     0.45493   0.21382   0.51115   0.00000  Uiso   1.00
C288   C     0.25213   0.26669   0.51555   0.00000  Uiso   1.00
C289   C     0.04507   0.11951   0.48885   0.00000  Uiso   1.00
C290   C     0.47344   0.06971   0.47490   0.00000  Uiso   1.00
C291   C     0.02656   0.26362   0.52510   0.00000  Uiso   1.00
C292   C     0.01992   0.07113   0.47602   0.00000  Uiso   1.00
C293   C     0.48008   0.26220   0.52398   0.00000  Uiso   1.00
C294   C     0.24634   0.01051   0.47597   0.00000  Uiso   1.00
C295   C     0.25366   0.32283   0.52403   0.00000  Uiso   1.00
C296   C     0.16472   0.16756   0.50067   0.00000  Uiso   1.00
C297   C     0.33528   0.16577   0.49933   0.00000  Uiso   1.00
C298   C     0.40849   0.21269   0.51020   0.00000  Uiso   1.00
Cu299  Cu    0.25501   0.17246   0.56146   0.00000  Uiso   1.00
Cu300  Cu    0.24500   0.16087   0.43854   0.00000  Uiso   1.00
H301   H     0.39168   0.24935   0.51928   0.00000  Uiso   1.00
H302   H     0.10832   0.08398   0.48072   0.00000  Uiso   1.00
H303   H     0.45563   0.03130   0.46446   0.00000  Uiso   1.00
H304   H     0.04437   0.30204   0.53554   0.00000  Uiso   1.00
H305   H     0.03624   0.03423   0.46660   0.00000  Uiso   1.00
H306   H     0.46376   0.29910   0.53340   0.00000  Uiso   1.00
H307   H     0.23947   0.31973   0.42975   0.00000  Uiso   1.00
H308   H     0.26053   0.01360   0.57025   0.00000  Uiso   1.00
I309   I     0.36387   0.04372   0.47072   0.00000  Uiso   1.00
I310   I     0.13613   0.28961   0.52928   0.00000  Uiso   1.00
I311   I     0.18669   0.09688   0.63388   0.00000  Uiso   1.00
I312   I     0.31331   0.23645   0.36612   0.00000  Uiso   1.00
N313   N     0.23745   0.15214   0.34617   0.00000  Uiso   1.00
N314   N     0.26256   0.18119   0.65383   0.00000  Uiso   1.00
O315   O     0.25326   0.09538   0.53992   0.00000  Uiso   1.00
O316   O     0.24675   0.23796   0.46008   0.00000  Uiso   1.00
O317   O     0.24480   0.08559   0.43612   0.00000  Uiso   1.00
O318   O     0.25520   0.24774   0.56388   0.00000  Uiso   1.00
O319   O     0.18936   0.17155   0.55191   0.00000  Uiso   1.00
O320   O     0.31065   0.16179   0.44809   0.00000  Uiso   1.00
O321   O     0.18090   0.16176   0.44810   0.00000  Uiso   1.00
O322   O     0.31910   0.17157   0.55190   0.00000  Uiso   1.00
C323   C     0.74787   0.06664   0.48445   0.00000  Uiso   1.00
C324   C     0.59151   0.12064   0.48980   0.00000  Uiso   1.00
C325   C     0.88335   0.16453   0.49801   0.00000  Uiso   1.00
C326   C     0.61665   0.16880   0.50199   0.00000  Uiso   1.00
C327   C     0.90405   0.11627   0.48640   0.00000  Uiso   1.00
C328   C     0.59595   0.21706   0.51360   0.00000  Uiso   1.00
C329   C     0.95105   0.11681   0.48670   0.00000  Uiso   1.00
C330   C     0.54895   0.21652   0.51330   0.00000  Uiso   1.00
C331   C     0.97647   0.16597   0.49942   0.00000  Uiso   1.00
C332   C     0.52353   0.16736   0.50059   0.00000  Uiso   1.00
C333   C     0.95493   0.21382   0.51115   0.00000  Uiso   1.00
C334   C     0.75213   0.26669   0.51555   0.00000  Uiso   1.00
C335   C     0.54507   0.11951   0.48885   0.00000  Uiso   1.00
C336   C     0.97344   0.06971   0.47490   0.00000  Uiso   1.00
C337   C     0.52656   0.26362   0.52510   0.00000  Uiso   1.00
C338   C     0.51992   0.07113   0.47602   0.00000  Uiso   1.00
C339   C     0.98008   0.26220   0.52398   0.00000  Uiso   1.00
C340   C     0.74634   0.01051   0.47597   0.00000  Uiso   1.00
C341   C     0.75366   0.32283   0.52403   0.00000  Uiso   1.00
C342   C     0.66472   0.16756   0.50067   0.00000  Uiso   1.00
C343   C     0.83528   0.16577   0.49933   0.00000  Uiso   1.00
C344   C     0.90849   0.21269   0.51020   0.00000  Uiso   1.00
Cu345  Cu    0.75501   0.17246   0.56146   0.00000  Uiso   1.00
Cu346  Cu    0.74500   0.16087   0.43854   0.00000  Uiso   1.00
H347   H     0.89168   0.24935   0.51928   0.00000  Uiso   1.00
H348   H     0.60832   0.08398   0.48072   0.00000  Uiso   1.00
H349   H     0.95563   0.03130   0.46446   0.00000  Uiso   1.00
H350   H     0.54437   0.30204   0.53554   0.00000  Uiso   1.00
H351   H     0.53624   0.03423   0.46660   0.00000  Uiso   1.00
H352   H     0.96376   0.29910   0.53340   0.00000  Uiso   1.00
H353   H     0.73947   0.31973   0.42975   0.00000  Uiso   1.00
H354   H     0.76053   0.01360   0.57025   0.00000  Uiso   1.00
I355   I     0.86387   0.04372   0.47072   0.00000  Uiso   1.00
I356   I     0.63613   0.28961   0.52928   0.00000  Uiso   1.00
I357   I     0.68669   0.09688   0.63388   0.00000  Uiso   1.00
I358   I     0.81331   0.23645   0.36612   0.00000  Uiso   1.00
N359   N     0.73745   0.15214   0.34617   0.00000  Uiso   1.00
N360   N     0.76256   0.18119   0.65383   0.00000  Uiso   1.00
O361   O     0.75326   0.09538   0.53992   0.00000  Uiso   1.00
O362   O     0.74675   0.23796   0.46008   0.00000  Uiso   1.00
O363   O     0.74480   0.08559   0.43612   0.00000  Uiso   1.00
O364   O     0.75520   0.24774   0.56388   0.00000  Uiso   1.00
O365   O     0.68936   0.17155   0.55191   0.00000  Uiso   1.00
O366   O     0.81065   0.16179   0.44809   0.00000  Uiso   1.00
O367   O     0.68090   0.16176   0.44810   0.00000  Uiso   1.00
O368   O     0.81910   0.17157   0.55190   0.00000  Uiso   1.00
C369   C     0.24787   0.39998   0.48445   0.00000  Uiso   1.00
C370   C     0.09151   0.45398   0.48980   0.00000  Uiso   1.00
C371   C     0.38335   0.49786   0.49801   0.00000  Uiso   1.00
C372   C     0.11665   0.50214   0.50199   0.00000  Uiso   1.00
C373   C     0.40405   0.44961   0.48640   0.00000  Uiso   1.00
C374   C     0.09595   0.55039   0.51360   0.00000  Uiso   1.00
C375   C     0.45105   0.45014   0.48670   0.00000  Uiso   1.00
C376   C     0.04895   0.54986   0.51330   0.00000  Uiso   1.00
C377   C     0.47647   0.49930   0.49942   0.00000  Uiso   1.00
C378   C     0.02353   0.50070   0.50059   0.00000  Uiso   1.00
C379   C     0.45493   0.54715   0.51115   0.00000  Uiso   1.00
C380   C     0.25213   0.60002   0.51555   0.00000  Uiso   1.00
C381   C     0.04507   0.45285   0.48885   0.00000  Uiso   1.00
C382   C     0.47344   0.40305   0.47490   0.00000  Uiso   1.00
C383   C     0.02656   0.59695   0.52510   0.00000  Uiso   1.00
C384   C     0.01992   0.40447   0.47602   0.00000  Uiso   1.00
C385   C     0.48008   0.59553   0.52398   0.00000  Uiso   1.00
C386   C     0.24634   0.34384   0.47597   0.00000  Uiso   1.00
C387   C     0.25366   0.65616   0.52403   0.00000  Uiso   1.00
C388   C     0.16472   0.50089   0.50067   0.00000  Uiso   1.00
C389   C     0.33528   0.49911   0.49933   0.00000  Uiso   1.00
C390   C     0.40849   0.54602   0.51020   0.00000  Uiso   1.00
Cu391  Cu    0.25501   0.50579   0.56146   0.00000  Uiso   1.00
Cu392  Cu    0.24500   0.49421   0.43854   0.00000  Uiso   1.00
H393   H     0.39168   0.58268   0.51928   0.00000  Uiso   1.00
H394   H     0.10832   0.41732   0.48072   0.00000  Uiso   1.00
H395   H     0.45563   0.36463   0.46446   0.00000  Uiso   1.00
H396   H     0.04437   0.63537   0.53554   0.00000  Uiso   1.00
H397   H     0.03624   0.36756   0.46660   0.00000  Uiso   1.00
H398   H     0.46376   0.63244   0.53340   0.00000  Uiso   1.00
H399   H     0.23947   0.65306   0.42975   0.00000  Uiso   1.00
H400   H     0.26053   0.34694   0.57025   0.00000  Uiso   1.00
I401   I     0.36387   0.37706   0.47072   0.00000  Uiso   1.00
I402   I     0.13613   0.62294   0.52928   0.00000  Uiso   1.00
I403   I     0.18669   0.43021   0.63388   0.00000  Uiso   1.00
I404   I     0.31331   0.56979   0.36612   0.00000  Uiso   1.00
N405   N     0.23745   0.48547   0.34617   0.00000  Uiso   1.00
N406   N     0.26256   0.51453   0.65383   0.00000  Uiso   1.00
O407   O     0.25326   0.42871   0.53992   0.00000  Uiso   1.00
O408   O     0.24675   0.57129   0.46008   0.00000  Uiso   1.00
O409   O     0.24480   0.41892   0.43612   0.00000  Uiso   1.00
O410   O     0.25520   0.58108   0.56388   0.00000  Uiso   1.00
O411   O     0.18936   0.50488   0.55191   0.00000  Uiso   1.00
O412   O     0.31065   0.49512   0.44809   0.00000  Uiso   1.00
O413   O     0.18090   0.49510   0.44810   0.00000  Uiso   1.00
O414   O     0.31910   0.50490   0.55190   0.00000  Uiso   1.00
C415   C     0.74787   0.39998   0.48445   0.00000  Uiso   1.00
C416   C     0.59151   0.45398   0.48980   0.00000  Uiso   1.00
C417   C     0.88335   0.49786   0.49801   0.00000  Uiso   1.00
C418   C     0.61665   0.50214   0.50199   0.00000  Uiso   1.00
C419   C     0.90405   0.44961   0.48640   0.00000  Uiso   1.00
C420   C     0.59595   0.55039   0.51360   0.00000  Uiso   1.00
C421   C     0.95105   0.45014   0.48670   0.00000  Uiso   1.00
C422   C     0.54895   0.54986   0.51330   0.00000  Uiso   1.00
C423   C     0.97647   0.49930   0.49942   0.00000  Uiso   1.00
C424   C     0.52353   0.50070   0.50059   0.00000  Uiso   1.00
C425   C     0.95493   0.54715   0.51115   0.00000  Uiso   1.00
C426   C     0.75213   0.60002   0.51555   0.00000  Uiso   1.00
C427   C     0.54507   0.45285   0.48885   0.00000  Uiso   1.00
C428   C     0.97344   0.40305   0.47490   0.00000  Uiso   1.00
C429   C     0.52656   0.59695   0.52510   0.00000  Uiso   1.00
C430   C     0.51992   0.40447   0.47602   0.00000  Uiso   1.00
C431   C     0.98008   0.59553   0.52398   0.00000  Uiso   1.00
C432   C     0.74634   0.34384   0.47597   0.00000  Uiso   1.00
C433   C     0.75366   0.65616   0.52403   0.00000  Uiso   1.00
C434   C     0.66472   0.50089   0.50067   0.00000  Uiso   1.00
C435   C     0.83528   0.49911   0.49933   0.00000  Uiso   1.00
C436   C     0.90849   0.54602   0.51020   0.00000  Uiso   1.00
Cu437  Cu    0.75501   0.50579   0.56146   0.00000  Uiso   1.00
Cu438  Cu    0.74500   0.49421   0.43854   0.00000  Uiso   1.00
H439   H     0.89168   0.58268   0.51928   0.00000  Uiso   1.00
H440   H     0.60832   0.41732   0.48072   0.00000  Uiso   1.00
H441   H     0.95563   0.36463   0.46446   0.00000  Uiso   1.00
H442   H     0.54437   0.63537   0.53554   0.00000  Uiso   1.00
H443   H     0.53624   0.36756   0.46660   0.00000  Uiso   1.00
H444   H     0.96376   0.63244   0.53340   0.00000  Uiso   1.00
H445   H     0.73947   0.65306   0.42975   0.00000  Uiso   1.00
H446   H     0.76053   0.34694   0.57025   0.00000  Uiso   1.00
I447   I     0.86387   0.37706   0.47072   0.00000  Uiso   1.00
I448   I     0.63613   0.62294   0.52928   0.00000  Uiso   1.00
I449   I     0.68669   0.43021   0.63388   0.00000  Uiso   1.00
I450   I     0.81331   0.56979   0.36612   0.00000  Uiso   1.00
N451   N     0.73745   0.48547   0.34617   0.00000  Uiso   1.00
N452   N     0.76256   0.51453   0.65383   0.00000  Uiso   1.00
O453   O     0.75326   0.42871   0.53992   0.00000  Uiso   1.00
O454   O     0.74675   0.57129   0.46008   0.00000  Uiso   1.00
O455   O     0.74480   0.41892   0.43612   0.00000  Uiso   1.00
O456   O     0.75520   0.58108   0.56388   0.00000  Uiso   1.00
O457   O     0.68936   0.50488   0.55191   0.00000  Uiso   1.00
O458   O     0.81065   0.49512   0.44809   0.00000  Uiso   1.00
O459   O     0.68090   0.49510   0.44810   0.00000  Uiso   1.00
O460   O     0.81910   0.50490   0.55190   0.00000  Uiso   1.00
C461   C     0.24787   0.73331   0.48445   0.00000  Uiso   1.00
C462   C     0.09151   0.78731   0.48980   0.00000  Uiso   1.00
C463   C     0.38335   0.83120   0.49801   0.00000  Uiso   1.00
C464   C     0.11665   0.83547   0.50199   0.00000  Uiso   1.00
C465   C     0.40405   0.78294   0.48640   0.00000  Uiso   1.00
C466   C     0.09595   0.88373   0.51360   0.00000  Uiso   1.00
C467   C     0.45105   0.78348   0.48670   0.00000  Uiso   1.00
C468   C     0.04895   0.88319   0.51330   0.00000  Uiso   1.00
C469   C     0.47647   0.83264   0.49942   0.00000  Uiso   1.00
C470   C     0.02353   0.83403   0.50059   0.00000  Uiso   1.00
C471   C     0.45493   0.88049   0.51115   0.00000  Uiso   1.00
C472   C     0.25213   0.93336   0.51555   0.00000  Uiso   1.00
C473   C     0.04507   0.78618   0.48885   0.00000  Uiso   1.00
C474   C     0.47344   0.73638   0.47490   0.00000  Uiso   1.00
C475   C     0.02656   0.93029   0.52510   0.00000  Uiso   1.00
C476   C     0.01992   0.73780   0.47602   0.00000  Uiso   1.00
C477   C     0.48008   0.92887   0.52398   0.00000  Uiso   1.00
C478   C     0.24634   0.67717   0.47597   0.00000  Uiso   1.00
C479   C     0.25366   0.98949   0.52403   0.00000  Uiso   1.00
C480   C     0.16472   0.83423   0.50067   0.00000  Uiso   1.00
C481   C     0.33528   0.83244   0.49933   0.00000  Uiso   1.00
C482   C     0.40849   0.87936   0.51020   0.00000  Uiso   1.00
Cu483  Cu    0.25501   0.83913   0.56146   0.00000  Uiso   1.00
Cu484  Cu    0.24500   0.82754   0.43854   0.00000  Uiso   1.00
H485   H     0.39168   0.91602   0.51928   0.00000  Uiso   1.00
H486   H     0.10832   0.75065   0.48072   0.00000  Uiso   1.00
H487   H     0.45563   0.69796   0.46446   0.00000  Uiso   1.00
H488   H     0.04437   0.96870   0.53554   0.00000  Uiso   1.00
H489   H     0.03624   0.70090   0.46660   0.00000  Uiso   1.00
H490   H     0.46376   0.96577   0.53340   0.00000  Uiso   1.00
H491   H     0.23947   0.98640   0.42975   0.00000  Uiso   1.00
H492   H     0.26053   0.68027   0.57025   0.00000  Uiso   1.00
I493   I     0.36387   0.71039   0.47072   0.00000  Uiso   1.00
I494   I     0.13613   0.95628   0.52928   0.00000  Uiso   1.00
I495   I     0.18669   0.76354   0.63388   0.00000  Uiso   1.00
I496   I     0.31331   0.90312   0.36612   0.00000  Uiso   1.00
N497   N     0.23745   0.81881   0.34617   0.00000  Uiso   1.00
N498   N     0.26256   0.84786   0.65383   0.00000  Uiso   1.00
O499   O     0.25326   0.76204   0.53992   0.00000  Uiso   1.00
O500   O     0.24675   0.90462   0.46008   0.00000  Uiso   1.00
O501   O     0.24480   0.75226   0.43612   0.00000  Uiso   1.00
O502   O     0.25520   0.91441   0.56388   0.00000  Uiso   1.00
O503   O     0.18936   0.83821   0.55191   0.00000  Uiso   1.00
O504   O     0.31065   0.82845   0.44809   0.00000  Uiso   1.00
O505   O     0.18090   0.82843   0.44810   0.00000  Uiso   1.00
O506   O     0.31910   0.83824   0.55190   0.00000  Uiso   1.00
C507   C     0.74787   0.73331   0.48445   0.00000  Uiso   1.00
C508   C     0.59151   0.78731   0.48980   0.00000  Uiso   1.00
C509   C     0.88335   0.83120   0.49801   0.00000  Uiso   1.00
C510   C     0.61665   0.83547   0.50199   0.00000  Uiso   1.00
C511   C     0.90405   0.78294   0.48640   0.00000  Uiso   1.00
C512   C     0.59595   0.88373   0.51360   0.00000  Uiso   1.00
C513   C     0.95105   0.78348   0.48670   0.00000  Uiso   1.00
C514   C     0.54895   0.88319   0.51330   0.00000  Uiso   1.00
C515   C     0.97647   0.83264   0.49942   0.00000  Uiso   1.00
C516   C     0.52353   0.83403   0.50059   0.00000  Uiso   1.00
C517   C     0.95493   0.88049   0.51115   0.00000  Uiso   1.00
C518   C     0.75213   0.93336   0.51555   0.00000  Uiso   1.00
C519   C     0.54507   0.78618   0.48885   0.00000  Uiso   1.00
C520   C     0.97344   0.73638   0.47490   0.00000  Uiso   1.00
C521   C     0.52656   0.93029   0.52510   0.00000  Uiso   1.00
C522   C     0.51992   0.73780   0.47602   0.00000  Uiso   1.00
C523   C     0.98008   0.92887   0.52398   0.00000  Uiso   1.00
C524   C     0.74634   0.67717   0.47597   0.00000  Uiso   1.00
C525   C     0.75366   0.98949   0.52403   0.00000  Uiso   1.00
C526   C     0.66472   0.83423   0.50067   0.00000  Uiso   1.00
C527   C     0.83528   0.83244   0.49933   0.00000  Uiso   1.00
C528   C     0.90849   0.87936   0.51020   0.00000  Uiso   1.00
Cu529  Cu    0.75501   0.83913   0.56146   0.00000  Uiso   1.00
Cu530  Cu    0.74500   0.82754   0.43854   0.00000  Uiso   1.00
H531   H     0.89168   0.91602   0.51928   0.00000  Uiso   1.00
H532   H     0.60832   0.75065   0.48072   0.00000  Uiso   1.00
H533   H     0.95563   0.69796   0.46446   0.00000  Uiso   1.00
H534   H     0.54437   0.96870   0.53554   0.00000  Uiso   1.00
H535   H     0.53624   0.70090   0.46660   0.00000  Uiso   1.00
H536   H     0.96376   0.96577   0.53340   0.00000  Uiso   1.00
H537   H     0.73947   0.98640   0.42975   0.00000  Uiso   1.00
H538   H     0.76053   0.68027   0.57025   0.00000  Uiso   1.00
I539   I     0.86387   0.71039   0.47072   0.00000  Uiso   1.00
I540   I     0.63613   0.95628   0.52928   0.00000  Uiso   1.00
I541   I     0.68669   0.76354   0.63388   0.00000  Uiso   1.00
I542   I     0.81331   0.90312   0.36612   0.00000  Uiso   1.00
N543   N     0.73745   0.81881   0.34617   0.00000  Uiso   1.00
N544   N     0.76256   0.84786   0.65383   0.00000  Uiso   1.00
O545   O     0.75326   0.76204   0.53992   0.00000  Uiso   1.00
O546   O     0.74675   0.90462   0.46008   0.00000  Uiso   1.00
O547   O     0.74480   0.75226   0.43612   0.00000  Uiso   1.00
O548   O     0.75520   0.91441   0.56388   0.00000  Uiso   1.00
O549   O     0.68936   0.83821   0.55191   0.00000  Uiso   1.00
O550   O     0.81065   0.82845   0.44809   0.00000  Uiso   1.00
O551   O     0.68090   0.82843   0.44810   0.00000  Uiso   1.00
O552   O     0.81910   0.83824   0.55190   0.00000  Uiso   1.00
C553   C     0.24787   0.06664   0.81778   0.00000  Uiso   1.00
C554   C     0.09151   0.12064   0.82313   0.00000  Uiso   1.00
C555   C     0.38335   0.16453   0.83134   0.00000  Uiso   1.00
C556   C     0.11665   0.16880   0.83532   0.00000  Uiso   1.00
C557   C     0.40405   0.11627   0.81973   0.00000  Uiso   1.00
C558   C     0.09595   0.21706   0.84694   0.00000  Uiso   1.00
C559   C     0.45105   0.11681   0.82003   0.00000  Uiso   1.00
C560   C     0.04895   0.21652   0.84663   0.00000  Uiso   1.00
C561   C     0.47647   0.16597   0.83275   0.00000  Uiso   1.00
C562   C     0.02353   0.16736   0.83392   0.00000  Uiso   1.00
C563   C     0.45493   0.21382   0.84448   0.00000  Uiso   1.00
C564   C     0.25213   0.26669   0.84888   0.00000  Uiso   1.00
C565   C     0.04507   0.11951   0.82219   0.00000  Uiso   1.00
C566   C     0.47344   0.06971   0.80823   0.00000  Uiso   1.00
C567   C     0.02656   0.26362   0.85843   0.00000  Uiso   1.00
C568   C     0.01992   0.07113   0.80935   0.00000  Uiso   1.00
C569   C     0.48008   0.26220   0.85732   0.00000  Uiso   1.00
C570   C     0.24634   0.01051   0.80930   0.00000  Uiso   1.00
C571   C     0.25366   0.32283   0.85737   0.00000  Uiso   1.00
C572   C     0.16472   0.16756   0.83401   0.00000  Uiso   1.00
C573   C     0.33528   0.16577   0.83266   0.00000  Uiso   1.00
C574   C     0.40849   0.21269   0.84353   0.00000  Uiso   1.00
Cu575  Cu    0.25501   0.17246   0.89479   0.00000  Uiso   1.00
Cu576  Cu    0.24500   0.16087   0.77187   0.00000  Uiso   1.00
H577   H     0.39168   0.24935   0.85262   0.00000  Uiso   1.00
H578   H     0.10832   0.08398   0.81405   0.00000  Uiso   1.00
H579   H     0.45563   0.03130   0.79779   0.00000  Uiso   1.00
H580   H     0.04437   0.30204   0.86888   0.00000  Uiso   1.00
H581   H     0.03624   0.03423   0.79993   0.00000  Uiso   1.00
H582   H     0.46376   0.29910   0.86673   0.00000  Uiso   1.00
H583   H     0.23947   0.31973   0.76309   0.00000  Uiso   1.00
H584   H     0.26053   0.01360   0.90358   0.00000  Uiso   1.00
I585   I     0.36387   0.04372   0.80406   0.00000  Uiso   1.00
I586   I     0.13613   0.28961   0.86261   0.00000  Uiso   1.00
I587   I     0.18669   0.09688   0.96721   0.00000  Uiso   1.00
I588   I     0.31331   0.23645   0.69946   0.00000  Uiso   1.00
N589   N     0.23745   0.15214   0.67951   0.00000  Uiso   1.00
N590   N     0.26256   0.18119   0.98716   0.00000  Uiso   1.00
O591   O     0.25326   0.09538   0.87326   0.00000  Uiso   1.00
O592   O     0.24675   0.23796   0.79341   0.00000  Uiso   1.00
O593   O     0.24480   0.08559   0.76945   0.00000  Uiso   1.00
O594   O     0.25520   0.24774   0.89721   0.00000  Uiso   1.00
O595   O     0.18936   0.17155   0.88524   0.00000  Uiso   1.00
O596   O     0.31065   0.16179   0.78143   0.00000  Uiso   1.00
O597   O     0.18090   0.16176   0.78143   0.00000  Uiso   1.00
O598   O     0.31910   0.17157   0.88523   0.00000  Uiso   1.00
C599   C     0.74787   0.06664   0.81778   0.00000  Uiso   1.00
C600   C     0.59151   0.12064   0.82313   0.00000  Uiso   1.00
C601   C     0.88335   0.16453   0.83134   0.00000  Uiso   1.00
C602   C     0.61665   0.16880   0.83532   0.00000  Uiso   1.00
C603   C     0.90405   0.11627   0.81973   0.00000  Uiso   1.00
C604   C     0.59595   0.21706   0.84694   0.00000  Uiso   1.00
C605   C     0.95105   0.11681   0.82003   0.00000  Uiso   1.00
C606   C     0.54895   0.21652   0.84663   0.00000  Uiso   1.00
C607   C     0.97647   0.16597   0.83275   0.00000  Uiso   1.00
C608   C     0.52353   0.16736   0.83392   0.00000  Uiso   1.00
C609   C     0.95493   0.21382   0.84448   0.00000  Uiso   1.00
C610   C     0.75213   0.26669   0.84888   0.00000  Uiso   1.00
C611   C     0.54507   0.11951   0.82219   0.00000  Uiso   1.00
C612   C     0.97344   0.06971   0.80823   0.00000  Uiso   1.00
C613   C     0.52656   0.26362   0.85843   0.00000  Uiso   1.00
C614   C     0.51992   0.07113   0.80935   0.00000  Uiso   1.00
C615   C     0.98008   0.26220   0.85732   0.00000  Uiso   1.00
C616   C     0.74634   0.01051   0.80930   0.00000  Uiso   1.00
C617   C     0.75366   0.32283   0.85737   0.00000  Uiso   1.00
C618   C     0.66472   0.16756   0.83401   0.00000  Uiso   1.00
C619   C     0.83528   0.16577   0.83266   0.00000  Uiso   1.00
C620   C     0.90849   0.21269   0.84353   0.00000  Uiso   1.00
Cu621  Cu    0.75501   0.17246   0.89479   0.00000  Uiso   1.00
Cu622  Cu    0.74500   0.16087   0.77187   0.00000  Uiso   1.00
H623   H     0.89168   0.24935   0.85262   0.00000  Uiso   1.00
H624   H     0.60832   0.08398   0.81405   0.00000  Uiso   1.00
H625   H     0.95563   0.03130   0.79779   0.00000  Uiso   1.00
H626   H     0.54437   0.30204   0.86888   0.00000  Uiso   1.00
H627   H     0.53624   0.03423   0.79993   0.00000  Uiso   1.00
H628   H     0.96376   0.29910   0.86673   0.00000  Uiso   1.00
H629   H     0.73947   0.31973   0.76309   0.00000  Uiso   1.00
H630   H     0.76053   0.01360   0.90358   0.00000  Uiso   1.00
I631   I     0.86387   0.04372   0.80406   0.00000  Uiso   1.00
I632   I     0.63613   0.28961   0.86261   0.00000  Uiso   1.00
I633   I     0.68669   0.09688   0.96721   0.00000  Uiso   1.00
I634   I     0.81331   0.23645   0.69946   0.00000  Uiso   1.00
N635   N     0.73745   0.15214   0.67951   0.00000  Uiso   1.00
N636   N     0.76256   0.18119   0.98716   0.00000  Uiso   1.00
O637   O     0.75326   0.09538   0.87326   0.00000  Uiso   1.00
O638   O     0.74675   0.23796   0.79341   0.00000  Uiso   1.00
O639   O     0.74480   0.08559   0.76945   0.00000  Uiso   1.00
O640   O     0.75520   0.24774   0.89721   0.00000  Uiso   1.00
O641   O     0.68936   0.17155   0.88524   0.00000  Uiso   1.00
O642   O     0.81065   0.16179   0.78143   0.00000  Uiso   1.00
O643   O     0.68090   0.16176   0.78143   0.00000  Uiso   1.00
O644   O     0.81910   0.17157   0.88523   0.00000  Uiso   1.00
C645   C     0.24787   0.39998   0.81778   0.00000  Uiso   1.00
C646   C     0.09151   0.45398   0.82313   0.00000  Uiso   1.00
C647   C     0.38335   0.49786   0.83134   0.00000  Uiso   1.00
C648   C     0.11665   0.50214   0.83532   0.00000  Uiso   1.00
C649   C     0.40405   0.44961   0.81973   0.00000  Uiso   1.00
C650   C     0.09595   0.55039   0.84694   0.00000  Uiso   1.00
C651   C     0.45105   0.45014   0.82003   0.00000  Uiso   1.00
C652   C     0.04895   0.54986   0.84663   0.00000  Uiso   1.00
C653   C     0.47647   0.49930   0.83275   0.00000  Uiso   1.00
C654   C     0.02353   0.50070   0.83392   0.00000  Uiso   1.00
C655   C     0.45493   0.54715   0.84448   0.00000  Uiso   1.00
C656   C     0.25213   0.60002   0.84888   0.00000  Uiso   1.00
C657   C     0.04507   0.45285   0.82219   0.00000  Uiso   1.00
C658   C     0.47344   0.40305   0.80823   0.00000  Uiso   1.00
C659   C     0.02656   0.59695   0.85843   0.00000  Uiso   1.00
C660   C     0.01992   0.40447   0.80935   0.00000  Uiso   1.00
C661   C     0.48008   0.59553   0.85732   0.00000  Uiso   1.00
C662   C     0.24634   0.34384   0.80930   0.00000  Uiso   1.00
C663   C     0.25366   0.65616   0.85737   0.00000  Uiso   1.00
C664   C     0.16472   0.50089   0.83401   0.00000  Uiso   1.00
C665   C     0.33528   0.49911   0.83266   0.00000  Uiso   1.00
C666   C     0.40849   0.54602   0.84353   0.00000  Uiso   1.00
Cu667  Cu    0.25501   0.50579   0.89479   0.00000  Uiso   1.00
Cu668  Cu    0.24500   0.49421   0.77187   0.00000  Uiso   1.00
H669   H     0.39168   0.58268   0.85262   0.00000  Uiso   1.00
H670   H     0.10832   0.41732   0.81405   0.00000  Uiso   1.00
H671   H     0.45563   0.36463   0.79779   0.00000  Uiso   1.00
H672   H     0.04437   0.63537   0.86888   0.00000  Uiso   1.00
H673   H     0.03624   0.36756   0.79993   0.00000  Uiso   1.00
H674   H     0.46376   0.63244   0.86673   0.00000  Uiso   1.00
H675   H     0.23947   0.65306   0.76309   0.00000  Uiso   1.00
H676   H     0.26053   0.34694   0.90358   0.00000  Uiso   1.00
I677   I     0.36387   0.37706   0.80406   0.00000  Uiso   1.00
I678   I     0.13613   0.62294   0.86261   0.00000  Uiso   1.00
I679   I     0.18669   0.43021   0.96721   0.00000  Uiso   1.00
I680   I     0.31331   0.56979   0.69946   0.00000  Uiso   1.00
N681   N     0.23745   0.48547   0.67951   0.00000  Uiso   1.00
N682   N     0.26256   0.51453   0.98716   0.00000  Uiso   1.00
O683   O     0.25326   0.42871   0.87326   0.00000  Uiso   1.00
O684   O     0.24675   0.57129   0.79341   0.00000  Uiso   1.00
O685   O     0.24480   0.41892   0.76945   0.00000  Uiso   1.00
O686   O     0.25520   0.58108   0.89721   0.00000  Uiso   1.00
O687   O     0.18936   0.50488   0.88524   0.00000  Uiso   1.00
O688   O     0.31065   0.49512   0.78143   0.00000  Uiso   1.00
O689   O     0.18090   0.49510   0.78143   0.00000  Uiso   1.00
O690   O     0.31910   0.50490   0.88523   0.00000  Uiso   1.00
C691   C     0.74787   0.39998   0.81778   0.00000  Uiso   1.00
C692   C     0.59151   0.45398   0.82313   0.00000  Uiso   1.00
C693   C     0.88335   0.49786   0.83134   0.00000  Uiso   1.00
C694   C     0.61665   0.50214   0.83532   0.00000  Uiso   1.00
C695   C     0.90405   0.44961   0.81973   0.00000  Uiso   1.00
C696   C     0.59595   0.55039   0.84694   0.00000  Uiso   1.00
C697   C     0.95105   0.45014   0.82003   0.00000  Uiso   1.00
C698   C     0.54895   0.54986   0.84663   0.00000  Uiso   1.00
C699   C     0.97647   0.49930   0.83275   0.00000  Uiso   1.00
C700   C     0.52353   0.50070   0.83392   0.00000  Uiso   1.00
C701   C     0.95493   0.54715   0.84448   0.00000  Uiso   1.00
C702   C     0.75213   0.60002   0.84888   0.00000  Uiso   1.00
C703   C     0.54507   0.45285   0.82219   0.00000  Uiso   1.00
C704   C     0.97344   0.40305   0.80823   0.00000  Uiso   1.00
C705   C     0.52656   0.59695   0.85843   0.00000  Uiso   1.00
C706   C     0.51992   0.40447   0.80935   0.00000  Uiso   1.00
C707   C     0.98008   0.59553   0.85732   0.00000  Uiso   1.00
C708   C     0.74634   0.34384   0.80930   0.00000  Uiso   1.00
C709   C     0.75366   0.65616   0.85737   0.00000  Uiso   1.00
C710   C     0.66472   0.50089   0.83401   0.00000  Uiso   1.00
C711   C     0.83528   0.49911   0.83266   0.00000  Uiso   1.00
C712   C     0.90849   0.54602   0.84353   0.00000  Uiso   1.00
Cu713  Cu    0.75501   0.50579   0.89479   0.00000  Uiso   1.00
Cu714  Cu    0.74500   0.49421   0.77187   0.00000  Uiso   1.00
H715   H     0.89168   0.58268   0.85262   0.00000  Uiso   1.00
H716   H     0.60832   0.41732   0.81405   0.00000  Uiso   1.00
H717   H     0.95563   0.36463   0.79779   0.00000  Uiso   1.00
H718   H     0.54437   0.63537   0.86888   0.00000  Uiso   1.00
H719   H     0.53624   0.36756   0.79993   0.00000  Uiso   1.00
H720   H     0.96376   0.63244   0.86673   0.00000  Uiso   1.00
H721   H     0.73947   0.65306   0.76309   0.00000  Uiso   1.00
H722   H     0.76053   0.34694   0.90358   0.00000  Uiso   1.00
I723   I     0.86387   0.37706   0.80406   0.00000  Uiso   1.00
I724   I     0.63613   0.62294   0.86261   0.00000  Uiso   1.00
I725   I     0.68669   0.43021   0.96721   0.00000  Uiso   1.00
I726   I     0.81331   0.56979   0.69946   0.00000  Uiso   1.00
N727   N     0.73745   0.48547   0.67951   0.00000  Uiso   1.00
N728   N     0.76256   0.51453   0.98716   0.00000  Uiso   1.00
O729   O     0.75326   0.42871   0.87326   0.00000  Uiso   1.00
O730   O     0.74675   0.57129   0.79341   0.00000  Uiso   1.00
O731   O     0.74480   0.41892   0.76945   0.00000  Uiso   1.00
O732   O     0.75520   0.58108   0.89721   0.00000  Uiso   1.00
O733   O     0.68936   0.50488   0.88524   0.00000  Uiso   1.00
O734   O     0.81065   0.49512   0.78143   0.00000  Uiso   1.00
O735   O     0.68090   0.49510   0.78143   0.00000  Uiso   1.00
O736   O     0.81910   0.50490   0.88523   0.00000  Uiso   1.00
C737   C     0.24787   0.73331   0.81778   0.00000  Uiso   1.00
C738   C     0.09151   0.78731   0.82313   0.00000  Uiso   1.00
C739   C     0.38335   0.83120   0.83134   0.00000  Uiso   1.00
C740   C     0.11665   0.83547   0.83532   0.00000  Uiso   1.00
C741   C     0.40405   0.78294   0.81973   0.00000  Uiso   1.00
C742   C     0.09595   0.88373   0.84694   0.00000  Uiso   1.00
C743   C     0.45105   0.78348   0.82003   0.00000  Uiso   1.00
C744   C     0.04895   0.88319   0.84663   0.00000  Uiso   1.00
C745   C     0.47647   0.83264   0.83275   0.00000  Uiso   1.00
C746   C     0.02353   0.83403   0.83392   0.00000  Uiso   1.00
C747   C     0.45493   0.88049   0.84448   0.00000  Uiso   1.00
C748   C     0.25213   0.93336   0.84888   0.00000  Uiso   1.00
C749   C     0.04507   0.78618   0.82219   0.00000  Uiso   1.00
C750   C     0.47344   0.73638   0.80823   0.00000  Uiso   1.00
C751   C     0.02656   0.93029   0.85843   0.00000  Uiso   1.00
C752   C     0.01992   0.73780   0.80935   0.00000  Uiso   1.00
C753   C     0.48008   0.92887   0.85732   0.00000  Uiso   1.00
C754   C     0.24634   0.67717   0.80930   0.00000  Uiso   1.00
C755   C     0.25366   0.98949   0.85737   0.00000  Uiso   1.00
C756   C     0.16472   0.83423   0.83401   0.00000  Uiso   1.00
C757   C     0.33528   0.83244   0.83266   0.00000  Uiso   1.00
C758   C     0.40849   0.87936   0.84353   0.00000  Uiso   1.00
Cu759  Cu    0.25501   0.83913   0.89479   0.00000  Uiso   1.00
Cu760  Cu    0.24500   0.82754   0.77187   0.00000  Uiso   1.00
H761   H     0.39168   0.91602   0.85262   0.00000  Uiso   1.00
H762   H     0.10832   0.75065   0.81405   0.00000  Uiso   1.00
H763   H     0.45563   0.69796   0.79779   0.00000  Uiso   1.00
H764   H     0.04437   0.96870   0.86888   0.00000  Uiso   1.00
H765   H     0.03624   0.70090   0.79993   0.00000  Uiso   1.00
H766   H     0.46376   0.96577   0.86673   0.00000  Uiso   1.00
H767   H     0.23947   0.98640   0.76309   0.00000  Uiso   1.00
H768   H     0.26053   0.68027   0.90358   0.00000  Uiso   1.00
I769   I     0.36387   0.71039   0.80406   0.00000  Uiso   1.00
I770   I     0.13613   0.95628   0.86261   0.00000  Uiso   1.00
I771   I     0.18669   0.76354   0.96721   0.00000  Uiso   1.00
I772   I     0.31331   0.90312   0.69946   0.00000  Uiso   1.00
N773   N     0.23745   0.81881   0.67951   0.00000  Uiso   1.00
N774   N     0.26256   0.84786   0.98716   0.00000  Uiso   1.00
O775   O     0.25326   0.76204   0.87326   0.00000  Uiso   1.00
O776   O     0.24675   0.90462   0.79341   0.00000  Uiso   1.00
O777   O     0.24480   0.75226   0.76945   0.00000  Uiso   1.00
O778   O     0.25520   0.91441   0.89721   0.00000  Uiso   1.00
O779   O     0.18936   0.83821   0.88524   0.00000  Uiso   1.00
O780   O     0.31065   0.82845   0.78143   0.00000  Uiso   1.00
O781   O     0.18090   0.82843   0.78143   0.00000  Uiso   1.00
O782   O     0.31910   0.83824   0.88523   0.00000  Uiso   1.00
C783   C     0.74787   0.73331   0.81778   0.00000  Uiso   1.00
C784   C     0.59151   0.78731   0.82313   0.00000  Uiso   1.00
C785   C     0.88335   0.83120   0.83134   0.00000  Uiso   1.00
C786   C     0.61665   0.83547   0.83532   0.00000  Uiso   1.00
C787   C     0.90405   0.78294   0.81973   0.00000  Uiso   1.00
C788   C     0.59595   0.88373   0.84694   0.00000  Uiso   1.00
C789   C     0.95105   0.78348   0.82003   0.00000  Uiso   1.00
C790   C     0.54895   0.88319   0.84663   0.00000  Uiso   1.00
C791   C     0.97647   0.83264   0.83275   0.00000  Uiso   1.00
C792   C     0.52353   0.83403   0.83392   0.00000  Uiso   1.00
C793   C     0.95493   0.88049   0.84448   0.00000  Uiso   1.00
C794   C     0.75213   0.93336   0.84888   0.00000  Uiso   1.00
C795   C     0.54507   0.78618   0.82219   0.00000  Uiso   1.00
C796   C     0.97344   0.73638   0.80823   0.00000  Uiso   1.00
C797   C     0.52656   0.93029   0.85843   0.00000  Uiso   1.00
C798   C     0.51992   0.73780   0.80935   0.00000  Uiso   1.00
C799   C     0.98008   0.92887   0.85732   0.00000  Uiso   1.00
C800   C     0.74634   0.67717   0.80930   0.00000  Uiso   1.00
C801   C     0.75366   0.98949   0.85737   0.00000  Uiso   1.00
C802   C     0.66472   0.83423   0.83401   0.00000  Uiso   1.00
C803   C     0.83528   0.83244   0.83266   0.00000  Uiso   1.00
C804   C     0.90849   0.87936   0.84353   0.00000  Uiso   1.00
Cu805  Cu    0.75501   0.83913   0.89479   0.00000  Uiso   1.00
Cu806  Cu    0.74500   0.82754   0.77187   0.00000  Uiso   1.00
H807   H     0.89168   0.91602   0.85262   0.00000  Uiso   1.00
H808   H     0.60832   0.75065   0.81405   0.00000  Uiso   1.00
H809   H     0.95563   0.69796   0.79779   0.00000  Uiso   1.00
H810   H     0.54437   0.96870   0.86888   0.00000  Uiso   1.00
H811   H     0.53624   0.70090   0.79993   0.00000  Uiso   1.00
H812   H     0.96376   0.96577   0.86673   0.00000  Uiso   1.00
H813   H     0.73947   0.98640   0.76309   0.00000  Uiso   1.00
H814   H     0.76053   0.68027   0.90358   0.00000  Uiso   1.00
I815   I     0.86387   0.71039   0.80406   0.00000  Uiso   1.00
I816   I     0.63613   0.95628   0.86261   0.00000  Uiso   1.00
I817   I     0.68669   0.76354   0.96721   0.00000  Uiso   1.00
I818   I     0.81331   0.90312   0.69946   0.00000  Uiso   1.00
N819   N     0.73745   0.81881   0.67951   0.00000  Uiso   1.00
N820   N     0.76256   0.84786   0.98716   0.00000  Uiso   1.00
O821   O     0.75326   0.76204   0.87326   0.00000  Uiso   1.00
O822   O     0.74675   0.90462   0.79341   0.00000  Uiso   1.00
O823   O     0.74480   0.75226   0.76945   0.00000  Uiso   1.00
O824   O     0.75520   0.91441   0.89721   0.00000  Uiso   1.00
O825   O     0.68936   0.83821   0.88524   0.00000  Uiso   1.00
O826   O     0.81065   0.82845   0.78143   0.00000  Uiso   1.00
O827   O     0.68090   0.82843   0.78143   0.00000  Uiso   1.00
O828   O     0.81910   0.83824   0.88523   0.00000  Uiso   1.00
loop_
_geom_bond_atom_site_label_1
_geom_bond_atom_site_label_2
_geom_bond_distance
_geom_bond_site_symmetry_2
_ccdc_geom_bond_type
C1     C18     1.428   .     S
C1     O41     1.295   .     A
C1     O39     1.299   .     A
C2     C4      1.392   .     A
C2     H26     1.086   .     S
C2     C13     1.389   .     A
C3     C21     1.446   .     S
C3     C22     1.392   .     A
C3     C5      1.407   .     A
C4     C6      1.407   .     A
C4     C20     1.446   .     S
C5     C7      1.408   .     A
C5     I33     2.136   .     S
C6     C8      1.408   .     A
C6     I34     2.136   .     S
C7     C9      1.418   .     A
C7     C14     1.408   .     A
C8     C10     1.418   .     A
C8     C15     1.408   .     A
C9     C11     1.411   .     A
C9     C56     1.407   .     S
C10    C13     1.411   .     A
C10    C55     1.407   1_455 S
C11    C22     1.389   .     A
C11    C17     1.397   .     A
C12    O40     1.299   .     A
C12    C19     1.428   .     S
C12    O42     1.295   .     A
C13    C16     1.397   .     A
C14    H27     1.079   .     S
C14    C62     1.390   .     S
C15    H28     1.079   .     S
C15    C63     1.390   1_455 S
C16    H29     1.084   .     S
C16    C60     1.390   1_455 S
C17    H30     1.084   .     S
C17    C61     1.390   .     S
C18    C203    1.330   1_545 S
C18    H215    1.087   1_545 S
C19    C110    1.330   .     S
C19    H124    1.087   .     S
C20    O45     1.299   .     A
C20    O43     1.302   .     A
C21    O44     1.302   .     A
C21    O46     1.299   .     A
C22    H25     1.086   .     S
Cu23   Cu24    2.715   .     S
Cu23   O46     1.952   .     S
Cu23   O42     1.948   .     S
Cu23   O39     1.952   .     S
Cu23   N38     2.040   .     S
Cu23   O43     1.961   .     S
Cu24   O41     1.948   .     S
Cu24   N37     2.040   .     S
Cu24   O45     1.952   .     S
Cu24   O44     1.961   .     S
Cu24   O40     1.952   .     S
H31    C110    1.087   .     S
H32    C203    1.087   1_545 S
I35    N313    2.078   .     S
I36    N590    2.078   1_554 S
N37    I587    2.078   1_554 S
N37    N590    1.302   1_554 S
N38    I312    2.078   .     S
N38    N313    1.302   .     S
C47    C64     1.428   .     S
C47    O87     1.295   .     A
C47    O85     1.299   .     A
C48    C50     1.392   .     A
C48    H72     1.086   .     S
C48    C59     1.389   .     A
C49    C67     1.446   .     S
C49    C68     1.392   .     A
C49    C51     1.407   .     A
C50    C52     1.407   .     A
C50    C66     1.446   .     S
C51    C53     1.408   .     A
C51    I79     2.136   .     S
C52    C54     1.408   .     A
C52    I80     2.136   .     S
C53    C55     1.418   .     A
C53    C60     1.408   .     A
C54    C56     1.418   .     A
C54    C61     1.408   .     A
C55    C57     1.411   .     A
C55    C10     1.407   1_655 S
C56    C59     1.411   .     A
C57    C68     1.389   .     A
C57    C63     1.397   .     A
C58    O86     1.299   .     A
C58    C65     1.428   .     S
C58    O88     1.295   .     A
C59    C62     1.397   .     A
C60    H73     1.079   .     S
C60    C16     1.390   1_655 S
C61    H74     1.079   .     S
C62    H75     1.084   .     S
C63    H76     1.084   .     S
C63    C15     1.390   1_655 S
C64    C249    1.330   1_545 S
C64    H261    1.087   1_545 S
C65    C156    1.330   .     S
C65    H170    1.087   .     S
C66    O91     1.299   .     A
C66    O89     1.302   .     A
C67    O90     1.302   .     A
C67    O92     1.299   .     A
C68    H71     1.086   .     S
Cu69   Cu70    2.715   .     S
Cu69   O92     1.952   .     S
Cu69   O88     1.948   .     S
Cu69   O85     1.952   .     S
Cu69   N84     2.040   .     S
Cu69   O89     1.961   .     S
Cu70   O87     1.948   .     S
Cu70   N83     2.040   .     S
Cu70   O91     1.952   .     S
Cu70   O90     1.961   .     S
Cu70   O86     1.952   .     S
H77    C156    1.087   .     S
H78    C249    1.087   1_545 S
I81    N359    2.078   .     S
I82    N636    2.078   1_554 S
N83    I633    2.078   1_554 S
N83    N636    1.302   1_554 S
N84    I358    2.078   .     S
N84    N359    1.302   .     S
C93    C110    1.428   .     S
C93    O133    1.295   .     A
C93    O131    1.299   .     A
C94    C96     1.392   .     A
C94    H118    1.086   .     S
C94    C105    1.389   .     A
C95    C113    1.446   .     S
C95    C114    1.392   .     A
C95    C97     1.407   .     A
C96    C98     1.407   .     A
C96    C112    1.446   .     S
C97    C99     1.408   .     A
C97    I125    2.136   .     S
C98    C100    1.408   .     A
C98    I126    2.136   .     S
C99    C101    1.418   .     A
C99    C106    1.408   .     A
C100   C102    1.418   .     A
C100   C107    1.408   .     A
C101   C103    1.411   .     A
C101   C148    1.407   .     S
C102   C105    1.411   .     A
C102   C147    1.407   1_455 S
C103   C114    1.389   .     A
C103   C109    1.397   .     A
C104   O132    1.299   .     A
C104   C111    1.428   .     S
C104   O134    1.295   .     A
C105   C108    1.397   .     A
C106   H119    1.079   .     S
C106   C154    1.390   .     S
C107   H120    1.079   .     S
C107   C155    1.390   1_455 S
C108   H121    1.084   .     S
C108   C152    1.390   1_455 S
C109   H122    1.084   .     S
C109   C153    1.390   .     S
C111   C202    1.330   .     S
C111   H216    1.087   .     S
C112   O137    1.299   .     A
C112   O135    1.302   .     A
C113   O136    1.302   .     A
C113   O138    1.299   .     A
C114   H117    1.086   .     S
Cu115  Cu116   2.715   .     S
Cu115  O138    1.952   .     S
Cu115  O134    1.948   .     S
Cu115  O131    1.952   .     S
Cu115  N130    2.040   .     S
Cu115  O135    1.961   .     S
Cu116  O133    1.948   .     S
Cu116  N129    2.040   .     S
Cu116  O137    1.952   .     S
Cu116  O136    1.961   .     S
Cu116  O132    1.952   .     S
H123   C202    1.087   .     S
I127   N405    2.078   .     S
I128   N682    2.078   1_554 S
N129   I679    2.078   1_554 S
N129   N682    1.302   1_554 S
N130   I404    2.078   .     S
N130   N405    1.302   .     S
C139   C156    1.428   .     S
C139   O179    1.295   .     A
C139   O177    1.299   .     A
C140   C142    1.392   .     A
C140   H164    1.086   .     S
C140   C151    1.389   .     A
C141   C159    1.446   .     S
C141   C160    1.392   .     A
C141   C143    1.407   .     A
C142   C144    1.407   .     A
C142   C158    1.446   .     S
C143   C145    1.408   .     A
C143   I171    2.136   .     S
C144   C146    1.408   .     A
C144   I172    2.136   .     S
C145   C147    1.418   .     A
C145   C152    1.408   .     A
C146   C148    1.418   .     A
C146   C153    1.408   .     A
C147   C149    1.411   .     A
C147   C102    1.407   1_655 S
C148   C151    1.411   .     A
C149   C160    1.389   .     A
C149   C155    1.397   .     A
C150   O178    1.299   .     A
C150   C157    1.428   .     S
C150   O180    1.295   .     A
C151   C154    1.397   .     A
C152   H165    1.079   .     S
C152   C108    1.390   1_655 S
C153   H166    1.079   .     S
C154   H167    1.084   .     S
C155   H168    1.084   .     S
C155   C107    1.390   1_655 S
C157   C248    1.330   .     S
C157   H262    1.087   .     S
C158   O183    1.299   .     A
C158   O181    1.302   .     A
C159   O182    1.302   .     A
C159   O184    1.299   .     A
C160   H163    1.086   .     S
Cu161  Cu162   2.715   .     S
Cu161  O184    1.952   .     S
Cu161  O180    1.948   .     S
Cu161  O177    1.952   .     S
Cu161  N176    2.040   .     S
Cu161  O181    1.961   .     S
Cu162  O179    1.948   .     S
Cu162  N175    2.040   .     S
Cu162  O183    1.952   .     S
Cu162  O182    1.961   .     S
Cu162  O178    1.952   .     S
H169   C248    1.087   .     S
I173   N451    2.078   .     S
I174   N728    2.078   1_554 S
N175   I725    2.078   1_554 S
N175   N728    1.302   1_554 S
N176   I450    2.078   .     S
N176   N451    1.302   .     S
C185   C202    1.428   .     S
C185   O225    1.295   .     A
C185   O223    1.299   .     A
C186   C188    1.392   .     A
C186   H210    1.086   .     S
C186   C197    1.389   .     A
C187   C205    1.446   .     S
C187   C206    1.392   .     A
C187   C189    1.407   .     A
C188   C190    1.407   .     A
C188   C204    1.446   .     S
C189   C191    1.408   .     A
C189   I217    2.136   .     S
C190   C192    1.408   .     A
C190   I218    2.136   .     S
C191   C193    1.418   .     A
C191   C198    1.408   .     A
C192   C194    1.418   .     A
C192   C199    1.408   .     A
C193   C195    1.411   .     A
C193   C240    1.407   .     S
C194   C197    1.411   .     A
C194   C239    1.407   1_455 S
C195   C206    1.389   .     A
C195   C201    1.397   .     A
C196   O224    1.299   .     A
C196   C203    1.428   .     S
C196   O226    1.295   .     A
C197   C200    1.397   .     A
C198   H211    1.079   .     S
C198   C246    1.390   .     S
C199   H212    1.079   .     S
C199   C247    1.390   1_455 S
C200   H213    1.084   .     S
C200   C244    1.390   1_455 S
C201   H214    1.084   .     S
C201   C245    1.390   .     S
C203   C18     1.330   1_565 S
C203   H32     1.087   1_565 S
C204   O229    1.299   .     A
C204   O227    1.302   .     A
C205   O228    1.302   .     A
C205   O230    1.299   .     A
C206   H209    1.086   .     S
Cu207  Cu208   2.715   .     S
Cu207  O230    1.952   .     S
Cu207  O226    1.948   .     S
Cu207  O223    1.952   .     S
Cu207  N222    2.040   .     S
Cu207  O227    1.961   .     S
Cu208  O225    1.948   .     S
Cu208  N221    2.040   .     S
Cu208  O229    1.952   .     S
Cu208  O228    1.961   .     S
Cu208  O224    1.952   .     S
H215   C18     1.087   1_565 S
I219   N497    2.078   .     S
I220   N774    2.078   1_554 S
N221   I771    2.078   1_554 S
N221   N774    1.302   1_554 S
N222   I496    2.078   .     S
N222   N497    1.302   .     S
C231   C248    1.428   .     S
C231   O271    1.295   .     A
C231   O269    1.299   .     A
C232   C234    1.392   .     A
C232   H256    1.086   .     S
C232   C243    1.389   .     A
C233   C251    1.446   .     S
C233   C252    1.392   .     A
C233   C235    1.407   .     A
C234   C236    1.407   .     A
C234   C250    1.446   .     S
C235   C237    1.408   .     A
C235   I263    2.136   .     S
C236   C238    1.408   .     A
C236   I264    2.136   .     S
C237   C239    1.418   .     A
C237   C244    1.408   .     A
C238   C240    1.418   .     A
C238   C245    1.408   .     A
C239   C241    1.411   .     A
C239   C194    1.407   1_655 S
C240   C243    1.411   .     A
C241   C252    1.389   .     A
C241   C247    1.397   .     A
C242   O270    1.299   .     A
C242   C249    1.428   .     S
C242   O272    1.295   .     A
C243   C246    1.397   .     A
C244   H257    1.079   .     S
C244   C200    1.390   1_655 S
C245   H258    1.079   .     S
C246   H259    1.084   .     S
C247   H260    1.084   .     S
C247   C199    1.390   1_655 S
C249   C64     1.330   1_565 S
C249   H78     1.087   1_565 S
C250   O275    1.299   .     A
C250   O273    1.302   .     A
C251   O274    1.302   .     A
C251   O276    1.299   .     A
C252   H255    1.086   .     S
Cu253  Cu254   2.715   .     S
Cu253  O276    1.952   .     S
Cu253  O272    1.948   .     S
Cu253  O269    1.952   .     S
Cu253  N268    2.040   .     S
Cu253  O273    1.961   .     S
Cu254  O271    1.948   .     S
Cu254  N267    2.040   .     S
Cu254  O275    1.952   .     S
Cu254  O274    1.961   .     S
Cu254  O270    1.952   .     S
H261   C64     1.087   1_565 S
I265   N543    2.078   .     S
I266   N820    2.078   1_554 S
N267   I817    2.078   1_554 S
N267   N820    1.302   1_554 S
N268   I542    2.078   .     S
N268   N543    1.302   .     S
C277   C294    1.428   .     S
C277   O317    1.295   .     A
C277   O315    1.299   .     A
C278   C280    1.392   .     A
C278   H302    1.086   .     S
C278   C289    1.389   .     A
C279   C297    1.446   .     S
C279   C298    1.392   .     A
C279   C281    1.407   .     A
C280   C282    1.407   .     A
C280   C296    1.446   .     S
C281   C283    1.408   .     A
C281   I309    2.136   .     S
C282   C284    1.408   .     A
C282   I310    2.136   .     S
C283   C285    1.418   .     A
C283   C290    1.408   .     A
C284   C286    1.418   .     A
C284   C291    1.408   .     A
C285   C287    1.411   .     A
C285   C332    1.407   .     S
C286   C289    1.411   .     A
C286   C331    1.407   1_455 S
C287   C298    1.389   .     A
C287   C293    1.397   .     A
C288   O316    1.299   .     A
C288   C295    1.428   .     S
C288   O318    1.295   .     A
C289   C292    1.397   .     A
C290   H303    1.079   .     S
C290   C338    1.390   .     S
C291   H304    1.079   .     S
C291   C339    1.390   1_455 S
C292   H305    1.084   .     S
C292   C336    1.390   1_455 S
C293   H306    1.084   .     S
C293   C337    1.390   .     S
C294   C479    1.330   1_545 S
C294   H491    1.087   1_545 S
C295   C386    1.330   .     S
C295   H400    1.087   .     S
C296   O321    1.299   .     A
C296   O319    1.302   .     A
C297   O320    1.302   .     A
C297   O322    1.299   .     A
C298   H301    1.086   .     S
Cu299  Cu300   2.715   .     S
Cu299  O322    1.952   .     S
Cu299  O318    1.948   .     S
Cu299  O315    1.952   .     S
Cu299  N314    2.040   .     S
Cu299  O319    1.961   .     S
Cu300  O317    1.948   .     S
Cu300  N313    2.040   .     S
Cu300  O321    1.952   .     S
Cu300  O320    1.961   .     S
Cu300  O316    1.952   .     S
H307   C386    1.087   .     S
H308   C479    1.087   1_545 S
I311   N589    2.078   .     S
N314   I588    2.078   .     S
N314   N589    1.302   .     S
C323   C340    1.428   .     S
C323   O363    1.295   .     A
C323   O361    1.299   .     A
C324   C326    1.392   .     A
C324   H348    1.086   .     S
C324   C335    1.389   .     A
C325   C343    1.446   .     S
C325   C344    1.392   .     A
C325   C327    1.407   .     A
C326   C328    1.407   .     A
C326   C342    1.446   .     S
C327   C329    1.408   .     A
C327   I355    2.136   .     S
C328   C330    1.408   .     A
C328   I356    2.136   .     S
C329   C331    1.418   .     A
C329   C336    1.408   .     A
C330   C332    1.418   .     A
C330   C337    1.408   .     A
C331   C333    1.411   .     A
C331   C286    1.407   1_655 S
C332   C335    1.411   .     A
C333   C344    1.389   .     A
C333   C339    1.397   .     A
C334   O362    1.299   .     A
C334   C341    1.428   .     S
C334   O364    1.295   .     A
C335   C338    1.397   .     A
C336   H349    1.079   .     S
C336   C292    1.390   1_655 S
C337   H350    1.079   .     S
C338   H351    1.084   .     S
C339   H352    1.084   .     S
C339   C291    1.390   1_655 S
C340   C525    1.330   1_545 S
C340   H537    1.087   1_545 S
C341   C432    1.330   .     S
C341   H446    1.087   .     S
C342   O367    1.299   .     A
C342   O365    1.302   .     A
C343   O366    1.302   .     A
C343   O368    1.299   .     A
C344   H347    1.086   .     S
Cu345  Cu346   2.715   .     S
Cu345  O368    1.952   .     S
Cu345  O364    1.948   .     S
Cu345  O361    1.952   .     S
Cu345  N360    2.040   .     S
Cu345  O365    1.961   .     S
Cu346  O363    1.948   .     S
Cu346  N359    2.040   .     S
Cu346  O367    1.952   .     S
Cu346  O366    1.961   .     S
Cu346  O362    1.952   .     S
H353   C432    1.087   .     S
H354   C525    1.087   1_545 S
I357   N635    2.078   .     S
N360   I634    2.078   .     S
N360   N635    1.302   .     S
C369   C386    1.428   .     S
C369   O409    1.295   .     A
C369   O407    1.299   .     A
C370   C372    1.392   .     A
C370   H394    1.086   .     S
C370   C381    1.389   .     A
C371   C389    1.446   .     S
C371   C390    1.392   .     A
C371   C373    1.407   .     A
C372   C374    1.407   .     A
C372   C388    1.446   .     S
C373   C375    1.408   .     A
C373   I401    2.136   .     S
C374   C376    1.408   .     A
C374   I402    2.136   .     S
C375   C377    1.418   .     A
C375   C382    1.408   .     A
C376   C378    1.418   .     A
C376   C383    1.408   .     A
C377   C379    1.411   .     A
C377   C424    1.407   .     S
C378   C381    1.411   .     A
C378   C423    1.407   1_455 S
C379   C390    1.389   .     A
C379   C385    1.397   .     A
C380   O408    1.299   .     A
C380   C387    1.428   .     S
C380   O410    1.295   .     A
C381   C384    1.397   .     A
C382   H395    1.079   .     S
C382   C430    1.390   .     S
C383   H396    1.079   .     S
C383   C431    1.390   1_455 S
C384   H397    1.084   .     S
C384   C428    1.390   1_455 S
C385   H398    1.084   .     S
C385   C429    1.390   .     S
C387   C478    1.330   .     S
C387   H492    1.087   .     S
C388   O413    1.299   .     A
C388   O411    1.302   .     A
C389   O412    1.302   .     A
C389   O414    1.299   .     A
C390   H393    1.086   .     S
Cu391  Cu392   2.715   .     S
Cu391  O414    1.952   .     S
Cu391  O410    1.948   .     S
Cu391  O407    1.952   .     S
Cu391  N406    2.040   .     S
Cu391  O411    1.961   .     S
Cu392  O409    1.948   .     S
Cu392  N405    2.040   .     S
Cu392  O413    1.952   .     S
Cu392  O412    1.961   .     S
Cu392  O408    1.952   .     S
H399   C478    1.087   .     S
I403   N681    2.078   .     S
N406   I680    2.078   .     S
N406   N681    1.302   .     S
C415   C432    1.428   .     S
C415   O455    1.295   .     A
C415   O453    1.299   .     A
C416   C418    1.392   .     A
C416   H440    1.086   .     S
C416   C427    1.389   .     A
C417   C435    1.446   .     S
C417   C436    1.392   .     A
C417   C419    1.407   .     A
C418   C420    1.407   .     A
C418   C434    1.446   .     S
C419   C421    1.408   .     A
C419   I447    2.136   .     S
C420   C422    1.408   .     A
C420   I448    2.136   .     S
C421   C423    1.418   .     A
C421   C428    1.408   .     A
C422   C424    1.418   .     A
C422   C429    1.408   .     A
C423   C425    1.411   .     A
C423   C378    1.407   1_655 S
C424   C427    1.411   .     A
C425   C436    1.389   .     A
C425   C431    1.397   .     A
C426   O454    1.299   .     A
C426   C433    1.428   .     S
C426   O456    1.295   .     A
C427   C430    1.397   .     A
C428   H441    1.079   .     S
C428   C384    1.390   1_655 S
C429   H442    1.079   .     S
C430   H443    1.084   .     S
C431   H444    1.084   .     S
C431   C383    1.390   1_655 S
C433   C524    1.330   .     S
C433   H538    1.087   .     S
C434   O459    1.299   .     A
C434   O457    1.302   .     A
C435   O458    1.302   .     A
C435   O460    1.299   .     A
C436   H439    1.086   .     S
Cu437  Cu438   2.715   .     S
Cu437  O460    1.952   .     S
Cu437  O456    1.948   .     S
Cu437  O453    1.952   .     S
Cu437  N452    2.040   .     S
Cu437  O457    1.961   .     S
Cu438  O455    1.948   .     S
Cu438  N451    2.040   .     S
Cu438  O459    1.952   .     S
Cu438  O458    1.961   .     S
Cu438  O454    1.952   .     S
H445   C524    1.087   .     S
I449   N727    2.078   .     S
N452   I726    2.078   .     S
N452   N727    1.302   .     S
C461   C478    1.428   .     S
C461   O501    1.295   .     A
C461   O499    1.299   .     A
C462   C464    1.392   .     A
C462   H486    1.086   .     S
C462   C473    1.389   .     A
C463   C481    1.446   .     S
C463   C482    1.392   .     A
C463   C465    1.407   .     A
C464   C466    1.407   .     A
C464   C480    1.446   .     S
C465   C467    1.408   .     A
C465   I493    2.136   .     S
C466   C468    1.408   .     A
C466   I494    2.136   .     S
C467   C469    1.418   .     A
C467   C474    1.408   .     A
C468   C470    1.418   .     A
C468   C475    1.408   .     A
C469   C471    1.411   .     A
C469   C516    1.407   .     S
C470   C473    1.411   .     A
C470   C515    1.407   1_455 S
C471   C482    1.389   .     A
C471   C477    1.397   .     A
C472   O500    1.299   .     A
C472   C479    1.428   .     S
C472   O502    1.295   .     A
C473   C476    1.397   .     A
C474   H487    1.079   .     S
C474   C522    1.390   .     S
C475   H488    1.079   .     S
C475   C523    1.390   1_455 S
C476   H489    1.084   .     S
C476   C520    1.390   1_455 S
C477   H490    1.084   .     S
C477   C521    1.390   .     S
C479   C294    1.330   1_565 S
C479   H308    1.087   1_565 S
C480   O505    1.299   .     A
C480   O503    1.302   .     A
C481   O504    1.302   .     A
C481   O506    1.299   .     A
C482   H485    1.086   .     S
Cu483  Cu484   2.715   .     S
Cu483  O506    1.952   .     S
Cu483  O502    1.948   .     S
Cu483  O499    1.952   .     S
Cu483  N498    2.040   .     S
Cu483  O503    1.961   .     S
Cu484  O501    1.948   .     S
Cu484  N497    2.040   .     S
Cu484  O505    1.952   .     S
Cu484  O504    1.961   .     S
Cu484  O500    1.952   .     S
H491   C294    1.087   1_565 S
I495   N773    2.078   .     S
N498   I772    2.078   .     S
N498   N773    1.302   .     S
C507   C524    1.428   .     S
C507   O547    1.295   .     A
C507   O545    1.299   .     A
C508   C510    1.392   .     A
C508   H532    1.086   .     S
C508   C519    1.389   .     A
C509   C527    1.446   .     S
C509   C528    1.392   .     A
C509   C511    1.407   .     A
C510   C512    1.407   .     A
C510   C526    1.446   .     S
C511   C513    1.408   .     A
C511   I539    2.136   .     S
C512   C514    1.408   .     A
C512   I540    2.136   .     S
C513   C515    1.418   .     A
C513   C520    1.408   .     A
C514   C516    1.418   .     A
C514   C521    1.408   .     A
C515   C517    1.411   .     A
C515   C470    1.407   1_655 S
C516   C519    1.411   .     A
C517   C528    1.389   .     A
C517   C523    1.397   .     A
C518   O546    1.299   .     A
C518   C525    1.428   .     S
C518   O548    1.295   .     A
C519   C522    1.397   .     A
C520   H533    1.079   .     S
C520   C476    1.390   1_655 S
C521   H534    1.079   .     S
C522   H535    1.084   .     S
C523   H536    1.084   .     S
C523   C475    1.390   1_655 S
C525   C340    1.330   1_565 S
C525   H354    1.087   1_565 S
C526   O551    1.299   .     A
C526   O549    1.302   .     A
C527   O550    1.302   .     A
C527   O552    1.299   .     A
C528   H531    1.086   .     S
Cu529  Cu530   2.715   .     S
Cu529  O552    1.952   .     S
Cu529  O548    1.948   .     S
Cu529  O545    1.952   .     S
Cu529  N544    2.040   .     S
Cu529  O549    1.961   .     S
Cu530  O547    1.948   .     S
Cu530  N543    2.040   .     S
Cu530  O551    1.952   .     S
Cu530  O550    1.961   .     S
Cu530  O546    1.952   .     S
H537   C340    1.087   1_565 S
I541   N819    2.078   .     S
N544   I818    2.078   .     S
N544   N819    1.302   .     S
C553   C570    1.428   .     S
C553   O593    1.295   .     A
C553   O591    1.299   .     A
C554   C556    1.392   .     A
C554   H578    1.086   .     S
C554   C565    1.389   .     A
C555   C573    1.446   .     S
C555   C574    1.392   .     A
C555   C557    1.407   .     A
C556   C558    1.407   .     A
C556   C572    1.446   .     S
C557   C559    1.408   .     A
C557   I585    2.136   .     S
C558   C560    1.408   .     A
C558   I586    2.136   .     S
C559   C561    1.418   .     A
C559   C566    1.408   .     A
C560   C562    1.418   .     A
C560   C567    1.408   .     A
C561   C563    1.411   .     A
C561   C608    1.407   .     S
C562   C565    1.411   .     A
C562   C607    1.407   1_455 S
C563   C574    1.389   .     A
C563   C569    1.397   .     A
C564   O592    1.299   .     A
C564   C571    1.428   .     S
C564   O594    1.295   .     A
C565   C568    1.397   .     A
C566   H579    1.079   .     S
C566   C614    1.390   .     S
C567   H580    1.079   .     S
C567   C615    1.390   1_455 S
C568   H581    1.084   .     S
C568   C612    1.390   1_455 S
C569   H582    1.084   .     S
C569   C613    1.390   .     S
C570   C755    1.330   1_545 S
C570   H767    1.087   1_545 S
C571   C662    1.330   .     S
C571   H676    1.087   .     S
C572   O597    1.299   .     A
C572   O595    1.302   .     A
C573   O596    1.302   .     A
C573   O598    1.299   .     A
C574   H577    1.086   .     S
Cu575  Cu576   2.715   .     S
Cu575  O598    1.952   .     S
Cu575  O594    1.948   .     S
Cu575  O591    1.952   .     S
Cu575  N590    2.040   .     S
Cu575  O595    1.961   .     S
Cu576  O593    1.948   .     S
Cu576  N589    2.040   .     S
Cu576  O597    1.952   .     S
Cu576  O596    1.961   .     S
Cu576  O592    1.952   .     S
H583   C662    1.087   .     S
H584   C755    1.087   1_545 S
I587   N37     2.078   1_556 S
N590   I36     2.078   1_556 S
N590   N37     1.302   1_556 S
C599   C616    1.428   .     S
C599   O639    1.295   .     A
C599   O637    1.299   .     A
C600   C602    1.392   .     A
C600   H624    1.086   .     S
C600   C611    1.389   .     A
C601   C619    1.446   .     S
C601   C620    1.392   .     A
C601   C603    1.407   .     A
C602   C604    1.407   .     A
C602   C618    1.446   .     S
C603   C605    1.408   .     A
C603   I631    2.136   .     S
C604   C606    1.408   .     A
C604   I632    2.136   .     S
C605   C607    1.418   .     A
C605   C612    1.408   .     A
C606   C608    1.418   .     A
C606   C613    1.408   .     A
C607   C609    1.411   .     A
C607   C562    1.407   1_655 S
C608   C611    1.411   .     A
C609   C620    1.389   .     A
C609   C615    1.397   .     A
C610   O638    1.299   .     A
C610   C617    1.428   .     S
C610   O640    1.295   .     A
C611   C614    1.397   .     A
C612   H625    1.079   .     S
C612   C568    1.390   1_655 S
C613   H626    1.079   .     S
C614   H627    1.084   .     S
C615   H628    1.084   .     S
C615   C567    1.390   1_655 S
C616   C801    1.330   1_545 S
C616   H813    1.087   1_545 S
C617   C708    1.330   .     S
C617   H722    1.087   .     S
C618   O643    1.299   .     A
C618   O641    1.302   .     A
C619   O642    1.302   .     A
C619   O644    1.299   .     A
C620   H623    1.086   .     S
Cu621  Cu622   2.715   .     S
Cu621  O644    1.952   .     S
Cu621  O640    1.948   .     S
Cu621  O637    1.952   .     S
Cu621  N636    2.040   .     S
Cu621  O641    1.961   .     S
Cu622  O639    1.948   .     S
Cu622  N635    2.040   .     S
Cu622  O643    1.952   .     S
Cu622  O642    1.961   .     S
Cu622  O638    1.952   .     S
H629   C708    1.087   .     S
H630   C801    1.087   1_545 S
I633   N83     2.078   1_556 S
N636   I82     2.078   1_556 S
N636   N83     1.302   1_556 S
C645   C662    1.428   .     S
C645   O685    1.295   .     A
C645   O683    1.299   .     A
C646   C648    1.392   .     A
C646   H670    1.086   .     S
C646   C657    1.389   .     A
C647   C665    1.446   .     S
C647   C666    1.392   .     A
C647   C649    1.407   .     A
C648   C650    1.407   .     A
C648   C664    1.446   .     S
C649   C651    1.408   .     A
C649   I677    2.136   .     S
C650   C652    1.408   .     A
C650   I678    2.136   .     S
C651   C653    1.418   .     A
C651   C658    1.408   .     A
C652   C654    1.418   .     A
C652   C659    1.408   .     A
C653   C655    1.411   .     A
C653   C700    1.407   .     S
C654   C657    1.411   .     A
C654   C699    1.407   1_455 S
C655   C666    1.389   .     A
C655   C661    1.397   .     A
C656   O684    1.299   .     A
C656   C663    1.428   .     S
C656   O686    1.295   .     A
C657   C660    1.397   .     A
C658   H671    1.079   .     S
C658   C706    1.390   .     S
C659   H672    1.079   .     S
C659   C707    1.390   1_455 S
C660   H673    1.084   .     S
C660   C704    1.390   1_455 S
C661   H674    1.084   .     S
C661   C705    1.390   .     S
C663   C754    1.330   .     S
C663   H768    1.087   .     S
C664   O689    1.299   .     A
C664   O687    1.302   .     A
C665   O688    1.302   .     A
C665   O690    1.299   .     A
C666   H669    1.086   .     S
Cu667  Cu668   2.715   .     S
Cu667  O690    1.952   .     S
Cu667  O686    1.948   .     S
Cu667  O683    1.952   .     S
Cu667  N682    2.040   .     S
Cu667  O687    1.961   .     S
Cu668  O685    1.948   .     S
Cu668  N681    2.040   .     S
Cu668  O689    1.952   .     S
Cu668  O688    1.961   .     S
Cu668  O684    1.952   .     S
H675   C754    1.087   .     S
I679   N129    2.078   1_556 S
N682   I128    2.078   1_556 S
N682   N129    1.302   1_556 S
C691   C708    1.428   .     S
C691   O731    1.295   .     A
C691   O729    1.299   .     A
C692   C694    1.392   .     A
C692   H716    1.086   .     S
C692   C703    1.389   .     A
C693   C711    1.446   .     S
C693   C712    1.392   .     A
C693   C695    1.407   .     A
C694   C696    1.407   .     A
C694   C710    1.446   .     S
C695   C697    1.408   .     A
C695   I723    2.136   .     S
C696   C698    1.408   .     A
C696   I724    2.136   .     S
C697   C699    1.418   .     A
C697   C704    1.408   .     A
C698   C700    1.418   .     A
C698   C705    1.408   .     A
C699   C701    1.411   .     A
C699   C654    1.407   1_655 S
C700   C703    1.411   .     A
C701   C712    1.389   .     A
C701   C707    1.397   .     A
C702   O730    1.299   .     A
C702   C709    1.428   .     S
C702   O732    1.295   .     A
C703   C706    1.397   .     A
C704   H717    1.079   .     S
C704   C660    1.390   1_655 S
C705   H718    1.079   .     S
C706   H719    1.084   .     S
C707   H720    1.084   .     S
C707   C659    1.390   1_655 S
C709   C800    1.330   .     S
C709   H814    1.087   .     S
C710   O735    1.299   .     A
C710   O733    1.302   .     A
C711   O734    1.302   .     A
C711   O736    1.299   .     A
C712   H715    1.086   .     S
Cu713  Cu714   2.715   .     S
Cu713  O736    1.952   .     S
Cu713  O732    1.948   .     S
Cu713  O729    1.952   .     S
Cu713  N728    2.040   .     S
Cu713  O733    1.961   .     S
Cu714  O731    1.948   .     S
Cu714  N727    2.040   .     S
Cu714  O735    1.952   .     S
Cu714  O734    1.961   .     S
Cu714  O730    1.952   .     S
H721   C800    1.087   .     S
I725   N175    2.078   1_556 S
N728   I174    2.078   1_556 S
N728   N175    1.302   1_556 S
C737   C754    1.428   .     S
C737   O777    1.295   .     A
C737   O775    1.299   .     A
C738   C740    1.392   .     A
C738   H762    1.086   .     S
C738   C749    1.389   .     A
C739   C757    1.446   .     S
C739   C758    1.392   .     A
C739   C741    1.407   .     A
C740   C742    1.407   .     A
C740   C756    1.446   .     S
C741   C743    1.408   .     A
C741   I769    2.136   .     S
C742   C744    1.408   .     A
C742   I770    2.136   .     S
C743   C745    1.418   .     A
C743   C750    1.408   .     A
C744   C746    1.418   .     A
C744   C751    1.408   .     A
C745   C747    1.411   .     A
C745   C792    1.407   .     S
C746   C749    1.411   .     A
C746   C791    1.407   1_455 S
C747   C758    1.389   .     A
C747   C753    1.397   .     A
C748   O776    1.299   .     A
C748   C755    1.428   .     S
C748   O778    1.295   .     A
C749   C752    1.397   .     A
C750   H763    1.079   .     S
C750   C798    1.390   .     S
C751   H764    1.079   .     S
C751   C799    1.390   1_455 S
C752   H765    1.084   .     S
C752   C796    1.390   1_455 S
C753   H766    1.084   .     S
C753   C797    1.390   .     S
C755   C570    1.330   1_565 S
C755   H584    1.087   1_565 S
C756   O781    1.299   .     A
C756   O779    1.302   .     A
C757   O780    1.302   .     A
C757   O782    1.299   .     A
C758   H761    1.086   .     S
Cu759  Cu760   2.715   .     S
Cu759  O782    1.952   .     S
Cu759  O778    1.948   .     S
Cu759  O775    1.952   .     S
Cu759  N774    2.040   .     S
Cu759  O779    1.961   .     S
Cu760  O777    1.948   .     S
Cu760  N773    2.040   .     S
Cu760  O781    1.952   .     S
Cu760  O780    1.961   .     S
Cu760  O776    1.952   .     S
H767   C570    1.087   1_565 S
I771   N221    2.078   1_556 S
N774   I220    2.078   1_556 S
N774   N221    1.302   1_556 S
C783   C800    1.428   .     S
C783   O823    1.295   .     A
C783   O821    1.299   .     A
C784   C786    1.392   .     A
C784   H808    1.086   .     S
C784   C795    1.389   .     A
C785   C803    1.446   .     S
C785   C804    1.392   .     A
C785   C787    1.407   .     A
C786   C788    1.407   .     A
C786   C802    1.446   .     S
C787   C789    1.408   .     A
C787   I815    2.136   .     S
C788   C790    1.408   .     A
C788   I816    2.136   .     S
C789   C791    1.418   .     A
C789   C796    1.408   .     A
C790   C792    1.418   .     A
C790   C797    1.408   .     A
C791   C793    1.411   .     A
C791   C746    1.407   1_655 S
C792   C795    1.411   .     A
C793   C804    1.389   .     A
C793   C799    1.397   .     A
C794   O822    1.299   .     A
C794   C801    1.428   .     S
C794   O824    1.295   .     A
C795   C798    1.397   .     A
C796   H809    1.079   .     S
C796   C752    1.390   1_655 S
C797   H810    1.079   .     S
C798   H811    1.084   .     S
C799   H812    1.084   .     S
C799   C751    1.390   1_655 S
C801   C616    1.330   1_565 S
C801   H630    1.087   1_565 S
C802   O827    1.299   .     A
C802   O825    1.302   .     A
C803   O826    1.302   .     A
C803   O828    1.299   .     A
C804   H807    1.086   .     S
Cu805  Cu806   2.715   .     S
Cu805  O828    1.952   .     S
Cu805  O824    1.948   .     S
Cu805  O821    1.952   .     S
Cu805  N820    2.040   .     S
Cu805  O825    1.961   .     S
Cu806  O823    1.948   .     S
Cu806  N819    2.040   .     S
Cu806  O827    1.952   .     S
Cu806  O826    1.961   .     S
Cu806  O822    1.952   .     S
H813   C616    1.087   1_565 S
I817   N267    2.078   1_556 S
N820   I266    2.078   1_556 S
N820   N267    1.302   1_556 S
