data_str_m2_o1_o17_pcu_sym.69
_audit_creation_date              2020-01-03
_audit_creation_method            'Materials Studio'
_symmetry_space_group_name_H-M    'P1'
_symmetry_Int_Tables_number       1
_symmetry_cell_setting            triclinic
loop_
_symmetry_equiv_pos_as_xyz
  x,y,z
_cell_length_a                    32.4923
_cell_length_b                    28.5190
_cell_length_c                    30.1851
_cell_angle_alpha                 90.2304
_cell_angle_beta                  90.4089
_cell_angle_gamma                 90.0522
loop_
_atom_site_label
_atom_site_type_symbol
_atom_site_fract_x
_atom_site_fract_y
_atom_site_fract_z
_atom_site_U_iso_or_equiv
_atom_site_adp_type
_atom_site_occupancy
C1     C     0.08734   0.16665   0.25002   0.00000  Uiso   1.00
C2     C     0.04274   0.16665   0.25005   0.00000  Uiso   1.00
C3     C     0.14130   0.02468   0.22208   0.00000  Uiso   1.00
C4     C     0.19204   0.30865   0.27792   0.00000  Uiso   1.00
C5     C     0.19205   0.02496   0.27792   0.00000  Uiso   1.00
C6     C     0.14129   0.30837   0.22208   0.00000  Uiso   1.00
C7     C     0.16738   0.16654   0.16432   0.00000  Uiso   1.00
C8     C     0.16595   0.16680   0.33568   0.00000  Uiso   1.00
C9     C     0.17831   0.12736   0.40694   0.00000  Uiso   1.00
C10    C     0.15503   0.20597   0.09306   0.00000  Uiso   1.00
C11    C     0.16453   0.16705   0.38408   0.00000  Uiso   1.00
C12    C     0.24599   0.16668   0.24998   0.00000  Uiso   1.00
C13    C     0.16881   0.16628   0.11592   0.00000  Uiso   1.00
C14    C     0.14961   0.20645   0.40754   0.00000  Uiso   1.00
C15    C     0.18373   0.12688   0.09246   0.00000  Uiso   1.00
C16    C     0.15143   0.20683   0.45404   0.00000  Uiso   1.00
C17    C     0.18191   0.12651   0.04596   0.00000  Uiso   1.00
C18    C     0.16593   0.16676   0.47673   0.00000  Uiso   1.00
C19    C     0.16742   0.16658   0.02327   0.00000  Uiso   1.00
C20    C     0.17897   0.12685   0.45299   0.00000  Uiso   1.00
C21    C     0.15437   0.20649   0.04701   0.00000  Uiso   1.00
C22    C     0.13896   0.24644   0.47829   0.00000  Uiso   1.00
C23    C     0.14037   0.24620   0.02438   0.00000  Uiso   1.00
C24    C     0.19438   0.08689   0.02171   0.00000  Uiso   1.00
C25    C     0.09246   0.23844   0.37642   0.00000  Uiso   1.00
C26    C     0.24088   0.09488   0.12358   0.00000  Uiso   1.00
C27    C     0.19297   0.08713   0.47562   0.00000  Uiso   1.00
C28    C     0.02122   0.12418   0.24662   0.00000  Uiso   1.00
C29    C     0.31211   0.20915   0.25338   0.00000  Uiso   1.00
C30    C     0.31198   0.12420   0.24655   0.00000  Uiso   1.00
C31    C     0.02135   0.20913   0.25345   0.00000  Uiso   1.00
C32    C     0.29060   0.16668   0.24995   0.00000  Uiso   1.00
Cu33   Cu    0.16667   0.21355   0.25000   0.00000  Uiso   1.00
Cu34   Cu    0.16667   0.11978   0.25000   0.00000  Uiso   1.00
H35    H     0.18928   0.09698   0.38881   0.00000  Uiso   1.00
H36    H     0.03743   0.24232   0.25627   0.00000  Uiso   1.00
H37    H     0.12098   0.04331   0.19973   0.00000  Uiso   1.00
H38    H     0.21235   0.29002   0.30027   0.00000  Uiso   1.00
H39    H     0.21237   0.04382   0.30026   0.00000  Uiso   1.00
H40    H     0.12096   0.28951   0.19974   0.00000  Uiso   1.00
H41    H     0.08699   0.20714   0.35502   0.00000  Uiso   1.00
H42    H     0.08058   0.26943   0.35830   0.00000  Uiso   1.00
H43    H     0.07470   0.23533   0.40767   0.00000  Uiso   1.00
H44    H     0.25276   0.06389   0.14168   0.00000  Uiso   1.00
H45    H     0.24635   0.12617   0.14500   0.00000  Uiso   1.00
H46    H     0.14406   0.23635   0.11119   0.00000  Uiso   1.00
H47    H     0.25864   0.09802   0.09233   0.00000  Uiso   1.00
H48    H     0.12803   0.27775   0.46179   0.00000  Uiso   1.00
H49    H     0.20531   0.05559   0.03821   0.00000  Uiso   1.00
H50    H     0.13040   0.27710   0.04235   0.00000  Uiso   1.00
H51    H     0.20294   0.05624   0.45765   0.00000  Uiso   1.00
H52    H     0.03720   0.09099   0.24384   0.00000  Uiso   1.00
H53    H     0.29613   0.24235   0.25616   0.00000  Uiso   1.00
H54    H     0.29590   0.09102   0.24373   0.00000  Uiso   1.00
N55    N     0.16667   0.28402   0.25000   0.00000  Uiso   1.00
N56    N     0.16667   0.04931   0.25000   0.00000  Uiso   1.00
O57    O     0.10655   0.20625   0.25000   0.00000  Uiso   1.00
O58    O     0.19857   0.08805   0.11487   0.00000  Uiso   1.00
O59    O     0.22679   0.12709   0.25001   0.00000  Uiso   1.00
O60    O     0.22679   0.20625   0.25001   0.00000  Uiso   1.00
O61    O     0.10655   0.12709   0.25000   0.00000  Uiso   1.00
O62    O     0.16666   0.20627   0.18513   0.00000  Uiso   1.00
O63    O     0.16668   0.12707   0.31487   0.00000  Uiso   1.00
O64    O     0.16668   0.20627   0.31487   0.00000  Uiso   1.00
O65    O     0.16666   0.12707   0.18513   0.00000  Uiso   1.00
O66    O     0.13477   0.24528   0.38513   0.00000  Uiso   1.00
C67    C     0.42068   0.16665   0.25002   0.00000  Uiso   1.00
C68    C     0.37607   0.16665   0.25005   0.00000  Uiso   1.00
C69    C     0.47463   0.02468   0.22208   0.00000  Uiso   1.00
C70    C     0.52537   0.30865   0.27792   0.00000  Uiso   1.00
C71    C     0.52538   0.02496   0.27792   0.00000  Uiso   1.00
C72    C     0.47462   0.30837   0.22208   0.00000  Uiso   1.00
C73    C     0.50072   0.16654   0.16432   0.00000  Uiso   1.00
C74    C     0.49928   0.16680   0.33568   0.00000  Uiso   1.00
C75    C     0.51164   0.12736   0.40694   0.00000  Uiso   1.00
C76    C     0.48836   0.20597   0.09306   0.00000  Uiso   1.00
C77    C     0.49786   0.16705   0.38408   0.00000  Uiso   1.00
C78    C     0.57932   0.16668   0.24998   0.00000  Uiso   1.00
C79    C     0.50214   0.16628   0.11592   0.00000  Uiso   1.00
C80    C     0.48295   0.20645   0.40754   0.00000  Uiso   1.00
C81    C     0.51706   0.12688   0.09246   0.00000  Uiso   1.00
C82    C     0.48476   0.20683   0.45404   0.00000  Uiso   1.00
C83    C     0.51525   0.12651   0.04596   0.00000  Uiso   1.00
C84    C     0.49926   0.16676   0.47673   0.00000  Uiso   1.00
C85    C     0.50075   0.16658   0.02327   0.00000  Uiso   1.00
C86    C     0.51230   0.12685   0.45299   0.00000  Uiso   1.00
C87    C     0.48771   0.20649   0.04701   0.00000  Uiso   1.00
C88    C     0.47229   0.24644   0.47829   0.00000  Uiso   1.00
C89    C     0.47370   0.24620   0.02438   0.00000  Uiso   1.00
C90    C     0.52772   0.08689   0.02171   0.00000  Uiso   1.00
C91    C     0.42579   0.23844   0.37642   0.00000  Uiso   1.00
C92    C     0.57422   0.09488   0.12358   0.00000  Uiso   1.00
C93    C     0.52630   0.08713   0.47562   0.00000  Uiso   1.00
C94    C     0.35456   0.12418   0.24662   0.00000  Uiso   1.00
C95    C     0.64544   0.20915   0.25338   0.00000  Uiso   1.00
C96    C     0.64531   0.12420   0.24655   0.00000  Uiso   1.00
C97    C     0.35469   0.20913   0.25345   0.00000  Uiso   1.00
C98    C     0.62393   0.16668   0.24995   0.00000  Uiso   1.00
Cu99   Cu    0.50000   0.21355   0.25000   0.00000  Uiso   1.00
Cu100  Cu    0.50000   0.11978   0.25000   0.00000  Uiso   1.00
H101   H     0.52261   0.09698   0.38881   0.00000  Uiso   1.00
H102   H     0.37077   0.24232   0.25627   0.00000  Uiso   1.00
H103   H     0.45432   0.04331   0.19973   0.00000  Uiso   1.00
H104   H     0.54568   0.29002   0.30027   0.00000  Uiso   1.00
H105   H     0.54570   0.04382   0.30026   0.00000  Uiso   1.00
H106   H     0.45430   0.28951   0.19974   0.00000  Uiso   1.00
H107   H     0.42032   0.20714   0.35502   0.00000  Uiso   1.00
H108   H     0.41391   0.26943   0.35830   0.00000  Uiso   1.00
H109   H     0.40803   0.23533   0.40767   0.00000  Uiso   1.00
H110   H     0.58610   0.06389   0.14168   0.00000  Uiso   1.00
H111   H     0.57968   0.12617   0.14500   0.00000  Uiso   1.00
H112   H     0.47739   0.23635   0.11119   0.00000  Uiso   1.00
H113   H     0.59197   0.09802   0.09233   0.00000  Uiso   1.00
H114   H     0.46136   0.27775   0.46179   0.00000  Uiso   1.00
H115   H     0.53865   0.05559   0.03821   0.00000  Uiso   1.00
H116   H     0.46373   0.27710   0.04235   0.00000  Uiso   1.00
H117   H     0.53628   0.05624   0.45765   0.00000  Uiso   1.00
H118   H     0.37053   0.09099   0.24384   0.00000  Uiso   1.00
H119   H     0.62947   0.24235   0.25616   0.00000  Uiso   1.00
H120   H     0.62923   0.09102   0.24373   0.00000  Uiso   1.00
N121   N     0.50000   0.28402   0.25000   0.00000  Uiso   1.00
N122   N     0.50000   0.04931   0.25000   0.00000  Uiso   1.00
O123   O     0.43988   0.20625   0.25000   0.00000  Uiso   1.00
O124   O     0.53190   0.08805   0.11487   0.00000  Uiso   1.00
O125   O     0.56012   0.12709   0.25001   0.00000  Uiso   1.00
O126   O     0.56012   0.20625   0.25001   0.00000  Uiso   1.00
O127   O     0.43988   0.12709   0.25000   0.00000  Uiso   1.00
O128   O     0.49999   0.20627   0.18513   0.00000  Uiso   1.00
O129   O     0.50001   0.12707   0.31487   0.00000  Uiso   1.00
O130   O     0.50001   0.20627   0.31487   0.00000  Uiso   1.00
O131   O     0.49999   0.12707   0.18513   0.00000  Uiso   1.00
O132   O     0.46810   0.24528   0.38513   0.00000  Uiso   1.00
C133   C     0.75401   0.16665   0.25002   0.00000  Uiso   1.00
C134   C     0.70940   0.16665   0.25005   0.00000  Uiso   1.00
C135   C     0.80796   0.02468   0.22208   0.00000  Uiso   1.00
C136   C     0.85870   0.30865   0.27792   0.00000  Uiso   1.00
C137   C     0.85871   0.02496   0.27792   0.00000  Uiso   1.00
C138   C     0.80795   0.30837   0.22208   0.00000  Uiso   1.00
C139   C     0.83405   0.16654   0.16432   0.00000  Uiso   1.00
C140   C     0.83262   0.16680   0.33568   0.00000  Uiso   1.00
C141   C     0.84498   0.12736   0.40694   0.00000  Uiso   1.00
C142   C     0.82170   0.20597   0.09306   0.00000  Uiso   1.00
C143   C     0.83119   0.16705   0.38408   0.00000  Uiso   1.00
C144   C     0.91266   0.16668   0.24998   0.00000  Uiso   1.00
C145   C     0.83548   0.16628   0.11592   0.00000  Uiso   1.00
C146   C     0.81628   0.20645   0.40754   0.00000  Uiso   1.00
C147   C     0.85039   0.12688   0.09246   0.00000  Uiso   1.00
C148   C     0.81809   0.20683   0.45404   0.00000  Uiso   1.00
C149   C     0.84858   0.12651   0.04596   0.00000  Uiso   1.00
C150   C     0.83259   0.16676   0.47673   0.00000  Uiso   1.00
C151   C     0.83408   0.16658   0.02327   0.00000  Uiso   1.00
C152   C     0.84563   0.12685   0.45299   0.00000  Uiso   1.00
C153   C     0.82104   0.20649   0.04701   0.00000  Uiso   1.00
C154   C     0.80562   0.24644   0.47829   0.00000  Uiso   1.00
C155   C     0.80704   0.24620   0.02438   0.00000  Uiso   1.00
C156   C     0.86105   0.08689   0.02171   0.00000  Uiso   1.00
C157   C     0.75912   0.23844   0.37642   0.00000  Uiso   1.00
C158   C     0.90755   0.09488   0.12358   0.00000  Uiso   1.00
C159   C     0.85964   0.08713   0.47562   0.00000  Uiso   1.00
C160   C     0.68789   0.12418   0.24662   0.00000  Uiso   1.00
C161   C     0.97878   0.20915   0.25338   0.00000  Uiso   1.00
C162   C     0.97865   0.12420   0.24655   0.00000  Uiso   1.00
C163   C     0.68802   0.20913   0.25345   0.00000  Uiso   1.00
C164   C     0.95726   0.16668   0.24995   0.00000  Uiso   1.00
Cu165  Cu    0.83333   0.21355   0.25000   0.00000  Uiso   1.00
Cu166  Cu    0.83333   0.11978   0.25000   0.00000  Uiso   1.00
H167   H     0.85595   0.09698   0.38881   0.00000  Uiso   1.00
H168   H     0.70410   0.24232   0.25627   0.00000  Uiso   1.00
H169   H     0.78765   0.04331   0.19973   0.00000  Uiso   1.00
H170   H     0.87902   0.29002   0.30027   0.00000  Uiso   1.00
H171   H     0.87904   0.04382   0.30026   0.00000  Uiso   1.00
H172   H     0.78763   0.28951   0.19974   0.00000  Uiso   1.00
H173   H     0.75366   0.20714   0.35502   0.00000  Uiso   1.00
H174   H     0.74724   0.26943   0.35830   0.00000  Uiso   1.00
H175   H     0.74136   0.23533   0.40767   0.00000  Uiso   1.00
H176   H     0.91943   0.06389   0.14168   0.00000  Uiso   1.00
H177   H     0.91301   0.12617   0.14500   0.00000  Uiso   1.00
H178   H     0.81073   0.23635   0.11119   0.00000  Uiso   1.00
H179   H     0.92530   0.09802   0.09233   0.00000  Uiso   1.00
H180   H     0.79469   0.27775   0.46179   0.00000  Uiso   1.00
H181   H     0.87198   0.05559   0.03821   0.00000  Uiso   1.00
H182   H     0.79706   0.27710   0.04235   0.00000  Uiso   1.00
H183   H     0.86961   0.05624   0.45765   0.00000  Uiso   1.00
H184   H     0.70387   0.09099   0.24384   0.00000  Uiso   1.00
H185   H     0.96280   0.24235   0.25616   0.00000  Uiso   1.00
H186   H     0.96257   0.09102   0.24373   0.00000  Uiso   1.00
N187   N     0.83333   0.28402   0.25000   0.00000  Uiso   1.00
N188   N     0.83333   0.04931   0.25000   0.00000  Uiso   1.00
O189   O     0.77321   0.20625   0.25000   0.00000  Uiso   1.00
O190   O     0.86523   0.08805   0.11487   0.00000  Uiso   1.00
O191   O     0.89345   0.12709   0.25001   0.00000  Uiso   1.00
O192   O     0.89345   0.20625   0.25001   0.00000  Uiso   1.00
O193   O     0.77321   0.12709   0.25000   0.00000  Uiso   1.00
O194   O     0.83332   0.20627   0.18513   0.00000  Uiso   1.00
O195   O     0.83334   0.12707   0.31487   0.00000  Uiso   1.00
O196   O     0.83334   0.20627   0.31487   0.00000  Uiso   1.00
O197   O     0.83332   0.12707   0.18513   0.00000  Uiso   1.00
O198   O     0.80144   0.24528   0.38513   0.00000  Uiso   1.00
C199   C     0.08734   0.49999   0.25002   0.00000  Uiso   1.00
C200   C     0.04274   0.49998   0.25005   0.00000  Uiso   1.00
C201   C     0.14130   0.35801   0.22208   0.00000  Uiso   1.00
C202   C     0.19204   0.64199   0.27792   0.00000  Uiso   1.00
C203   C     0.19205   0.35830   0.27792   0.00000  Uiso   1.00
C204   C     0.14129   0.64170   0.22208   0.00000  Uiso   1.00
C205   C     0.16738   0.49987   0.16432   0.00000  Uiso   1.00
C206   C     0.16595   0.50013   0.33568   0.00000  Uiso   1.00
C207   C     0.17831   0.46070   0.40694   0.00000  Uiso   1.00
C208   C     0.15503   0.53930   0.09306   0.00000  Uiso   1.00
C209   C     0.16453   0.50038   0.38408   0.00000  Uiso   1.00
C210   C     0.24599   0.50001   0.24998   0.00000  Uiso   1.00
C211   C     0.16881   0.49962   0.11592   0.00000  Uiso   1.00
C212   C     0.14961   0.53979   0.40754   0.00000  Uiso   1.00
C213   C     0.18373   0.46021   0.09246   0.00000  Uiso   1.00
C214   C     0.15143   0.54016   0.45404   0.00000  Uiso   1.00
C215   C     0.18191   0.45984   0.04596   0.00000  Uiso   1.00
C216   C     0.16593   0.50009   0.47673   0.00000  Uiso   1.00
C217   C     0.16742   0.49991   0.02327   0.00000  Uiso   1.00
C218   C     0.17897   0.46018   0.45299   0.00000  Uiso   1.00
C219   C     0.15437   0.53982   0.04701   0.00000  Uiso   1.00
C220   C     0.13896   0.57977   0.47829   0.00000  Uiso   1.00
C221   C     0.14037   0.57954   0.02438   0.00000  Uiso   1.00
C222   C     0.19438   0.42023   0.02171   0.00000  Uiso   1.00
C223   C     0.09246   0.57178   0.37642   0.00000  Uiso   1.00
C224   C     0.24088   0.42822   0.12358   0.00000  Uiso   1.00
C225   C     0.19297   0.42047   0.47562   0.00000  Uiso   1.00
C226   C     0.02122   0.45751   0.24662   0.00000  Uiso   1.00
C227   C     0.31211   0.54249   0.25338   0.00000  Uiso   1.00
C228   C     0.31198   0.45753   0.24655   0.00000  Uiso   1.00
C229   C     0.02135   0.54247   0.25345   0.00000  Uiso   1.00
C230   C     0.29060   0.50002   0.24995   0.00000  Uiso   1.00
Cu231  Cu    0.16667   0.54689   0.25000   0.00000  Uiso   1.00
Cu232  Cu    0.16667   0.45311   0.25000   0.00000  Uiso   1.00
H233   H     0.18928   0.43031   0.38881   0.00000  Uiso   1.00
H234   H     0.03743   0.57565   0.25627   0.00000  Uiso   1.00
H235   H     0.12098   0.37664   0.19973   0.00000  Uiso   1.00
H236   H     0.21235   0.62336   0.30027   0.00000  Uiso   1.00
H237   H     0.21237   0.37715   0.30026   0.00000  Uiso   1.00
H238   H     0.12096   0.62285   0.19974   0.00000  Uiso   1.00
H239   H     0.08699   0.54047   0.35502   0.00000  Uiso   1.00
H240   H     0.08058   0.60276   0.35830   0.00000  Uiso   1.00
H241   H     0.07470   0.56867   0.40767   0.00000  Uiso   1.00
H242   H     0.25276   0.39722   0.14168   0.00000  Uiso   1.00
H243   H     0.24635   0.45951   0.14500   0.00000  Uiso   1.00
H244   H     0.14406   0.56969   0.11119   0.00000  Uiso   1.00
H245   H     0.25864   0.43135   0.09233   0.00000  Uiso   1.00
H246   H     0.12803   0.61108   0.46179   0.00000  Uiso   1.00
H247   H     0.20531   0.38892   0.03821   0.00000  Uiso   1.00
H248   H     0.13040   0.61043   0.04235   0.00000  Uiso   1.00
H249   H     0.20294   0.38957   0.45765   0.00000  Uiso   1.00
H250   H     0.03720   0.42432   0.24384   0.00000  Uiso   1.00
H251   H     0.29613   0.57568   0.25616   0.00000  Uiso   1.00
H252   H     0.29590   0.42435   0.24373   0.00000  Uiso   1.00
N253   N     0.16667   0.61736   0.25000   0.00000  Uiso   1.00
N254   N     0.16667   0.38264   0.25000   0.00000  Uiso   1.00
O255   O     0.10655   0.53958   0.25000   0.00000  Uiso   1.00
O256   O     0.19857   0.42139   0.11487   0.00000  Uiso   1.00
O257   O     0.22679   0.46042   0.25001   0.00000  Uiso   1.00
O258   O     0.22679   0.53958   0.25001   0.00000  Uiso   1.00
O259   O     0.10655   0.46042   0.25000   0.00000  Uiso   1.00
O260   O     0.16666   0.53960   0.18513   0.00000  Uiso   1.00
O261   O     0.16668   0.46040   0.31487   0.00000  Uiso   1.00
O262   O     0.16668   0.53960   0.31487   0.00000  Uiso   1.00
O263   O     0.16666   0.46040   0.18513   0.00000  Uiso   1.00
O264   O     0.13477   0.57861   0.38513   0.00000  Uiso   1.00
C265   C     0.42068   0.49999   0.25002   0.00000  Uiso   1.00
C266   C     0.37607   0.49998   0.25005   0.00000  Uiso   1.00
C267   C     0.47463   0.35801   0.22208   0.00000  Uiso   1.00
C268   C     0.52537   0.64199   0.27792   0.00000  Uiso   1.00
C269   C     0.52538   0.35830   0.27792   0.00000  Uiso   1.00
C270   C     0.47462   0.64170   0.22208   0.00000  Uiso   1.00
C271   C     0.50072   0.49987   0.16432   0.00000  Uiso   1.00
C272   C     0.49928   0.50013   0.33568   0.00000  Uiso   1.00
C273   C     0.51164   0.46070   0.40694   0.00000  Uiso   1.00
C274   C     0.48836   0.53930   0.09306   0.00000  Uiso   1.00
C275   C     0.49786   0.50038   0.38408   0.00000  Uiso   1.00
C276   C     0.57932   0.50001   0.24998   0.00000  Uiso   1.00
C277   C     0.50214   0.49962   0.11592   0.00000  Uiso   1.00
C278   C     0.48295   0.53979   0.40754   0.00000  Uiso   1.00
C279   C     0.51706   0.46021   0.09246   0.00000  Uiso   1.00
C280   C     0.48476   0.54016   0.45404   0.00000  Uiso   1.00
C281   C     0.51525   0.45984   0.04596   0.00000  Uiso   1.00
C282   C     0.49926   0.50009   0.47673   0.00000  Uiso   1.00
C283   C     0.50075   0.49991   0.02327   0.00000  Uiso   1.00
C284   C     0.51230   0.46018   0.45299   0.00000  Uiso   1.00
C285   C     0.48771   0.53982   0.04701   0.00000  Uiso   1.00
C286   C     0.47229   0.57977   0.47829   0.00000  Uiso   1.00
C287   C     0.47370   0.57954   0.02438   0.00000  Uiso   1.00
C288   C     0.52772   0.42023   0.02171   0.00000  Uiso   1.00
C289   C     0.42579   0.57178   0.37642   0.00000  Uiso   1.00
C290   C     0.57422   0.42822   0.12358   0.00000  Uiso   1.00
C291   C     0.52630   0.42047   0.47562   0.00000  Uiso   1.00
C292   C     0.35456   0.45751   0.24662   0.00000  Uiso   1.00
C293   C     0.64544   0.54249   0.25338   0.00000  Uiso   1.00
C294   C     0.64531   0.45753   0.24655   0.00000  Uiso   1.00
C295   C     0.35469   0.54247   0.25345   0.00000  Uiso   1.00
C296   C     0.62393   0.50002   0.24995   0.00000  Uiso   1.00
Cu297  Cu    0.50000   0.54689   0.25000   0.00000  Uiso   1.00
Cu298  Cu    0.50000   0.45311   0.25000   0.00000  Uiso   1.00
H299   H     0.52261   0.43031   0.38881   0.00000  Uiso   1.00
H300   H     0.37077   0.57565   0.25627   0.00000  Uiso   1.00
H301   H     0.45432   0.37664   0.19973   0.00000  Uiso   1.00
H302   H     0.54568   0.62336   0.30027   0.00000  Uiso   1.00
H303   H     0.54570   0.37715   0.30026   0.00000  Uiso   1.00
H304   H     0.45430   0.62285   0.19974   0.00000  Uiso   1.00
H305   H     0.42032   0.54047   0.35502   0.00000  Uiso   1.00
H306   H     0.41391   0.60276   0.35830   0.00000  Uiso   1.00
H307   H     0.40803   0.56867   0.40767   0.00000  Uiso   1.00
H308   H     0.58610   0.39722   0.14168   0.00000  Uiso   1.00
H309   H     0.57968   0.45951   0.14500   0.00000  Uiso   1.00
H310   H     0.47739   0.56969   0.11119   0.00000  Uiso   1.00
H311   H     0.59197   0.43135   0.09233   0.00000  Uiso   1.00
H312   H     0.46136   0.61108   0.46179   0.00000  Uiso   1.00
H313   H     0.53865   0.38892   0.03821   0.00000  Uiso   1.00
H314   H     0.46373   0.61043   0.04235   0.00000  Uiso   1.00
H315   H     0.53628   0.38957   0.45765   0.00000  Uiso   1.00
H316   H     0.37053   0.42432   0.24384   0.00000  Uiso   1.00
H317   H     0.62947   0.57568   0.25616   0.00000  Uiso   1.00
H318   H     0.62923   0.42435   0.24373   0.00000  Uiso   1.00
N319   N     0.50000   0.61736   0.25000   0.00000  Uiso   1.00
N320   N     0.50000   0.38264   0.25000   0.00000  Uiso   1.00
O321   O     0.43988   0.53958   0.25000   0.00000  Uiso   1.00
O322   O     0.53190   0.42139   0.11487   0.00000  Uiso   1.00
O323   O     0.56012   0.46042   0.25001   0.00000  Uiso   1.00
O324   O     0.56012   0.53958   0.25001   0.00000  Uiso   1.00
O325   O     0.43988   0.46042   0.25000   0.00000  Uiso   1.00
O326   O     0.49999   0.53960   0.18513   0.00000  Uiso   1.00
O327   O     0.50001   0.46040   0.31487   0.00000  Uiso   1.00
O328   O     0.50001   0.53960   0.31487   0.00000  Uiso   1.00
O329   O     0.49999   0.46040   0.18513   0.00000  Uiso   1.00
O330   O     0.46810   0.57861   0.38513   0.00000  Uiso   1.00
C331   C     0.75401   0.49999   0.25002   0.00000  Uiso   1.00
C332   C     0.70940   0.49998   0.25005   0.00000  Uiso   1.00
C333   C     0.80796   0.35801   0.22208   0.00000  Uiso   1.00
C334   C     0.85870   0.64199   0.27792   0.00000  Uiso   1.00
C335   C     0.85871   0.35830   0.27792   0.00000  Uiso   1.00
C336   C     0.80795   0.64170   0.22208   0.00000  Uiso   1.00
C337   C     0.83405   0.49987   0.16432   0.00000  Uiso   1.00
C338   C     0.83262   0.50013   0.33568   0.00000  Uiso   1.00
C339   C     0.84498   0.46070   0.40694   0.00000  Uiso   1.00
C340   C     0.82170   0.53930   0.09306   0.00000  Uiso   1.00
C341   C     0.83119   0.50038   0.38408   0.00000  Uiso   1.00
C342   C     0.91266   0.50001   0.24998   0.00000  Uiso   1.00
C343   C     0.83548   0.49962   0.11592   0.00000  Uiso   1.00
C344   C     0.81628   0.53979   0.40754   0.00000  Uiso   1.00
C345   C     0.85039   0.46021   0.09246   0.00000  Uiso   1.00
C346   C     0.81809   0.54016   0.45404   0.00000  Uiso   1.00
C347   C     0.84858   0.45984   0.04596   0.00000  Uiso   1.00
C348   C     0.83259   0.50009   0.47673   0.00000  Uiso   1.00
C349   C     0.83408   0.49991   0.02327   0.00000  Uiso   1.00
C350   C     0.84563   0.46018   0.45299   0.00000  Uiso   1.00
C351   C     0.82104   0.53982   0.04701   0.00000  Uiso   1.00
C352   C     0.80562   0.57977   0.47829   0.00000  Uiso   1.00
C353   C     0.80704   0.57954   0.02438   0.00000  Uiso   1.00
C354   C     0.86105   0.42023   0.02171   0.00000  Uiso   1.00
C355   C     0.75912   0.57178   0.37642   0.00000  Uiso   1.00
C356   C     0.90755   0.42822   0.12358   0.00000  Uiso   1.00
C357   C     0.85964   0.42047   0.47562   0.00000  Uiso   1.00
C358   C     0.68789   0.45751   0.24662   0.00000  Uiso   1.00
C359   C     0.97878   0.54249   0.25338   0.00000  Uiso   1.00
C360   C     0.97865   0.45753   0.24655   0.00000  Uiso   1.00
C361   C     0.68802   0.54247   0.25345   0.00000  Uiso   1.00
C362   C     0.95726   0.50002   0.24995   0.00000  Uiso   1.00
Cu363  Cu    0.83333   0.54689   0.25000   0.00000  Uiso   1.00
Cu364  Cu    0.83333   0.45311   0.25000   0.00000  Uiso   1.00
H365   H     0.85595   0.43031   0.38881   0.00000  Uiso   1.00
H366   H     0.70410   0.57565   0.25627   0.00000  Uiso   1.00
H367   H     0.78765   0.37664   0.19973   0.00000  Uiso   1.00
H368   H     0.87902   0.62336   0.30027   0.00000  Uiso   1.00
H369   H     0.87904   0.37715   0.30026   0.00000  Uiso   1.00
H370   H     0.78763   0.62285   0.19974   0.00000  Uiso   1.00
H371   H     0.75366   0.54047   0.35502   0.00000  Uiso   1.00
H372   H     0.74724   0.60276   0.35830   0.00000  Uiso   1.00
H373   H     0.74136   0.56867   0.40767   0.00000  Uiso   1.00
H374   H     0.91943   0.39722   0.14168   0.00000  Uiso   1.00
H375   H     0.91301   0.45951   0.14500   0.00000  Uiso   1.00
H376   H     0.81073   0.56969   0.11119   0.00000  Uiso   1.00
H377   H     0.92530   0.43135   0.09233   0.00000  Uiso   1.00
H378   H     0.79469   0.61108   0.46179   0.00000  Uiso   1.00
H379   H     0.87198   0.38892   0.03821   0.00000  Uiso   1.00
H380   H     0.79706   0.61043   0.04235   0.00000  Uiso   1.00
H381   H     0.86961   0.38957   0.45765   0.00000  Uiso   1.00
H382   H     0.70387   0.42432   0.24384   0.00000  Uiso   1.00
H383   H     0.96280   0.57568   0.25616   0.00000  Uiso   1.00
H384   H     0.96257   0.42435   0.24373   0.00000  Uiso   1.00
N385   N     0.83333   0.61736   0.25000   0.00000  Uiso   1.00
N386   N     0.83333   0.38264   0.25000   0.00000  Uiso   1.00
O387   O     0.77321   0.53958   0.25000   0.00000  Uiso   1.00
O388   O     0.86523   0.42139   0.11487   0.00000  Uiso   1.00
O389   O     0.89345   0.46042   0.25001   0.00000  Uiso   1.00
O390   O     0.89345   0.53958   0.25001   0.00000  Uiso   1.00
O391   O     0.77321   0.46042   0.25000   0.00000  Uiso   1.00
O392   O     0.83332   0.53960   0.18513   0.00000  Uiso   1.00
O393   O     0.83334   0.46040   0.31487   0.00000  Uiso   1.00
O394   O     0.83334   0.53960   0.31487   0.00000  Uiso   1.00
O395   O     0.83332   0.46040   0.18513   0.00000  Uiso   1.00
O396   O     0.80144   0.57861   0.38513   0.00000  Uiso   1.00
C397   C     0.08734   0.83332   0.25002   0.00000  Uiso   1.00
C398   C     0.04274   0.83332   0.25005   0.00000  Uiso   1.00
C399   C     0.14130   0.69135   0.22208   0.00000  Uiso   1.00
C400   C     0.19204   0.97532   0.27792   0.00000  Uiso   1.00
C401   C     0.19205   0.69163   0.27792   0.00000  Uiso   1.00
C402   C     0.14129   0.97504   0.22208   0.00000  Uiso   1.00
C403   C     0.16738   0.83320   0.16432   0.00000  Uiso   1.00
C404   C     0.16595   0.83346   0.33568   0.00000  Uiso   1.00
C405   C     0.17831   0.79403   0.40694   0.00000  Uiso   1.00
C406   C     0.15503   0.87264   0.09306   0.00000  Uiso   1.00
C407   C     0.16453   0.83372   0.38408   0.00000  Uiso   1.00
C408   C     0.24599   0.83335   0.24998   0.00000  Uiso   1.00
C409   C     0.16881   0.83295   0.11592   0.00000  Uiso   1.00
C410   C     0.14961   0.87312   0.40754   0.00000  Uiso   1.00
C411   C     0.18373   0.79355   0.09246   0.00000  Uiso   1.00
C412   C     0.15143   0.87349   0.45404   0.00000  Uiso   1.00
C413   C     0.18191   0.79317   0.04596   0.00000  Uiso   1.00
C414   C     0.16593   0.83343   0.47673   0.00000  Uiso   1.00
C415   C     0.16742   0.83324   0.02327   0.00000  Uiso   1.00
C416   C     0.17897   0.79352   0.45299   0.00000  Uiso   1.00
C417   C     0.15437   0.87315   0.04701   0.00000  Uiso   1.00
C418   C     0.13896   0.91311   0.47829   0.00000  Uiso   1.00
C419   C     0.14037   0.91287   0.02438   0.00000  Uiso   1.00
C420   C     0.19438   0.75356   0.02171   0.00000  Uiso   1.00
C421   C     0.09246   0.90511   0.37642   0.00000  Uiso   1.00
C422   C     0.24088   0.76155   0.12358   0.00000  Uiso   1.00
C423   C     0.19297   0.75380   0.47562   0.00000  Uiso   1.00
C424   C     0.02122   0.79085   0.24662   0.00000  Uiso   1.00
C425   C     0.31211   0.87582   0.25338   0.00000  Uiso   1.00
C426   C     0.31198   0.79087   0.24655   0.00000  Uiso   1.00
C427   C     0.02135   0.87580   0.25345   0.00000  Uiso   1.00
C428   C     0.29060   0.83335   0.24995   0.00000  Uiso   1.00
Cu429  Cu    0.16667   0.88022   0.25000   0.00000  Uiso   1.00
Cu430  Cu    0.16667   0.78645   0.25000   0.00000  Uiso   1.00
H431   H     0.18928   0.76365   0.38881   0.00000  Uiso   1.00
H432   H     0.03743   0.90898   0.25627   0.00000  Uiso   1.00
H433   H     0.12098   0.70998   0.19973   0.00000  Uiso   1.00
H434   H     0.21235   0.95669   0.30027   0.00000  Uiso   1.00
H435   H     0.21237   0.71049   0.30026   0.00000  Uiso   1.00
H436   H     0.12096   0.95618   0.19974   0.00000  Uiso   1.00
H437   H     0.08699   0.87380   0.35502   0.00000  Uiso   1.00
H438   H     0.08058   0.93609   0.35830   0.00000  Uiso   1.00
H439   H     0.07470   0.90200   0.40767   0.00000  Uiso   1.00
H440   H     0.25276   0.73055   0.14168   0.00000  Uiso   1.00
H441   H     0.24635   0.79284   0.14500   0.00000  Uiso   1.00
H442   H     0.14406   0.90302   0.11119   0.00000  Uiso   1.00
H443   H     0.25864   0.76468   0.09233   0.00000  Uiso   1.00
H444   H     0.12803   0.94441   0.46179   0.00000  Uiso   1.00
H445   H     0.20531   0.72225   0.03821   0.00000  Uiso   1.00
H446   H     0.13040   0.94376   0.04235   0.00000  Uiso   1.00
H447   H     0.20294   0.72290   0.45765   0.00000  Uiso   1.00
H448   H     0.03720   0.75765   0.24384   0.00000  Uiso   1.00
H449   H     0.29613   0.90901   0.25616   0.00000  Uiso   1.00
H450   H     0.29590   0.75768   0.24373   0.00000  Uiso   1.00
N451   N     0.16667   0.95069   0.25000   0.00000  Uiso   1.00
N452   N     0.16667   0.71598   0.25000   0.00000  Uiso   1.00
O453   O     0.10655   0.87291   0.25000   0.00000  Uiso   1.00
O454   O     0.19857   0.75472   0.11487   0.00000  Uiso   1.00
O455   O     0.22679   0.79375   0.25001   0.00000  Uiso   1.00
O456   O     0.22679   0.87291   0.25001   0.00000  Uiso   1.00
O457   O     0.10655   0.79375   0.25000   0.00000  Uiso   1.00
O458   O     0.16666   0.87293   0.18513   0.00000  Uiso   1.00
O459   O     0.16668   0.79373   0.31487   0.00000  Uiso   1.00
O460   O     0.16668   0.87293   0.31487   0.00000  Uiso   1.00
O461   O     0.16666   0.79373   0.18513   0.00000  Uiso   1.00
O462   O     0.13477   0.91195   0.38513   0.00000  Uiso   1.00
C463   C     0.42068   0.83332   0.25002   0.00000  Uiso   1.00
C464   C     0.37607   0.83332   0.25005   0.00000  Uiso   1.00
C465   C     0.47463   0.69135   0.22208   0.00000  Uiso   1.00
C466   C     0.52537   0.97532   0.27792   0.00000  Uiso   1.00
C467   C     0.52538   0.69163   0.27792   0.00000  Uiso   1.00
C468   C     0.47462   0.97504   0.22208   0.00000  Uiso   1.00
C469   C     0.50072   0.83320   0.16432   0.00000  Uiso   1.00
C470   C     0.49928   0.83346   0.33568   0.00000  Uiso   1.00
C471   C     0.51164   0.79403   0.40694   0.00000  Uiso   1.00
C472   C     0.48836   0.87264   0.09306   0.00000  Uiso   1.00
C473   C     0.49786   0.83372   0.38408   0.00000  Uiso   1.00
C474   C     0.57932   0.83335   0.24998   0.00000  Uiso   1.00
C475   C     0.50214   0.83295   0.11592   0.00000  Uiso   1.00
C476   C     0.48295   0.87312   0.40754   0.00000  Uiso   1.00
C477   C     0.51706   0.79355   0.09246   0.00000  Uiso   1.00
C478   C     0.48476   0.87349   0.45404   0.00000  Uiso   1.00
C479   C     0.51525   0.79317   0.04596   0.00000  Uiso   1.00
C480   C     0.49926   0.83343   0.47673   0.00000  Uiso   1.00
C481   C     0.50075   0.83324   0.02327   0.00000  Uiso   1.00
C482   C     0.51230   0.79352   0.45299   0.00000  Uiso   1.00
C483   C     0.48771   0.87315   0.04701   0.00000  Uiso   1.00
C484   C     0.47229   0.91311   0.47829   0.00000  Uiso   1.00
C485   C     0.47370   0.91287   0.02438   0.00000  Uiso   1.00
C486   C     0.52772   0.75356   0.02171   0.00000  Uiso   1.00
C487   C     0.42579   0.90511   0.37642   0.00000  Uiso   1.00
C488   C     0.57422   0.76155   0.12358   0.00000  Uiso   1.00
C489   C     0.52630   0.75380   0.47562   0.00000  Uiso   1.00
C490   C     0.35456   0.79085   0.24662   0.00000  Uiso   1.00
C491   C     0.64544   0.87582   0.25338   0.00000  Uiso   1.00
C492   C     0.64531   0.79087   0.24655   0.00000  Uiso   1.00
C493   C     0.35469   0.87580   0.25345   0.00000  Uiso   1.00
C494   C     0.62393   0.83335   0.24995   0.00000  Uiso   1.00
Cu495  Cu    0.50000   0.88022   0.25000   0.00000  Uiso   1.00
Cu496  Cu    0.50000   0.78645   0.25000   0.00000  Uiso   1.00
H497   H     0.52261   0.76365   0.38881   0.00000  Uiso   1.00
H498   H     0.37077   0.90898   0.25627   0.00000  Uiso   1.00
H499   H     0.45432   0.70998   0.19973   0.00000  Uiso   1.00
H500   H     0.54568   0.95669   0.30027   0.00000  Uiso   1.00
H501   H     0.54570   0.71049   0.30026   0.00000  Uiso   1.00
H502   H     0.45430   0.95618   0.19974   0.00000  Uiso   1.00
H503   H     0.42032   0.87380   0.35502   0.00000  Uiso   1.00
H504   H     0.41391   0.93609   0.35830   0.00000  Uiso   1.00
H505   H     0.40803   0.90200   0.40767   0.00000  Uiso   1.00
H506   H     0.58610   0.73055   0.14168   0.00000  Uiso   1.00
H507   H     0.57968   0.79284   0.14500   0.00000  Uiso   1.00
H508   H     0.47739   0.90302   0.11119   0.00000  Uiso   1.00
H509   H     0.59197   0.76468   0.09233   0.00000  Uiso   1.00
H510   H     0.46136   0.94441   0.46179   0.00000  Uiso   1.00
H511   H     0.53865   0.72225   0.03821   0.00000  Uiso   1.00
H512   H     0.46373   0.94376   0.04235   0.00000  Uiso   1.00
H513   H     0.53628   0.72290   0.45765   0.00000  Uiso   1.00
H514   H     0.37053   0.75765   0.24384   0.00000  Uiso   1.00
H515   H     0.62947   0.90901   0.25616   0.00000  Uiso   1.00
H516   H     0.62923   0.75768   0.24373   0.00000  Uiso   1.00
N517   N     0.50000   0.95069   0.25000   0.00000  Uiso   1.00
N518   N     0.50000   0.71598   0.25000   0.00000  Uiso   1.00
O519   O     0.43988   0.87291   0.25000   0.00000  Uiso   1.00
O520   O     0.53190   0.75472   0.11487   0.00000  Uiso   1.00
O521   O     0.56012   0.79375   0.25001   0.00000  Uiso   1.00
O522   O     0.56012   0.87291   0.25001   0.00000  Uiso   1.00
O523   O     0.43988   0.79375   0.25000   0.00000  Uiso   1.00
O524   O     0.49999   0.87293   0.18513   0.00000  Uiso   1.00
O525   O     0.50001   0.79373   0.31487   0.00000  Uiso   1.00
O526   O     0.50001   0.87293   0.31487   0.00000  Uiso   1.00
O527   O     0.49999   0.79373   0.18513   0.00000  Uiso   1.00
O528   O     0.46810   0.91195   0.38513   0.00000  Uiso   1.00
C529   C     0.75401   0.83332   0.25002   0.00000  Uiso   1.00
C530   C     0.70940   0.83332   0.25005   0.00000  Uiso   1.00
C531   C     0.80796   0.69135   0.22208   0.00000  Uiso   1.00
C532   C     0.85870   0.97532   0.27792   0.00000  Uiso   1.00
C533   C     0.85871   0.69163   0.27792   0.00000  Uiso   1.00
C534   C     0.80795   0.97504   0.22208   0.00000  Uiso   1.00
C535   C     0.83405   0.83320   0.16432   0.00000  Uiso   1.00
C536   C     0.83262   0.83346   0.33568   0.00000  Uiso   1.00
C537   C     0.84498   0.79403   0.40694   0.00000  Uiso   1.00
C538   C     0.82170   0.87264   0.09306   0.00000  Uiso   1.00
C539   C     0.83119   0.83372   0.38408   0.00000  Uiso   1.00
C540   C     0.91266   0.83335   0.24998   0.00000  Uiso   1.00
C541   C     0.83548   0.83295   0.11592   0.00000  Uiso   1.00
C542   C     0.81628   0.87312   0.40754   0.00000  Uiso   1.00
C543   C     0.85039   0.79355   0.09246   0.00000  Uiso   1.00
C544   C     0.81809   0.87349   0.45404   0.00000  Uiso   1.00
C545   C     0.84858   0.79317   0.04596   0.00000  Uiso   1.00
C546   C     0.83259   0.83343   0.47673   0.00000  Uiso   1.00
C547   C     0.83408   0.83324   0.02327   0.00000  Uiso   1.00
C548   C     0.84563   0.79352   0.45299   0.00000  Uiso   1.00
C549   C     0.82104   0.87315   0.04701   0.00000  Uiso   1.00
C550   C     0.80562   0.91311   0.47829   0.00000  Uiso   1.00
C551   C     0.80704   0.91287   0.02438   0.00000  Uiso   1.00
C552   C     0.86105   0.75356   0.02171   0.00000  Uiso   1.00
C553   C     0.75912   0.90511   0.37642   0.00000  Uiso   1.00
C554   C     0.90755   0.76155   0.12358   0.00000  Uiso   1.00
C555   C     0.85964   0.75380   0.47562   0.00000  Uiso   1.00
C556   C     0.68789   0.79085   0.24662   0.00000  Uiso   1.00
C557   C     0.97878   0.87582   0.25338   0.00000  Uiso   1.00
C558   C     0.97865   0.79087   0.24655   0.00000  Uiso   1.00
C559   C     0.68802   0.87580   0.25345   0.00000  Uiso   1.00
C560   C     0.95726   0.83335   0.24995   0.00000  Uiso   1.00
Cu561  Cu    0.83333   0.88022   0.25000   0.00000  Uiso   1.00
Cu562  Cu    0.83333   0.78645   0.25000   0.00000  Uiso   1.00
H563   H     0.85595   0.76365   0.38881   0.00000  Uiso   1.00
H564   H     0.70410   0.90898   0.25627   0.00000  Uiso   1.00
H565   H     0.78765   0.70998   0.19973   0.00000  Uiso   1.00
H566   H     0.87902   0.95669   0.30027   0.00000  Uiso   1.00
H567   H     0.87904   0.71049   0.30026   0.00000  Uiso   1.00
H568   H     0.78763   0.95618   0.19974   0.00000  Uiso   1.00
H569   H     0.75366   0.87380   0.35502   0.00000  Uiso   1.00
H570   H     0.74724   0.93609   0.35830   0.00000  Uiso   1.00
H571   H     0.74136   0.90200   0.40767   0.00000  Uiso   1.00
H572   H     0.91943   0.73055   0.14168   0.00000  Uiso   1.00
H573   H     0.91301   0.79284   0.14500   0.00000  Uiso   1.00
H574   H     0.81073   0.90302   0.11119   0.00000  Uiso   1.00
H575   H     0.92530   0.76468   0.09233   0.00000  Uiso   1.00
H576   H     0.79469   0.94441   0.46179   0.00000  Uiso   1.00
H577   H     0.87198   0.72225   0.03821   0.00000  Uiso   1.00
H578   H     0.79706   0.94376   0.04235   0.00000  Uiso   1.00
H579   H     0.86961   0.72290   0.45765   0.00000  Uiso   1.00
H580   H     0.70387   0.75765   0.24384   0.00000  Uiso   1.00
H581   H     0.96280   0.90901   0.25616   0.00000  Uiso   1.00
H582   H     0.96257   0.75768   0.24373   0.00000  Uiso   1.00
N583   N     0.83333   0.95069   0.25000   0.00000  Uiso   1.00
N584   N     0.83333   0.71598   0.25000   0.00000  Uiso   1.00
O585   O     0.77321   0.87291   0.25000   0.00000  Uiso   1.00
O586   O     0.86523   0.75472   0.11487   0.00000  Uiso   1.00
O587   O     0.89345   0.79375   0.25001   0.00000  Uiso   1.00
O588   O     0.89345   0.87291   0.25001   0.00000  Uiso   1.00
O589   O     0.77321   0.79375   0.25000   0.00000  Uiso   1.00
O590   O     0.83332   0.87293   0.18513   0.00000  Uiso   1.00
O591   O     0.83334   0.79373   0.31487   0.00000  Uiso   1.00
O592   O     0.83334   0.87293   0.31487   0.00000  Uiso   1.00
O593   O     0.83332   0.79373   0.18513   0.00000  Uiso   1.00
O594   O     0.80144   0.91195   0.38513   0.00000  Uiso   1.00
C595   C     0.08734   0.16665   0.75002   0.00000  Uiso   1.00
C596   C     0.04274   0.16665   0.75005   0.00000  Uiso   1.00
C597   C     0.14130   0.02468   0.72208   0.00000  Uiso   1.00
C598   C     0.19204   0.30865   0.77792   0.00000  Uiso   1.00
C599   C     0.19205   0.02496   0.77792   0.00000  Uiso   1.00
C600   C     0.14129   0.30837   0.72208   0.00000  Uiso   1.00
C601   C     0.16738   0.16654   0.66432   0.00000  Uiso   1.00
C602   C     0.16595   0.16680   0.83568   0.00000  Uiso   1.00
C603   C     0.17831   0.12736   0.90694   0.00000  Uiso   1.00
C604   C     0.15503   0.20597   0.59306   0.00000  Uiso   1.00
C605   C     0.16453   0.16705   0.88408   0.00000  Uiso   1.00
C606   C     0.24599   0.16668   0.74998   0.00000  Uiso   1.00
C607   C     0.16881   0.16628   0.61592   0.00000  Uiso   1.00
C608   C     0.14961   0.20645   0.90754   0.00000  Uiso   1.00
C609   C     0.18373   0.12688   0.59246   0.00000  Uiso   1.00
C610   C     0.15143   0.20683   0.95404   0.00000  Uiso   1.00
C611   C     0.18191   0.12651   0.54596   0.00000  Uiso   1.00
C612   C     0.16593   0.16676   0.97673   0.00000  Uiso   1.00
C613   C     0.16742   0.16658   0.52327   0.00000  Uiso   1.00
C614   C     0.17897   0.12685   0.95299   0.00000  Uiso   1.00
C615   C     0.15437   0.20649   0.54701   0.00000  Uiso   1.00
C616   C     0.13896   0.24644   0.97829   0.00000  Uiso   1.00
C617   C     0.14037   0.24620   0.52438   0.00000  Uiso   1.00
C618   C     0.19438   0.08689   0.52171   0.00000  Uiso   1.00
C619   C     0.09246   0.23844   0.87642   0.00000  Uiso   1.00
C620   C     0.24088   0.09488   0.62358   0.00000  Uiso   1.00
C621   C     0.19297   0.08713   0.97562   0.00000  Uiso   1.00
C622   C     0.02122   0.12418   0.74662   0.00000  Uiso   1.00
C623   C     0.31211   0.20915   0.75338   0.00000  Uiso   1.00
C624   C     0.31198   0.12420   0.74655   0.00000  Uiso   1.00
C625   C     0.02135   0.20913   0.75345   0.00000  Uiso   1.00
C626   C     0.29060   0.16668   0.74995   0.00000  Uiso   1.00
Cu627  Cu    0.16667   0.21355   0.75000   0.00000  Uiso   1.00
Cu628  Cu    0.16667   0.11978   0.75000   0.00000  Uiso   1.00
H629   H     0.18928   0.09698   0.88881   0.00000  Uiso   1.00
H630   H     0.03743   0.24232   0.75627   0.00000  Uiso   1.00
H631   H     0.12098   0.04331   0.69973   0.00000  Uiso   1.00
H632   H     0.21235   0.29002   0.80027   0.00000  Uiso   1.00
H633   H     0.21237   0.04382   0.80026   0.00000  Uiso   1.00
H634   H     0.12096   0.28951   0.69974   0.00000  Uiso   1.00
H635   H     0.08699   0.20714   0.85502   0.00000  Uiso   1.00
H636   H     0.08058   0.26943   0.85830   0.00000  Uiso   1.00
H637   H     0.07470   0.23533   0.90767   0.00000  Uiso   1.00
H638   H     0.25276   0.06389   0.64168   0.00000  Uiso   1.00
H639   H     0.24635   0.12617   0.64500   0.00000  Uiso   1.00
H640   H     0.14406   0.23635   0.61119   0.00000  Uiso   1.00
H641   H     0.25864   0.09802   0.59233   0.00000  Uiso   1.00
H642   H     0.12803   0.27775   0.96179   0.00000  Uiso   1.00
H643   H     0.20531   0.05559   0.53821   0.00000  Uiso   1.00
H644   H     0.13040   0.27710   0.54235   0.00000  Uiso   1.00
H645   H     0.20294   0.05624   0.95765   0.00000  Uiso   1.00
H646   H     0.03720   0.09099   0.74384   0.00000  Uiso   1.00
H647   H     0.29613   0.24235   0.75616   0.00000  Uiso   1.00
H648   H     0.29590   0.09102   0.74373   0.00000  Uiso   1.00
N649   N     0.16667   0.28402   0.75000   0.00000  Uiso   1.00
N650   N     0.16667   0.04931   0.75000   0.00000  Uiso   1.00
O651   O     0.10655   0.20625   0.75000   0.00000  Uiso   1.00
O652   O     0.19857   0.08805   0.61487   0.00000  Uiso   1.00
O653   O     0.22679   0.12709   0.75001   0.00000  Uiso   1.00
O654   O     0.22679   0.20625   0.75001   0.00000  Uiso   1.00
O655   O     0.10655   0.12709   0.75000   0.00000  Uiso   1.00
O656   O     0.16666   0.20627   0.68513   0.00000  Uiso   1.00
O657   O     0.16668   0.12707   0.81487   0.00000  Uiso   1.00
O658   O     0.16668   0.20627   0.81487   0.00000  Uiso   1.00
O659   O     0.16666   0.12707   0.68513   0.00000  Uiso   1.00
O660   O     0.13477   0.24528   0.88513   0.00000  Uiso   1.00
C661   C     0.42068   0.16665   0.75002   0.00000  Uiso   1.00
C662   C     0.37607   0.16665   0.75005   0.00000  Uiso   1.00
C663   C     0.47463   0.02468   0.72208   0.00000  Uiso   1.00
C664   C     0.52537   0.30865   0.77792   0.00000  Uiso   1.00
C665   C     0.52538   0.02496   0.77792   0.00000  Uiso   1.00
C666   C     0.47462   0.30837   0.72208   0.00000  Uiso   1.00
C667   C     0.50072   0.16654   0.66432   0.00000  Uiso   1.00
C668   C     0.49928   0.16680   0.83568   0.00000  Uiso   1.00
C669   C     0.51164   0.12736   0.90694   0.00000  Uiso   1.00
C670   C     0.48836   0.20597   0.59306   0.00000  Uiso   1.00
C671   C     0.49786   0.16705   0.88408   0.00000  Uiso   1.00
C672   C     0.57932   0.16668   0.74998   0.00000  Uiso   1.00
C673   C     0.50214   0.16628   0.61592   0.00000  Uiso   1.00
C674   C     0.48295   0.20645   0.90754   0.00000  Uiso   1.00
C675   C     0.51706   0.12688   0.59246   0.00000  Uiso   1.00
C676   C     0.48476   0.20683   0.95404   0.00000  Uiso   1.00
C677   C     0.51525   0.12651   0.54596   0.00000  Uiso   1.00
C678   C     0.49926   0.16676   0.97673   0.00000  Uiso   1.00
C679   C     0.50075   0.16658   0.52327   0.00000  Uiso   1.00
C680   C     0.51230   0.12685   0.95299   0.00000  Uiso   1.00
C681   C     0.48771   0.20649   0.54701   0.00000  Uiso   1.00
C682   C     0.47229   0.24644   0.97829   0.00000  Uiso   1.00
C683   C     0.47370   0.24620   0.52438   0.00000  Uiso   1.00
C684   C     0.52772   0.08689   0.52171   0.00000  Uiso   1.00
C685   C     0.42579   0.23844   0.87642   0.00000  Uiso   1.00
C686   C     0.57422   0.09488   0.62358   0.00000  Uiso   1.00
C687   C     0.52630   0.08713   0.97562   0.00000  Uiso   1.00
C688   C     0.35456   0.12418   0.74662   0.00000  Uiso   1.00
C689   C     0.64544   0.20915   0.75338   0.00000  Uiso   1.00
C690   C     0.64531   0.12420   0.74655   0.00000  Uiso   1.00
C691   C     0.35469   0.20913   0.75345   0.00000  Uiso   1.00
C692   C     0.62393   0.16668   0.74995   0.00000  Uiso   1.00
Cu693  Cu    0.50000   0.21355   0.75000   0.00000  Uiso   1.00
Cu694  Cu    0.50000   0.11978   0.75000   0.00000  Uiso   1.00
H695   H     0.52261   0.09698   0.88881   0.00000  Uiso   1.00
H696   H     0.37077   0.24232   0.75627   0.00000  Uiso   1.00
H697   H     0.45432   0.04331   0.69973   0.00000  Uiso   1.00
H698   H     0.54568   0.29002   0.80027   0.00000  Uiso   1.00
H699   H     0.54570   0.04382   0.80026   0.00000  Uiso   1.00
H700   H     0.45430   0.28951   0.69974   0.00000  Uiso   1.00
H701   H     0.42032   0.20714   0.85502   0.00000  Uiso   1.00
H702   H     0.41391   0.26943   0.85830   0.00000  Uiso   1.00
H703   H     0.40803   0.23533   0.90767   0.00000  Uiso   1.00
H704   H     0.58610   0.06389   0.64168   0.00000  Uiso   1.00
H705   H     0.57968   0.12617   0.64500   0.00000  Uiso   1.00
H706   H     0.47739   0.23635   0.61119   0.00000  Uiso   1.00
H707   H     0.59197   0.09802   0.59233   0.00000  Uiso   1.00
H708   H     0.46136   0.27775   0.96179   0.00000  Uiso   1.00
H709   H     0.53865   0.05559   0.53821   0.00000  Uiso   1.00
H710   H     0.46373   0.27710   0.54235   0.00000  Uiso   1.00
H711   H     0.53628   0.05624   0.95765   0.00000  Uiso   1.00
H712   H     0.37053   0.09099   0.74384   0.00000  Uiso   1.00
H713   H     0.62947   0.24235   0.75616   0.00000  Uiso   1.00
H714   H     0.62923   0.09102   0.74373   0.00000  Uiso   1.00
N715   N     0.50000   0.28402   0.75000   0.00000  Uiso   1.00
N716   N     0.50000   0.04931   0.75000   0.00000  Uiso   1.00
O717   O     0.43988   0.20625   0.75000   0.00000  Uiso   1.00
O718   O     0.53190   0.08805   0.61487   0.00000  Uiso   1.00
O719   O     0.56012   0.12709   0.75001   0.00000  Uiso   1.00
O720   O     0.56012   0.20625   0.75001   0.00000  Uiso   1.00
O721   O     0.43988   0.12709   0.75000   0.00000  Uiso   1.00
O722   O     0.49999   0.20627   0.68513   0.00000  Uiso   1.00
O723   O     0.50001   0.12707   0.81487   0.00000  Uiso   1.00
O724   O     0.50001   0.20627   0.81487   0.00000  Uiso   1.00
O725   O     0.49999   0.12707   0.68513   0.00000  Uiso   1.00
O726   O     0.46810   0.24528   0.88513   0.00000  Uiso   1.00
C727   C     0.75401   0.16665   0.75002   0.00000  Uiso   1.00
C728   C     0.70940   0.16665   0.75005   0.00000  Uiso   1.00
C729   C     0.80796   0.02468   0.72208   0.00000  Uiso   1.00
C730   C     0.85870   0.30865   0.77792   0.00000  Uiso   1.00
C731   C     0.85871   0.02496   0.77792   0.00000  Uiso   1.00
C732   C     0.80795   0.30837   0.72208   0.00000  Uiso   1.00
C733   C     0.83405   0.16654   0.66432   0.00000  Uiso   1.00
C734   C     0.83262   0.16680   0.83568   0.00000  Uiso   1.00
C735   C     0.84498   0.12736   0.90694   0.00000  Uiso   1.00
C736   C     0.82170   0.20597   0.59306   0.00000  Uiso   1.00
C737   C     0.83119   0.16705   0.88408   0.00000  Uiso   1.00
C738   C     0.91266   0.16668   0.74998   0.00000  Uiso   1.00
C739   C     0.83548   0.16628   0.61592   0.00000  Uiso   1.00
C740   C     0.81628   0.20645   0.90754   0.00000  Uiso   1.00
C741   C     0.85039   0.12688   0.59246   0.00000  Uiso   1.00
C742   C     0.81809   0.20683   0.95404   0.00000  Uiso   1.00
C743   C     0.84858   0.12651   0.54596   0.00000  Uiso   1.00
C744   C     0.83259   0.16676   0.97673   0.00000  Uiso   1.00
C745   C     0.83408   0.16658   0.52327   0.00000  Uiso   1.00
C746   C     0.84563   0.12685   0.95299   0.00000  Uiso   1.00
C747   C     0.82104   0.20649   0.54701   0.00000  Uiso   1.00
C748   C     0.80562   0.24644   0.97829   0.00000  Uiso   1.00
C749   C     0.80704   0.24620   0.52438   0.00000  Uiso   1.00
C750   C     0.86105   0.08689   0.52171   0.00000  Uiso   1.00
C751   C     0.75912   0.23844   0.87642   0.00000  Uiso   1.00
C752   C     0.90755   0.09488   0.62358   0.00000  Uiso   1.00
C753   C     0.85964   0.08713   0.97562   0.00000  Uiso   1.00
C754   C     0.68789   0.12418   0.74662   0.00000  Uiso   1.00
C755   C     0.97878   0.20915   0.75338   0.00000  Uiso   1.00
C756   C     0.97865   0.12420   0.74655   0.00000  Uiso   1.00
C757   C     0.68802   0.20913   0.75345   0.00000  Uiso   1.00
C758   C     0.95726   0.16668   0.74995   0.00000  Uiso   1.00
Cu759  Cu    0.83333   0.21355   0.75000   0.00000  Uiso   1.00
Cu760  Cu    0.83333   0.11978   0.75000   0.00000  Uiso   1.00
H761   H     0.85595   0.09698   0.88881   0.00000  Uiso   1.00
H762   H     0.70410   0.24232   0.75627   0.00000  Uiso   1.00
H763   H     0.78765   0.04331   0.69973   0.00000  Uiso   1.00
H764   H     0.87902   0.29002   0.80027   0.00000  Uiso   1.00
H765   H     0.87904   0.04382   0.80026   0.00000  Uiso   1.00
H766   H     0.78763   0.28951   0.69974   0.00000  Uiso   1.00
H767   H     0.75366   0.20714   0.85502   0.00000  Uiso   1.00
H768   H     0.74724   0.26943   0.85830   0.00000  Uiso   1.00
H769   H     0.74136   0.23533   0.90767   0.00000  Uiso   1.00
H770   H     0.91943   0.06389   0.64168   0.00000  Uiso   1.00
H771   H     0.91301   0.12617   0.64500   0.00000  Uiso   1.00
H772   H     0.81073   0.23635   0.61119   0.00000  Uiso   1.00
H773   H     0.92530   0.09802   0.59233   0.00000  Uiso   1.00
H774   H     0.79469   0.27775   0.96179   0.00000  Uiso   1.00
H775   H     0.87198   0.05559   0.53821   0.00000  Uiso   1.00
H776   H     0.79706   0.27710   0.54235   0.00000  Uiso   1.00
H777   H     0.86961   0.05624   0.95765   0.00000  Uiso   1.00
H778   H     0.70387   0.09099   0.74384   0.00000  Uiso   1.00
H779   H     0.96280   0.24235   0.75616   0.00000  Uiso   1.00
H780   H     0.96257   0.09102   0.74373   0.00000  Uiso   1.00
N781   N     0.83333   0.28402   0.75000   0.00000  Uiso   1.00
N782   N     0.83333   0.04931   0.75000   0.00000  Uiso   1.00
O783   O     0.77321   0.20625   0.75000   0.00000  Uiso   1.00
O784   O     0.86523   0.08805   0.61487   0.00000  Uiso   1.00
O785   O     0.89345   0.12709   0.75001   0.00000  Uiso   1.00
O786   O     0.89345   0.20625   0.75001   0.00000  Uiso   1.00
O787   O     0.77321   0.12709   0.75000   0.00000  Uiso   1.00
O788   O     0.83332   0.20627   0.68513   0.00000  Uiso   1.00
O789   O     0.83334   0.12707   0.81487   0.00000  Uiso   1.00
O790   O     0.83334   0.20627   0.81487   0.00000  Uiso   1.00
O791   O     0.83332   0.12707   0.68513   0.00000  Uiso   1.00
O792   O     0.80144   0.24528   0.88513   0.00000  Uiso   1.00
C793   C     0.08734   0.49999   0.75002   0.00000  Uiso   1.00
C794   C     0.04274   0.49998   0.75005   0.00000  Uiso   1.00
C795   C     0.14130   0.35801   0.72208   0.00000  Uiso   1.00
C796   C     0.19204   0.64199   0.77792   0.00000  Uiso   1.00
C797   C     0.19205   0.35830   0.77792   0.00000  Uiso   1.00
C798   C     0.14129   0.64170   0.72208   0.00000  Uiso   1.00
C799   C     0.16738   0.49987   0.66432   0.00000  Uiso   1.00
C800   C     0.16595   0.50013   0.83568   0.00000  Uiso   1.00
C801   C     0.17831   0.46070   0.90694   0.00000  Uiso   1.00
C802   C     0.15503   0.53930   0.59306   0.00000  Uiso   1.00
C803   C     0.16453   0.50038   0.88408   0.00000  Uiso   1.00
C804   C     0.24599   0.50001   0.74998   0.00000  Uiso   1.00
C805   C     0.16881   0.49962   0.61592   0.00000  Uiso   1.00
C806   C     0.14961   0.53979   0.90754   0.00000  Uiso   1.00
C807   C     0.18373   0.46021   0.59246   0.00000  Uiso   1.00
C808   C     0.15143   0.54016   0.95404   0.00000  Uiso   1.00
C809   C     0.18191   0.45984   0.54596   0.00000  Uiso   1.00
C810   C     0.16593   0.50009   0.97673   0.00000  Uiso   1.00
C811   C     0.16742   0.49991   0.52327   0.00000  Uiso   1.00
C812   C     0.17897   0.46018   0.95299   0.00000  Uiso   1.00
C813   C     0.15437   0.53982   0.54701   0.00000  Uiso   1.00
C814   C     0.13896   0.57977   0.97829   0.00000  Uiso   1.00
C815   C     0.14037   0.57954   0.52438   0.00000  Uiso   1.00
C816   C     0.19438   0.42023   0.52171   0.00000  Uiso   1.00
C817   C     0.09246   0.57178   0.87642   0.00000  Uiso   1.00
C818   C     0.24088   0.42822   0.62358   0.00000  Uiso   1.00
C819   C     0.19297   0.42047   0.97562   0.00000  Uiso   1.00
C820   C     0.02122   0.45751   0.74662   0.00000  Uiso   1.00
C821   C     0.31211   0.54249   0.75338   0.00000  Uiso   1.00
C822   C     0.31198   0.45753   0.74655   0.00000  Uiso   1.00
C823   C     0.02135   0.54247   0.75345   0.00000  Uiso   1.00
C824   C     0.29060   0.50002   0.74995   0.00000  Uiso   1.00
Cu825  Cu    0.16667   0.54689   0.75000   0.00000  Uiso   1.00
Cu826  Cu    0.16667   0.45311   0.75000   0.00000  Uiso   1.00
H827   H     0.18928   0.43031   0.88881   0.00000  Uiso   1.00
H828   H     0.03743   0.57565   0.75627   0.00000  Uiso   1.00
H829   H     0.12098   0.37664   0.69973   0.00000  Uiso   1.00
H830   H     0.21235   0.62336   0.80027   0.00000  Uiso   1.00
H831   H     0.21237   0.37715   0.80026   0.00000  Uiso   1.00
H832   H     0.12096   0.62285   0.69974   0.00000  Uiso   1.00
H833   H     0.08699   0.54047   0.85502   0.00000  Uiso   1.00
H834   H     0.08058   0.60276   0.85830   0.00000  Uiso   1.00
H835   H     0.07470   0.56867   0.90767   0.00000  Uiso   1.00
H836   H     0.25276   0.39722   0.64168   0.00000  Uiso   1.00
H837   H     0.24635   0.45951   0.64500   0.00000  Uiso   1.00
H838   H     0.14406   0.56969   0.61119   0.00000  Uiso   1.00
H839   H     0.25864   0.43135   0.59233   0.00000  Uiso   1.00
H840   H     0.12803   0.61108   0.96179   0.00000  Uiso   1.00
H841   H     0.20531   0.38892   0.53821   0.00000  Uiso   1.00
H842   H     0.13040   0.61043   0.54235   0.00000  Uiso   1.00
H843   H     0.20294   0.38957   0.95765   0.00000  Uiso   1.00
H844   H     0.03720   0.42432   0.74384   0.00000  Uiso   1.00
H845   H     0.29613   0.57568   0.75616   0.00000  Uiso   1.00
H846   H     0.29590   0.42435   0.74373   0.00000  Uiso   1.00
N847   N     0.16667   0.61736   0.75000   0.00000  Uiso   1.00
N848   N     0.16667   0.38264   0.75000   0.00000  Uiso   1.00
O849   O     0.10655   0.53958   0.75000   0.00000  Uiso   1.00
O850   O     0.19857   0.42139   0.61487   0.00000  Uiso   1.00
O851   O     0.22679   0.46042   0.75001   0.00000  Uiso   1.00
O852   O     0.22679   0.53958   0.75001   0.00000  Uiso   1.00
O853   O     0.10655   0.46042   0.75000   0.00000  Uiso   1.00
O854   O     0.16666   0.53960   0.68513   0.00000  Uiso   1.00
O855   O     0.16668   0.46040   0.81487   0.00000  Uiso   1.00
O856   O     0.16668   0.53960   0.81487   0.00000  Uiso   1.00
O857   O     0.16666   0.46040   0.68513   0.00000  Uiso   1.00
O858   O     0.13477   0.57861   0.88513   0.00000  Uiso   1.00
C859   C     0.42068   0.49999   0.75002   0.00000  Uiso   1.00
C860   C     0.37607   0.49998   0.75005   0.00000  Uiso   1.00
C861   C     0.47463   0.35801   0.72208   0.00000  Uiso   1.00
C862   C     0.52537   0.64199   0.77792   0.00000  Uiso   1.00
C863   C     0.52538   0.35830   0.77792   0.00000  Uiso   1.00
C864   C     0.47462   0.64170   0.72208   0.00000  Uiso   1.00
C865   C     0.50072   0.49987   0.66432   0.00000  Uiso   1.00
C866   C     0.49928   0.50013   0.83568   0.00000  Uiso   1.00
C867   C     0.51164   0.46070   0.90694   0.00000  Uiso   1.00
C868   C     0.48836   0.53930   0.59306   0.00000  Uiso   1.00
C869   C     0.49786   0.50038   0.88408   0.00000  Uiso   1.00
C870   C     0.57932   0.50001   0.74998   0.00000  Uiso   1.00
C871   C     0.50214   0.49962   0.61592   0.00000  Uiso   1.00
C872   C     0.48295   0.53979   0.90754   0.00000  Uiso   1.00
C873   C     0.51706   0.46021   0.59246   0.00000  Uiso   1.00
C874   C     0.48476   0.54016   0.95404   0.00000  Uiso   1.00
C875   C     0.51525   0.45984   0.54596   0.00000  Uiso   1.00
C876   C     0.49926   0.50009   0.97673   0.00000  Uiso   1.00
C877   C     0.50075   0.49991   0.52327   0.00000  Uiso   1.00
C878   C     0.51230   0.46018   0.95299   0.00000  Uiso   1.00
C879   C     0.48771   0.53982   0.54701   0.00000  Uiso   1.00
C880   C     0.47229   0.57977   0.97829   0.00000  Uiso   1.00
C881   C     0.47370   0.57954   0.52438   0.00000  Uiso   1.00
C882   C     0.52772   0.42023   0.52171   0.00000  Uiso   1.00
C883   C     0.42579   0.57178   0.87642   0.00000  Uiso   1.00
C884   C     0.57422   0.42822   0.62358   0.00000  Uiso   1.00
C885   C     0.52630   0.42047   0.97562   0.00000  Uiso   1.00
C886   C     0.35456   0.45751   0.74662   0.00000  Uiso   1.00
C887   C     0.64544   0.54249   0.75338   0.00000  Uiso   1.00
C888   C     0.64531   0.45753   0.74655   0.00000  Uiso   1.00
C889   C     0.35469   0.54247   0.75345   0.00000  Uiso   1.00
C890   C     0.62393   0.50002   0.74995   0.00000  Uiso   1.00
Cu891  Cu    0.50000   0.54689   0.75000   0.00000  Uiso   1.00
Cu892  Cu    0.50000   0.45311   0.75000   0.00000  Uiso   1.00
H893   H     0.52261   0.43031   0.88881   0.00000  Uiso   1.00
H894   H     0.37077   0.57565   0.75627   0.00000  Uiso   1.00
H895   H     0.45432   0.37664   0.69973   0.00000  Uiso   1.00
H896   H     0.54568   0.62336   0.80027   0.00000  Uiso   1.00
H897   H     0.54570   0.37715   0.80026   0.00000  Uiso   1.00
H898   H     0.45430   0.62285   0.69974   0.00000  Uiso   1.00
H899   H     0.42032   0.54047   0.85502   0.00000  Uiso   1.00
H900   H     0.41391   0.60276   0.85830   0.00000  Uiso   1.00
H901   H     0.40803   0.56867   0.90767   0.00000  Uiso   1.00
H902   H     0.58610   0.39722   0.64168   0.00000  Uiso   1.00
H903   H     0.57968   0.45951   0.64500   0.00000  Uiso   1.00
H904   H     0.47739   0.56969   0.61119   0.00000  Uiso   1.00
H905   H     0.59197   0.43135   0.59233   0.00000  Uiso   1.00
H906   H     0.46136   0.61108   0.96179   0.00000  Uiso   1.00
H907   H     0.53865   0.38892   0.53821   0.00000  Uiso   1.00
H908   H     0.46373   0.61043   0.54235   0.00000  Uiso   1.00
H909   H     0.53628   0.38957   0.95765   0.00000  Uiso   1.00
H910   H     0.37053   0.42432   0.74384   0.00000  Uiso   1.00
H911   H     0.62947   0.57568   0.75616   0.00000  Uiso   1.00
H912   H     0.62923   0.42435   0.74373   0.00000  Uiso   1.00
N913   N     0.50000   0.61736   0.75000   0.00000  Uiso   1.00
N914   N     0.50000   0.38264   0.75000   0.00000  Uiso   1.00
O915   O     0.43988   0.53958   0.75000   0.00000  Uiso   1.00
O916   O     0.53190   0.42139   0.61487   0.00000  Uiso   1.00
O917   O     0.56012   0.46042   0.75001   0.00000  Uiso   1.00
O918   O     0.56012   0.53958   0.75001   0.00000  Uiso   1.00
O919   O     0.43988   0.46042   0.75000   0.00000  Uiso   1.00
O920   O     0.49999   0.53960   0.68513   0.00000  Uiso   1.00
O921   O     0.50001   0.46040   0.81487   0.00000  Uiso   1.00
O922   O     0.50001   0.53960   0.81487   0.00000  Uiso   1.00
O923   O     0.49999   0.46040   0.68513   0.00000  Uiso   1.00
O924   O     0.46810   0.57861   0.88513   0.00000  Uiso   1.00
C925   C     0.75401   0.49999   0.75002   0.00000  Uiso   1.00
C926   C     0.70940   0.49998   0.75005   0.00000  Uiso   1.00
C927   C     0.80796   0.35801   0.72208   0.00000  Uiso   1.00
C928   C     0.85870   0.64199   0.77792   0.00000  Uiso   1.00
C929   C     0.85871   0.35830   0.77792   0.00000  Uiso   1.00
C930   C     0.80795   0.64170   0.72208   0.00000  Uiso   1.00
C931   C     0.83405   0.49987   0.66432   0.00000  Uiso   1.00
C932   C     0.83262   0.50013   0.83568   0.00000  Uiso   1.00
C933   C     0.84498   0.46070   0.90694   0.00000  Uiso   1.00
C934   C     0.82170   0.53930   0.59306   0.00000  Uiso   1.00
C935   C     0.83119   0.50038   0.88408   0.00000  Uiso   1.00
C936   C     0.91266   0.50001   0.74998   0.00000  Uiso   1.00
C937   C     0.83548   0.49962   0.61592   0.00000  Uiso   1.00
C938   C     0.81628   0.53979   0.90754   0.00000  Uiso   1.00
C939   C     0.85039   0.46021   0.59246   0.00000  Uiso   1.00
C940   C     0.81809   0.54016   0.95404   0.00000  Uiso   1.00
C941   C     0.84858   0.45984   0.54596   0.00000  Uiso   1.00
C942   C     0.83259   0.50009   0.97673   0.00000  Uiso   1.00
C943   C     0.83408   0.49991   0.52327   0.00000  Uiso   1.00
C944   C     0.84563   0.46018   0.95299   0.00000  Uiso   1.00
C945   C     0.82104   0.53982   0.54701   0.00000  Uiso   1.00
C946   C     0.80562   0.57977   0.97829   0.00000  Uiso   1.00
C947   C     0.80704   0.57954   0.52438   0.00000  Uiso   1.00
C948   C     0.86105   0.42023   0.52171   0.00000  Uiso   1.00
C949   C     0.75912   0.57178   0.87642   0.00000  Uiso   1.00
C950   C     0.90755   0.42822   0.62358   0.00000  Uiso   1.00
C951   C     0.85964   0.42047   0.97562   0.00000  Uiso   1.00
C952   C     0.68789   0.45751   0.74662   0.00000  Uiso   1.00
C953   C     0.97878   0.54249   0.75338   0.00000  Uiso   1.00
C954   C     0.97865   0.45753   0.74655   0.00000  Uiso   1.00
C955   C     0.68802   0.54247   0.75345   0.00000  Uiso   1.00
C956   C     0.95726   0.50002   0.74995   0.00000  Uiso   1.00
Cu957  Cu    0.83333   0.54689   0.75000   0.00000  Uiso   1.00
Cu958  Cu    0.83333   0.45311   0.75000   0.00000  Uiso   1.00
H959   H     0.85595   0.43031   0.88881   0.00000  Uiso   1.00
H960   H     0.70410   0.57565   0.75627   0.00000  Uiso   1.00
H961   H     0.78765   0.37664   0.69973   0.00000  Uiso   1.00
H962   H     0.87902   0.62336   0.80027   0.00000  Uiso   1.00
H963   H     0.87904   0.37715   0.80026   0.00000  Uiso   1.00
H964   H     0.78763   0.62285   0.69974   0.00000  Uiso   1.00
H965   H     0.75366   0.54047   0.85502   0.00000  Uiso   1.00
H966   H     0.74724   0.60276   0.85830   0.00000  Uiso   1.00
H967   H     0.74136   0.56867   0.90767   0.00000  Uiso   1.00
H968   H     0.91943   0.39722   0.64168   0.00000  Uiso   1.00
H969   H     0.91301   0.45951   0.64500   0.00000  Uiso   1.00
H970   H     0.81073   0.56969   0.61119   0.00000  Uiso   1.00
H971   H     0.92530   0.43135   0.59233   0.00000  Uiso   1.00
H972   H     0.79469   0.61108   0.96179   0.00000  Uiso   1.00
H973   H     0.87198   0.38892   0.53821   0.00000  Uiso   1.00
H974   H     0.79706   0.61043   0.54235   0.00000  Uiso   1.00
H975   H     0.86961   0.38957   0.95765   0.00000  Uiso   1.00
H976   H     0.70387   0.42432   0.74384   0.00000  Uiso   1.00
H977   H     0.96280   0.57568   0.75616   0.00000  Uiso   1.00
H978   H     0.96257   0.42435   0.74373   0.00000  Uiso   1.00
N979   N     0.83333   0.61736   0.75000   0.00000  Uiso   1.00
N980   N     0.83333   0.38264   0.75000   0.00000  Uiso   1.00
O981   O     0.77321   0.53958   0.75000   0.00000  Uiso   1.00
O982   O     0.86523   0.42139   0.61487   0.00000  Uiso   1.00
O983   O     0.89345   0.46042   0.75001   0.00000  Uiso   1.00
O984   O     0.89345   0.53958   0.75001   0.00000  Uiso   1.00
O985   O     0.77321   0.46042   0.75000   0.00000  Uiso   1.00
O986   O     0.83332   0.53960   0.68513   0.00000  Uiso   1.00
O987   O     0.83334   0.46040   0.81487   0.00000  Uiso   1.00
O988   O     0.83334   0.53960   0.81487   0.00000  Uiso   1.00
O989   O     0.83332   0.46040   0.68513   0.00000  Uiso   1.00
O990   O     0.80144   0.57861   0.88513   0.00000  Uiso   1.00
C991   C     0.08734   0.83332   0.75002   0.00000  Uiso   1.00
C992   C     0.04274   0.83332   0.75005   0.00000  Uiso   1.00
C993   C     0.14130   0.69135   0.72208   0.00000  Uiso   1.00
C994   C     0.19204   0.97532   0.77792   0.00000  Uiso   1.00
C995   C     0.19205   0.69163   0.77792   0.00000  Uiso   1.00
C996   C     0.14129   0.97504   0.72208   0.00000  Uiso   1.00
C997   C     0.16738   0.83320   0.66432   0.00000  Uiso   1.00
C998   C     0.16595   0.83346   0.83568   0.00000  Uiso   1.00
C999   C     0.17831   0.79403   0.90694   0.00000  Uiso   1.00
C1000  C     0.15503   0.87264   0.59306   0.00000  Uiso   1.00
C1001  C     0.16453   0.83372   0.88408   0.00000  Uiso   1.00
C1002  C     0.24599   0.83335   0.74998   0.00000  Uiso   1.00
C1003  C     0.16881   0.83295   0.61592   0.00000  Uiso   1.00
C1004  C     0.14961   0.87312   0.90754   0.00000  Uiso   1.00
C1005  C     0.18373   0.79355   0.59246   0.00000  Uiso   1.00
C1006  C     0.15143   0.87349   0.95404   0.00000  Uiso   1.00
C1007  C     0.18191   0.79317   0.54596   0.00000  Uiso   1.00
C1008  C     0.16593   0.83343   0.97673   0.00000  Uiso   1.00
C1009  C     0.16742   0.83324   0.52327   0.00000  Uiso   1.00
C1010  C     0.17897   0.79352   0.95299   0.00000  Uiso   1.00
C1011  C     0.15437   0.87315   0.54701   0.00000  Uiso   1.00
C1012  C     0.13896   0.91311   0.97829   0.00000  Uiso   1.00
C1013  C     0.14037   0.91287   0.52438   0.00000  Uiso   1.00
C1014  C     0.19438   0.75356   0.52171   0.00000  Uiso   1.00
C1015  C     0.09246   0.90511   0.87642   0.00000  Uiso   1.00
C1016  C     0.24088   0.76155   0.62358   0.00000  Uiso   1.00
C1017  C     0.19297   0.75380   0.97562   0.00000  Uiso   1.00
C1018  C     0.02122   0.79085   0.74662   0.00000  Uiso   1.00
C1019  C     0.31211   0.87582   0.75338   0.00000  Uiso   1.00
C1020  C     0.31198   0.79087   0.74655   0.00000  Uiso   1.00
C1021  C     0.02135   0.87580   0.75345   0.00000  Uiso   1.00
C1022  C     0.29060   0.83335   0.74995   0.00000  Uiso   1.00
Cu1023 Cu    0.16667   0.88022   0.75000   0.00000  Uiso   1.00
Cu1024 Cu    0.16667   0.78645   0.75000   0.00000  Uiso   1.00
H1025  H     0.18928   0.76365   0.88881   0.00000  Uiso   1.00
H1026  H     0.03743   0.90898   0.75627   0.00000  Uiso   1.00
H1027  H     0.12098   0.70998   0.69973   0.00000  Uiso   1.00
H1028  H     0.21235   0.95669   0.80027   0.00000  Uiso   1.00
H1029  H     0.21237   0.71049   0.80026   0.00000  Uiso   1.00
H1030  H     0.12096   0.95618   0.69974   0.00000  Uiso   1.00
H1031  H     0.08699   0.87380   0.85502   0.00000  Uiso   1.00
H1032  H     0.08058   0.93609   0.85830   0.00000  Uiso   1.00
H1033  H     0.07470   0.90200   0.90767   0.00000  Uiso   1.00
H1034  H     0.25276   0.73055   0.64168   0.00000  Uiso   1.00
H1035  H     0.24635   0.79284   0.64500   0.00000  Uiso   1.00
H1036  H     0.14406   0.90302   0.61119   0.00000  Uiso   1.00
H1037  H     0.25864   0.76468   0.59233   0.00000  Uiso   1.00
H1038  H     0.12803   0.94441   0.96179   0.00000  Uiso   1.00
H1039  H     0.20531   0.72225   0.53821   0.00000  Uiso   1.00
H1040  H     0.13040   0.94376   0.54235   0.00000  Uiso   1.00
H1041  H     0.20294   0.72290   0.95765   0.00000  Uiso   1.00
H1042  H     0.03720   0.75765   0.74384   0.00000  Uiso   1.00
H1043  H     0.29613   0.90901   0.75616   0.00000  Uiso   1.00
H1044  H     0.29590   0.75768   0.74373   0.00000  Uiso   1.00
N1045  N     0.16667   0.95069   0.75000   0.00000  Uiso   1.00
N1046  N     0.16667   0.71598   0.75000   0.00000  Uiso   1.00
O1047  O     0.10655   0.87291   0.75000   0.00000  Uiso   1.00
O1048  O     0.19857   0.75472   0.61487   0.00000  Uiso   1.00
O1049  O     0.22679   0.79375   0.75001   0.00000  Uiso   1.00
O1050  O     0.22679   0.87291   0.75001   0.00000  Uiso   1.00
O1051  O     0.10655   0.79375   0.75000   0.00000  Uiso   1.00
O1052  O     0.16666   0.87293   0.68513   0.00000  Uiso   1.00
O1053  O     0.16668   0.79373   0.81487   0.00000  Uiso   1.00
O1054  O     0.16668   0.87293   0.81487   0.00000  Uiso   1.00
O1055  O     0.16666   0.79373   0.68513   0.00000  Uiso   1.00
O1056  O     0.13477   0.91195   0.88513   0.00000  Uiso   1.00
C1057  C     0.42068   0.83332   0.75002   0.00000  Uiso   1.00
C1058  C     0.37607   0.83332   0.75005   0.00000  Uiso   1.00
C1059  C     0.47463   0.69135   0.72208   0.00000  Uiso   1.00
C1060  C     0.52537   0.97532   0.77792   0.00000  Uiso   1.00
C1061  C     0.52538   0.69163   0.77792   0.00000  Uiso   1.00
C1062  C     0.47462   0.97504   0.72208   0.00000  Uiso   1.00
C1063  C     0.50072   0.83320   0.66432   0.00000  Uiso   1.00
C1064  C     0.49928   0.83346   0.83568   0.00000  Uiso   1.00
C1065  C     0.51164   0.79403   0.90694   0.00000  Uiso   1.00
C1066  C     0.48836   0.87264   0.59306   0.00000  Uiso   1.00
C1067  C     0.49786   0.83372   0.88408   0.00000  Uiso   1.00
C1068  C     0.57932   0.83335   0.74998   0.00000  Uiso   1.00
C1069  C     0.50214   0.83295   0.61592   0.00000  Uiso   1.00
C1070  C     0.48295   0.87312   0.90754   0.00000  Uiso   1.00
C1071  C     0.51706   0.79355   0.59246   0.00000  Uiso   1.00
C1072  C     0.48476   0.87349   0.95404   0.00000  Uiso   1.00
C1073  C     0.51525   0.79317   0.54596   0.00000  Uiso   1.00
C1074  C     0.49926   0.83343   0.97673   0.00000  Uiso   1.00
C1075  C     0.50075   0.83324   0.52327   0.00000  Uiso   1.00
C1076  C     0.51230   0.79352   0.95299   0.00000  Uiso   1.00
C1077  C     0.48771   0.87315   0.54701   0.00000  Uiso   1.00
C1078  C     0.47229   0.91311   0.97829   0.00000  Uiso   1.00
C1079  C     0.47370   0.91287   0.52438   0.00000  Uiso   1.00
C1080  C     0.52772   0.75356   0.52171   0.00000  Uiso   1.00
C1081  C     0.42579   0.90511   0.87642   0.00000  Uiso   1.00
C1082  C     0.57422   0.76155   0.62358   0.00000  Uiso   1.00
C1083  C     0.52630   0.75380   0.97562   0.00000  Uiso   1.00
C1084  C     0.35456   0.79085   0.74662   0.00000  Uiso   1.00
C1085  C     0.64544   0.87582   0.75338   0.00000  Uiso   1.00
C1086  C     0.64531   0.79087   0.74655   0.00000  Uiso   1.00
C1087  C     0.35469   0.87580   0.75345   0.00000  Uiso   1.00
C1088  C     0.62393   0.83335   0.74995   0.00000  Uiso   1.00
Cu1089 Cu    0.50000   0.88022   0.75000   0.00000  Uiso   1.00
Cu1090 Cu    0.50000   0.78645   0.75000   0.00000  Uiso   1.00
H1091  H     0.52261   0.76365   0.88881   0.00000  Uiso   1.00
H1092  H     0.37077   0.90898   0.75627   0.00000  Uiso   1.00
H1093  H     0.45432   0.70998   0.69973   0.00000  Uiso   1.00
H1094  H     0.54568   0.95669   0.80027   0.00000  Uiso   1.00
H1095  H     0.54570   0.71049   0.80026   0.00000  Uiso   1.00
H1096  H     0.45430   0.95618   0.69974   0.00000  Uiso   1.00
H1097  H     0.42032   0.87380   0.85502   0.00000  Uiso   1.00
H1098  H     0.41391   0.93609   0.85830   0.00000  Uiso   1.00
H1099  H     0.40803   0.90200   0.90767   0.00000  Uiso   1.00
H1100  H     0.58610   0.73055   0.64168   0.00000  Uiso   1.00
H1101  H     0.57968   0.79284   0.64500   0.00000  Uiso   1.00
H1102  H     0.47739   0.90302   0.61119   0.00000  Uiso   1.00
H1103  H     0.59197   0.76468   0.59233   0.00000  Uiso   1.00
H1104  H     0.46136   0.94441   0.96179   0.00000  Uiso   1.00
H1105  H     0.53865   0.72225   0.53821   0.00000  Uiso   1.00
H1106  H     0.46373   0.94376   0.54235   0.00000  Uiso   1.00
H1107  H     0.53628   0.72290   0.95765   0.00000  Uiso   1.00
H1108  H     0.37053   0.75765   0.74384   0.00000  Uiso   1.00
H1109  H     0.62947   0.90901   0.75616   0.00000  Uiso   1.00
H1110  H     0.62923   0.75768   0.74373   0.00000  Uiso   1.00
N1111  N     0.50000   0.95069   0.75000   0.00000  Uiso   1.00
N1112  N     0.50000   0.71598   0.75000   0.00000  Uiso   1.00
O1113  O     0.43988   0.87291   0.75000   0.00000  Uiso   1.00
O1114  O     0.53190   0.75472   0.61487   0.00000  Uiso   1.00
O1115  O     0.56012   0.79375   0.75001   0.00000  Uiso   1.00
O1116  O     0.56012   0.87291   0.75001   0.00000  Uiso   1.00
O1117  O     0.43988   0.79375   0.75000   0.00000  Uiso   1.00
O1118  O     0.49999   0.87293   0.68513   0.00000  Uiso   1.00
O1119  O     0.50001   0.79373   0.81487   0.00000  Uiso   1.00
O1120  O     0.50001   0.87293   0.81487   0.00000  Uiso   1.00
O1121  O     0.49999   0.79373   0.68513   0.00000  Uiso   1.00
O1122  O     0.46810   0.91195   0.88513   0.00000  Uiso   1.00
C1123  C     0.75401   0.83332   0.75002   0.00000  Uiso   1.00
C1124  C     0.70940   0.83332   0.75005   0.00000  Uiso   1.00
C1125  C     0.80796   0.69135   0.72208   0.00000  Uiso   1.00
C1126  C     0.85870   0.97532   0.77792   0.00000  Uiso   1.00
C1127  C     0.85871   0.69163   0.77792   0.00000  Uiso   1.00
C1128  C     0.80795   0.97504   0.72208   0.00000  Uiso   1.00
C1129  C     0.83405   0.83320   0.66432   0.00000  Uiso   1.00
C1130  C     0.83262   0.83346   0.83568   0.00000  Uiso   1.00
C1131  C     0.84498   0.79403   0.90694   0.00000  Uiso   1.00
C1132  C     0.82170   0.87264   0.59306   0.00000  Uiso   1.00
C1133  C     0.83119   0.83372   0.88408   0.00000  Uiso   1.00
C1134  C     0.91266   0.83335   0.74998   0.00000  Uiso   1.00
C1135  C     0.83548   0.83295   0.61592   0.00000  Uiso   1.00
C1136  C     0.81628   0.87312   0.90754   0.00000  Uiso   1.00
C1137  C     0.85039   0.79355   0.59246   0.00000  Uiso   1.00
C1138  C     0.81809   0.87349   0.95404   0.00000  Uiso   1.00
C1139  C     0.84858   0.79317   0.54596   0.00000  Uiso   1.00
C1140  C     0.83259   0.83343   0.97673   0.00000  Uiso   1.00
C1141  C     0.83408   0.83324   0.52327   0.00000  Uiso   1.00
C1142  C     0.84563   0.79352   0.95299   0.00000  Uiso   1.00
C1143  C     0.82104   0.87315   0.54701   0.00000  Uiso   1.00
C1144  C     0.80562   0.91311   0.97829   0.00000  Uiso   1.00
C1145  C     0.80704   0.91287   0.52438   0.00000  Uiso   1.00
C1146  C     0.86105   0.75356   0.52171   0.00000  Uiso   1.00
C1147  C     0.75912   0.90511   0.87642   0.00000  Uiso   1.00
C1148  C     0.90755   0.76155   0.62358   0.00000  Uiso   1.00
C1149  C     0.85964   0.75380   0.97562   0.00000  Uiso   1.00
C1150  C     0.68789   0.79085   0.74662   0.00000  Uiso   1.00
C1151  C     0.97878   0.87582   0.75338   0.00000  Uiso   1.00
C1152  C     0.97865   0.79087   0.74655   0.00000  Uiso   1.00
C1153  C     0.68802   0.87580   0.75345   0.00000  Uiso   1.00
C1154  C     0.95726   0.83335   0.74995   0.00000  Uiso   1.00
Cu1155 Cu    0.83333   0.88022   0.75000   0.00000  Uiso   1.00
Cu1156 Cu    0.83333   0.78645   0.75000   0.00000  Uiso   1.00
H1157  H     0.85595   0.76365   0.88881   0.00000  Uiso   1.00
H1158  H     0.70410   0.90898   0.75627   0.00000  Uiso   1.00
H1159  H     0.78765   0.70998   0.69973   0.00000  Uiso   1.00
H1160  H     0.87902   0.95669   0.80027   0.00000  Uiso   1.00
H1161  H     0.87904   0.71049   0.80026   0.00000  Uiso   1.00
H1162  H     0.78763   0.95618   0.69974   0.00000  Uiso   1.00
H1163  H     0.75366   0.87380   0.85502   0.00000  Uiso   1.00
H1164  H     0.74724   0.93609   0.85830   0.00000  Uiso   1.00
H1165  H     0.74136   0.90200   0.90767   0.00000  Uiso   1.00
H1166  H     0.91943   0.73055   0.64168   0.00000  Uiso   1.00
H1167  H     0.91301   0.79284   0.64500   0.00000  Uiso   1.00
H1168  H     0.81073   0.90302   0.61119   0.00000  Uiso   1.00
H1169  H     0.92530   0.76468   0.59233   0.00000  Uiso   1.00
H1170  H     0.79469   0.94441   0.96179   0.00000  Uiso   1.00
H1171  H     0.87198   0.72225   0.53821   0.00000  Uiso   1.00
H1172  H     0.79706   0.94376   0.54235   0.00000  Uiso   1.00
H1173  H     0.86961   0.72290   0.95765   0.00000  Uiso   1.00
H1174  H     0.70387   0.75765   0.74384   0.00000  Uiso   1.00
H1175  H     0.96280   0.90901   0.75616   0.00000  Uiso   1.00
H1176  H     0.96257   0.75768   0.74373   0.00000  Uiso   1.00
N1177  N     0.83333   0.95069   0.75000   0.00000  Uiso   1.00
N1178  N     0.83333   0.71598   0.75000   0.00000  Uiso   1.00
O1179  O     0.77321   0.87291   0.75000   0.00000  Uiso   1.00
O1180  O     0.86523   0.75472   0.61487   0.00000  Uiso   1.00
O1181  O     0.89345   0.79375   0.75001   0.00000  Uiso   1.00
O1182  O     0.89345   0.87291   0.75001   0.00000  Uiso   1.00
O1183  O     0.77321   0.79375   0.75000   0.00000  Uiso   1.00
O1184  O     0.83332   0.87293   0.68513   0.00000  Uiso   1.00
O1185  O     0.83334   0.79373   0.81487   0.00000  Uiso   1.00
O1186  O     0.83334   0.87293   0.81487   0.00000  Uiso   1.00
O1187  O     0.83332   0.79373   0.68513   0.00000  Uiso   1.00
O1188  O     0.80144   0.91195   0.88513   0.00000  Uiso   1.00
loop_
_geom_bond_atom_site_label_1
_geom_bond_atom_site_label_2
_geom_bond_distance
_geom_bond_site_symmetry_2
_ccdc_geom_bond_type
C1     O57     1.290   .     A
C1     C2      1.449   .     S
C1     O61     1.290   .     A
C2     C31     1.401   .     A
C2     C28     1.401   .     A
C3     N56     1.367   .     A
C3     H37     1.082   .     S
C3     C402    1.416   1_545 S
C4     H38     1.082   .     S
C4     N55     1.367   .     A
C4     C203    1.416   .     S
C5     H39     1.082   .     S
C5     N56     1.367   .     A
C5     C400    1.416   1_545 S
C6     N55     1.367   .     A
C6     H40     1.082   .     S
C6     C201    1.416   .     S
C7     O62     1.294   .     A
C7     O65     1.292   .     A
C7     C13     1.462   .     S
C8     O64     1.292   .     A
C8     C11     1.462   .     S
C8     O63     1.294   .     A
C9     C11     1.400   .     A
C9     C20     1.390   .     A
C9     H35     1.085   .     S
C10    H46     1.085   .     S
C10    C21     1.390   .     A
C10    C13     1.400   .     A
C11    C14     1.414   .     A
C12    C32     1.449   .     S
C12    O60     1.290   .     A
C12    O59     1.290   .     A
C13    C15     1.414   .     A
C14    O66     1.385   .     S
C14    C16     1.404   .     A
C15    C17     1.404   .     A
C15    O58     1.385   .     S
C16    C18     1.414   .     A
C16    C22     1.405   .     A
C17    C19     1.414   .     A
C17    C24     1.405   .     A
C18    C20     1.410   .     A
C18    C613    1.405   .     S
C19    C21     1.410   .     A
C19    C612    1.405   1_554 S
C20    C27     1.400   .     A
C21    C23     1.400   .     A
C22    H48     1.083   .     S
C22    C617    1.392   .     S
C23    H50     1.084   .     S
C23    C616    1.392   1_554 S
C24    H49     1.083   .     S
C24    C621    1.392   1_554 S
C25    H42     1.109   .     S
C25    H43     1.113   .     S
C25    H41     1.113   .     S
C25    O66     1.411   .     S
C26    H44     1.109   .     S
C26    H47     1.113   .     S
C26    H45     1.113   .     S
C26    O58     1.411   .     S
C27    H51     1.084   .     S
C27    C618    1.392   .     S
C28    H52     1.083   .     S
C28    C162    1.383   1_455 S
C29    H53     1.083   .     S
C29    C32     1.401   .     A
C29    C97     1.383   .     S
C30    C32     1.401   .     A
C30    H54     1.083   .     S
C30    C94     1.383   .     S
C31    H36     1.083   .     S
C31    C161    1.383   1_455 S
Cu33   N55     2.010   .     S
Cu33   Cu34    2.674   .     S
Cu33   O57     1.964   .     S
Cu33   O60     1.965   .     S
Cu33   O64     1.970   .     S
Cu33   O62     1.968   .     S
Cu34   N56     2.010   .     S
Cu34   O65     1.970   .     S
Cu34   O63     1.968   .     S
Cu34   O59     1.964   .     S
Cu34   O61     1.965   .     S
C67    O123    1.290   .     A
C67    C68     1.449   .     S
C67    O127    1.290   .     A
C68    C97     1.401   .     A
C68    C94     1.401   .     A
C69    N122    1.367   .     A
C69    H103    1.082   .     S
C69    C468    1.416   1_545 S
C70    H104    1.082   .     S
C70    N121    1.367   .     A
C70    C269    1.416   .     S
C71    H105    1.082   .     S
C71    N122    1.367   .     A
C71    C466    1.416   1_545 S
C72    N121    1.367   .     A
C72    H106    1.082   .     S
C72    C267    1.416   .     S
C73    O128    1.294   .     A
C73    O131    1.292   .     A
C73    C79     1.462   .     S
C74    O130    1.292   .     A
C74    C77     1.462   .     S
C74    O129    1.294   .     A
C75    C77     1.400   .     A
C75    C86     1.390   .     A
C75    H101    1.085   .     S
C76    H112    1.085   .     S
C76    C87     1.390   .     A
C76    C79     1.400   .     A
C77    C80     1.414   .     A
C78    C98     1.449   .     S
C78    O126    1.290   .     A
C78    O125    1.290   .     A
C79    C81     1.414   .     A
C80    O132    1.385   .     S
C80    C82     1.404   .     A
C81    C83     1.404   .     A
C81    O124    1.385   .     S
C82    C84     1.414   .     A
C82    C88     1.405   .     A
C83    C85     1.414   .     A
C83    C90     1.405   .     A
C84    C86     1.410   .     A
C84    C679    1.405   .     S
C85    C87     1.410   .     A
C85    C678    1.405   1_554 S
C86    C93     1.400   .     A
C87    C89     1.400   .     A
C88    H114    1.083   .     S
C88    C683    1.392   .     S
C89    H116    1.084   .     S
C89    C682    1.392   1_554 S
C90    H115    1.083   .     S
C90    C687    1.392   1_554 S
C91    H108    1.109   .     S
C91    H109    1.113   .     S
C91    H107    1.113   .     S
C91    O132    1.411   .     S
C92    H110    1.109   .     S
C92    H113    1.113   .     S
C92    H111    1.113   .     S
C92    O124    1.411   .     S
C93    H117    1.084   .     S
C93    C684    1.392   .     S
C94    H118    1.083   .     S
C95    H119    1.083   .     S
C95    C98     1.401   .     A
C95    C163    1.383   .     S
C96    C98     1.401   .     A
C96    H120    1.083   .     S
C96    C160    1.383   .     S
C97    H102    1.083   .     S
Cu99   N121    2.010   .     S
Cu99   Cu100   2.674   .     S
Cu99   O123    1.964   .     S
Cu99   O126    1.965   .     S
Cu99   O130    1.970   .     S
Cu99   O128    1.968   .     S
Cu100  N122    2.010   .     S
Cu100  O131    1.970   .     S
Cu100  O129    1.968   .     S
Cu100  O125    1.964   .     S
Cu100  O127    1.965   .     S
C133   O189    1.290   .     A
C133   C134    1.449   .     S
C133   O193    1.290   .     A
C134   C163    1.401   .     A
C134   C160    1.401   .     A
C135   N188    1.367   .     A
C135   H169    1.082   .     S
C135   C534    1.416   1_545 S
C136   H170    1.082   .     S
C136   N187    1.367   .     A
C136   C335    1.416   .     S
C137   H171    1.082   .     S
C137   N188    1.367   .     A
C137   C532    1.416   1_545 S
C138   N187    1.367   .     A
C138   H172    1.082   .     S
C138   C333    1.416   .     S
C139   O194    1.294   .     A
C139   O197    1.292   .     A
C139   C145    1.462   .     S
C140   O196    1.292   .     A
C140   C143    1.462   .     S
C140   O195    1.294   .     A
C141   C143    1.400   .     A
C141   C152    1.390   .     A
C141   H167    1.085   .     S
C142   H178    1.085   .     S
C142   C153    1.390   .     A
C142   C145    1.400   .     A
C143   C146    1.414   .     A
C144   C164    1.449   .     S
C144   O192    1.290   .     A
C144   O191    1.290   .     A
C145   C147    1.414   .     A
C146   O198    1.385   .     S
C146   C148    1.404   .     A
C147   C149    1.404   .     A
C147   O190    1.385   .     S
C148   C150    1.414   .     A
C148   C154    1.405   .     A
C149   C151    1.414   .     A
C149   C156    1.405   .     A
C150   C152    1.410   .     A
C150   C745    1.405   .     S
C151   C153    1.410   .     A
C151   C744    1.405   1_554 S
C152   C159    1.400   .     A
C153   C155    1.400   .     A
C154   H180    1.083   .     S
C154   C749    1.392   .     S
C155   H182    1.084   .     S
C155   C748    1.392   1_554 S
C156   H181    1.083   .     S
C156   C753    1.392   1_554 S
C157   H174    1.109   .     S
C157   H175    1.113   .     S
C157   H173    1.113   .     S
C157   O198    1.411   .     S
C158   H176    1.109   .     S
C158   H179    1.113   .     S
C158   H177    1.113   .     S
C158   O190    1.411   .     S
C159   H183    1.084   .     S
C159   C750    1.392   .     S
C160   H184    1.083   .     S
C161   H185    1.083   .     S
C161   C164    1.401   .     A
C161   C31     1.383   1_655 S
C162   C164    1.401   .     A
C162   H186    1.083   .     S
C162   C28     1.383   1_655 S
C163   H168    1.083   .     S
Cu165  N187    2.010   .     S
Cu165  Cu166   2.674   .     S
Cu165  O189    1.964   .     S
Cu165  O192    1.965   .     S
Cu165  O196    1.970   .     S
Cu165  O194    1.968   .     S
Cu166  N188    2.010   .     S
Cu166  O197    1.970   .     S
Cu166  O195    1.968   .     S
Cu166  O191    1.964   .     S
Cu166  O193    1.965   .     S
C199   O255    1.290   .     A
C199   C200    1.449   .     S
C199   O259    1.290   .     A
C200   C229    1.401   .     A
C200   C226    1.401   .     A
C201   N254    1.367   .     A
C201   H235    1.082   .     S
C202   H236    1.082   .     S
C202   N253    1.367   .     A
C202   C401    1.416   .     S
C203   H237    1.082   .     S
C203   N254    1.367   .     A
C204   N253    1.367   .     A
C204   H238    1.082   .     S
C204   C399    1.416   .     S
C205   O260    1.294   .     A
C205   O263    1.292   .     A
C205   C211    1.462   .     S
C206   O262    1.292   .     A
C206   C209    1.462   .     S
C206   O261    1.294   .     A
C207   C209    1.400   .     A
C207   C218    1.390   .     A
C207   H233    1.085   .     S
C208   H244    1.085   .     S
C208   C219    1.390   .     A
C208   C211    1.400   .     A
C209   C212    1.414   .     A
C210   C230    1.449   .     S
C210   O258    1.290   .     A
C210   O257    1.290   .     A
C211   C213    1.414   .     A
C212   O264    1.385   .     S
C212   C214    1.404   .     A
C213   C215    1.404   .     A
C213   O256    1.385   .     S
C214   C216    1.414   .     A
C214   C220    1.405   .     A
C215   C217    1.414   .     A
C215   C222    1.405   .     A
C216   C218    1.410   .     A
C216   C811    1.405   .     S
C217   C219    1.410   .     A
C217   C810    1.405   1_554 S
C218   C225    1.400   .     A
C219   C221    1.400   .     A
C220   H246    1.083   .     S
C220   C815    1.392   .     S
C221   H248    1.084   .     S
C221   C814    1.392   1_554 S
C222   H247    1.083   .     S
C222   C819    1.392   1_554 S
C223   H240    1.109   .     S
C223   H241    1.113   .     S
C223   H239    1.113   .     S
C223   O264    1.411   .     S
C224   H242    1.109   .     S
C224   H245    1.113   .     S
C224   H243    1.113   .     S
C224   O256    1.411   .     S
C225   H249    1.084   .     S
C225   C816    1.392   .     S
C226   H250    1.083   .     S
C226   C360    1.383   1_455 S
C227   H251    1.083   .     S
C227   C230    1.401   .     A
C227   C295    1.383   .     S
C228   C230    1.401   .     A
C228   H252    1.083   .     S
C228   C292    1.383   .     S
C229   H234    1.083   .     S
C229   C359    1.383   1_455 S
Cu231  N253    2.010   .     S
Cu231  Cu232   2.674   .     S
Cu231  O255    1.964   .     S
Cu231  O258    1.965   .     S
Cu231  O262    1.970   .     S
Cu231  O260    1.968   .     S
Cu232  N254    2.010   .     S
Cu232  O263    1.970   .     S
Cu232  O261    1.968   .     S
Cu232  O257    1.964   .     S
Cu232  O259    1.965   .     S
C265   O321    1.290   .     A
C265   C266    1.449   .     S
C265   O325    1.290   .     A
C266   C295    1.401   .     A
C266   C292    1.401   .     A
C267   N320    1.367   .     A
C267   H301    1.082   .     S
C268   H302    1.082   .     S
C268   N319    1.367   .     A
C268   C467    1.416   .     S
C269   H303    1.082   .     S
C269   N320    1.367   .     A
C270   N319    1.367   .     A
C270   H304    1.082   .     S
C270   C465    1.416   .     S
C271   O326    1.294   .     A
C271   O329    1.292   .     A
C271   C277    1.462   .     S
C272   O328    1.292   .     A
C272   C275    1.462   .     S
C272   O327    1.294   .     A
C273   C275    1.400   .     A
C273   C284    1.390   .     A
C273   H299    1.085   .     S
C274   H310    1.085   .     S
C274   C285    1.390   .     A
C274   C277    1.400   .     A
C275   C278    1.414   .     A
C276   C296    1.449   .     S
C276   O324    1.290   .     A
C276   O323    1.290   .     A
C277   C279    1.414   .     A
C278   O330    1.385   .     S
C278   C280    1.404   .     A
C279   C281    1.404   .     A
C279   O322    1.385   .     S
C280   C282    1.414   .     A
C280   C286    1.405   .     A
C281   C283    1.414   .     A
C281   C288    1.405   .     A
C282   C284    1.410   .     A
C282   C877    1.405   .     S
C283   C285    1.410   .     A
C283   C876    1.405   1_554 S
C284   C291    1.400   .     A
C285   C287    1.400   .     A
C286   H312    1.083   .     S
C286   C881    1.392   .     S
C287   H314    1.084   .     S
C287   C880    1.392   1_554 S
C288   H313    1.083   .     S
C288   C885    1.392   1_554 S
C289   H306    1.109   .     S
C289   H307    1.113   .     S
C289   H305    1.113   .     S
C289   O330    1.411   .     S
C290   H308    1.109   .     S
C290   H311    1.113   .     S
C290   H309    1.113   .     S
C290   O322    1.411   .     S
C291   H315    1.084   .     S
C291   C882    1.392   .     S
C292   H316    1.083   .     S
C293   H317    1.083   .     S
C293   C296    1.401   .     A
C293   C361    1.383   .     S
C294   C296    1.401   .     A
C294   H318    1.083   .     S
C294   C358    1.383   .     S
C295   H300    1.083   .     S
Cu297  N319    2.010   .     S
Cu297  Cu298   2.674   .     S
Cu297  O321    1.964   .     S
Cu297  O324    1.965   .     S
Cu297  O328    1.970   .     S
Cu297  O326    1.968   .     S
Cu298  N320    2.010   .     S
Cu298  O329    1.970   .     S
Cu298  O327    1.968   .     S
Cu298  O323    1.964   .     S
Cu298  O325    1.965   .     S
C331   O387    1.290   .     A
C331   C332    1.449   .     S
C331   O391    1.290   .     A
C332   C361    1.401   .     A
C332   C358    1.401   .     A
C333   N386    1.367   .     A
C333   H367    1.082   .     S
C334   H368    1.082   .     S
C334   N385    1.367   .     A
C334   C533    1.416   .     S
C335   H369    1.082   .     S
C335   N386    1.367   .     A
C336   N385    1.367   .     A
C336   H370    1.082   .     S
C336   C531    1.416   .     S
C337   O392    1.294   .     A
C337   O395    1.292   .     A
C337   C343    1.462   .     S
C338   O394    1.292   .     A
C338   C341    1.462   .     S
C338   O393    1.294   .     A
C339   C341    1.400   .     A
C339   C350    1.390   .     A
C339   H365    1.085   .     S
C340   H376    1.085   .     S
C340   C351    1.390   .     A
C340   C343    1.400   .     A
C341   C344    1.414   .     A
C342   C362    1.449   .     S
C342   O390    1.290   .     A
C342   O389    1.290   .     A
C343   C345    1.414   .     A
C344   O396    1.385   .     S
C344   C346    1.404   .     A
C345   C347    1.404   .     A
C345   O388    1.385   .     S
C346   C348    1.414   .     A
C346   C352    1.405   .     A
C347   C349    1.414   .     A
C347   C354    1.405   .     A
C348   C350    1.410   .     A
C348   C943    1.405   .     S
C349   C351    1.410   .     A
C349   C942    1.405   1_554 S
C350   C357    1.400   .     A
C351   C353    1.400   .     A
C352   H378    1.083   .     S
C352   C947    1.392   .     S
C353   H380    1.084   .     S
C353   C946    1.392   1_554 S
C354   H379    1.083   .     S
C354   C951    1.392   1_554 S
C355   H372    1.109   .     S
C355   H373    1.113   .     S
C355   H371    1.113   .     S
C355   O396    1.411   .     S
C356   H374    1.109   .     S
C356   H377    1.113   .     S
C356   H375    1.113   .     S
C356   O388    1.411   .     S
C357   H381    1.084   .     S
C357   C948    1.392   .     S
C358   H382    1.083   .     S
C359   H383    1.083   .     S
C359   C362    1.401   .     A
C359   C229    1.383   1_655 S
C360   C362    1.401   .     A
C360   H384    1.083   .     S
C360   C226    1.383   1_655 S
C361   H366    1.083   .     S
Cu363  N385    2.010   .     S
Cu363  Cu364   2.674   .     S
Cu363  O387    1.964   .     S
Cu363  O390    1.965   .     S
Cu363  O394    1.970   .     S
Cu363  O392    1.968   .     S
Cu364  N386    2.010   .     S
Cu364  O395    1.970   .     S
Cu364  O393    1.968   .     S
Cu364  O389    1.964   .     S
Cu364  O391    1.965   .     S
C397   O453    1.290   .     A
C397   C398    1.449   .     S
C397   O457    1.290   .     A
C398   C427    1.401   .     A
C398   C424    1.401   .     A
C399   N452    1.367   .     A
C399   H433    1.082   .     S
C400   H434    1.082   .     S
C400   N451    1.367   .     A
C400   C5      1.416   1_565 S
C401   H435    1.082   .     S
C401   N452    1.367   .     A
C402   N451    1.367   .     A
C402   H436    1.082   .     S
C402   C3      1.416   1_565 S
C403   O458    1.294   .     A
C403   O461    1.292   .     A
C403   C409    1.462   .     S
C404   O460    1.292   .     A
C404   C407    1.462   .     S
C404   O459    1.294   .     A
C405   C407    1.400   .     A
C405   C416    1.390   .     A
C405   H431    1.085   .     S
C406   H442    1.085   .     S
C406   C417    1.390   .     A
C406   C409    1.400   .     A
C407   C410    1.414   .     A
C408   C428    1.449   .     S
C408   O456    1.290   .     A
C408   O455    1.290   .     A
C409   C411    1.414   .     A
C410   O462    1.385   .     S
C410   C412    1.404   .     A
C411   C413    1.404   .     A
C411   O454    1.385   .     S
C412   C414    1.414   .     A
C412   C418    1.405   .     A
C413   C415    1.414   .     A
C413   C420    1.405   .     A
C414   C416    1.410   .     A
C414   C1009   1.405   .     S
C415   C417    1.410   .     A
C415   C1008   1.405   1_554 S
C416   C423    1.400   .     A
C417   C419    1.400   .     A
C418   H444    1.083   .     S
C418   C1013   1.392   .     S
C419   H446    1.084   .     S
C419   C1012   1.392   1_554 S
C420   H445    1.083   .     S
C420   C1017   1.392   1_554 S
C421   H438    1.109   .     S
C421   H439    1.113   .     S
C421   H437    1.113   .     S
C421   O462    1.411   .     S
C422   H440    1.109   .     S
C422   H443    1.113   .     S
C422   H441    1.113   .     S
C422   O454    1.411   .     S
C423   H447    1.084   .     S
C423   C1014   1.392   .     S
C424   H448    1.083   .     S
C424   C558    1.383   1_455 S
C425   H449    1.083   .     S
C425   C428    1.401   .     A
C425   C493    1.383   .     S
C426   C428    1.401   .     A
C426   H450    1.083   .     S
C426   C490    1.383   .     S
C427   H432    1.083   .     S
C427   C557    1.383   1_455 S
Cu429  N451    2.010   .     S
Cu429  Cu430   2.674   .     S
Cu429  O453    1.964   .     S
Cu429  O456    1.965   .     S
Cu429  O460    1.970   .     S
Cu429  O458    1.968   .     S
Cu430  N452    2.010   .     S
Cu430  O461    1.970   .     S
Cu430  O459    1.968   .     S
Cu430  O455    1.964   .     S
Cu430  O457    1.965   .     S
C463   O519    1.290   .     A
C463   C464    1.449   .     S
C463   O523    1.290   .     A
C464   C493    1.401   .     A
C464   C490    1.401   .     A
C465   N518    1.367   .     A
C465   H499    1.082   .     S
C466   H500    1.082   .     S
C466   N517    1.367   .     A
C466   C71     1.416   1_565 S
C467   H501    1.082   .     S
C467   N518    1.367   .     A
C468   N517    1.367   .     A
C468   H502    1.082   .     S
C468   C69     1.416   1_565 S
C469   O524    1.294   .     A
C469   O527    1.292   .     A
C469   C475    1.462   .     S
C470   O526    1.292   .     A
C470   C473    1.462   .     S
C470   O525    1.294   .     A
C471   C473    1.400   .     A
C471   C482    1.390   .     A
C471   H497    1.085   .     S
C472   H508    1.085   .     S
C472   C483    1.390   .     A
C472   C475    1.400   .     A
C473   C476    1.414   .     A
C474   C494    1.449   .     S
C474   O522    1.290   .     A
C474   O521    1.290   .     A
C475   C477    1.414   .     A
C476   O528    1.385   .     S
C476   C478    1.404   .     A
C477   C479    1.404   .     A
C477   O520    1.385   .     S
C478   C480    1.414   .     A
C478   C484    1.405   .     A
C479   C481    1.414   .     A
C479   C486    1.405   .     A
C480   C482    1.410   .     A
C480   C1075   1.405   .     S
C481   C483    1.410   .     A
C481   C1074   1.405   1_554 S
C482   C489    1.400   .     A
C483   C485    1.400   .     A
C484   H510    1.083   .     S
C484   C1079   1.392   .     S
C485   H512    1.084   .     S
C485   C1078   1.392   1_554 S
C486   H511    1.083   .     S
C486   C1083   1.392   1_554 S
C487   H504    1.109   .     S
C487   H505    1.113   .     S
C487   H503    1.113   .     S
C487   O528    1.411   .     S
C488   H506    1.109   .     S
C488   H509    1.113   .     S
C488   H507    1.113   .     S
C488   O520    1.411   .     S
C489   H513    1.084   .     S
C489   C1080   1.392   .     S
C490   H514    1.083   .     S
C491   H515    1.083   .     S
C491   C494    1.401   .     A
C491   C559    1.383   .     S
C492   C494    1.401   .     A
C492   H516    1.083   .     S
C492   C556    1.383   .     S
C493   H498    1.083   .     S
Cu495  N517    2.010   .     S
Cu495  Cu496   2.674   .     S
Cu495  O519    1.964   .     S
Cu495  O522    1.965   .     S
Cu495  O526    1.970   .     S
Cu495  O524    1.968   .     S
Cu496  N518    2.010   .     S
Cu496  O527    1.970   .     S
Cu496  O525    1.968   .     S
Cu496  O521    1.964   .     S
Cu496  O523    1.965   .     S
C529   O585    1.290   .     A
C529   C530    1.449   .     S
C529   O589    1.290   .     A
C530   C559    1.401   .     A
C530   C556    1.401   .     A
C531   N584    1.367   .     A
C531   H565    1.082   .     S
C532   H566    1.082   .     S
C532   N583    1.367   .     A
C532   C137    1.416   1_565 S
C533   H567    1.082   .     S
C533   N584    1.367   .     A
C534   N583    1.367   .     A
C534   H568    1.082   .     S
C534   C135    1.416   1_565 S
C535   O590    1.294   .     A
C535   O593    1.292   .     A
C535   C541    1.462   .     S
C536   O592    1.292   .     A
C536   C539    1.462   .     S
C536   O591    1.294   .     A
C537   C539    1.400   .     A
C537   C548    1.390   .     A
C537   H563    1.085   .     S
C538   H574    1.085   .     S
C538   C549    1.390   .     A
C538   C541    1.400   .     A
C539   C542    1.414   .     A
C540   C560    1.449   .     S
C540   O588    1.290   .     A
C540   O587    1.290   .     A
C541   C543    1.414   .     A
C542   O594    1.385   .     S
C542   C544    1.404   .     A
C543   C545    1.404   .     A
C543   O586    1.385   .     S
C544   C546    1.414   .     A
C544   C550    1.405   .     A
C545   C547    1.414   .     A
C545   C552    1.405   .     A
C546   C548    1.410   .     A
C546   C1141   1.405   .     S
C547   C549    1.410   .     A
C547   C1140   1.405   1_554 S
C548   C555    1.400   .     A
C549   C551    1.400   .     A
C550   H576    1.083   .     S
C550   C1145   1.392   .     S
C551   H578    1.084   .     S
C551   C1144   1.392   1_554 S
C552   H577    1.083   .     S
C552   C1149   1.392   1_554 S
C553   H570    1.109   .     S
C553   H571    1.113   .     S
C553   H569    1.113   .     S
C553   O594    1.411   .     S
C554   H572    1.109   .     S
C554   H575    1.113   .     S
C554   H573    1.113   .     S
C554   O586    1.411   .     S
C555   H579    1.084   .     S
C555   C1146   1.392   .     S
C556   H580    1.083   .     S
C557   H581    1.083   .     S
C557   C560    1.401   .     A
C557   C427    1.383   1_655 S
C558   C560    1.401   .     A
C558   H582    1.083   .     S
C558   C424    1.383   1_655 S
C559   H564    1.083   .     S
Cu561  N583    2.010   .     S
Cu561  Cu562   2.674   .     S
Cu561  O585    1.964   .     S
Cu561  O588    1.965   .     S
Cu561  O592    1.970   .     S
Cu561  O590    1.968   .     S
Cu562  N584    2.010   .     S
Cu562  O593    1.970   .     S
Cu562  O591    1.968   .     S
Cu562  O587    1.964   .     S
Cu562  O589    1.965   .     S
C595   O651    1.290   .     A
C595   C596    1.449   .     S
C595   O655    1.290   .     A
C596   C625    1.401   .     A
C596   C622    1.401   .     A
C597   N650    1.367   .     A
C597   H631    1.082   .     S
C597   C996    1.416   1_545 S
C598   H632    1.082   .     S
C598   N649    1.367   .     A
C598   C797    1.416   .     S
C599   H633    1.082   .     S
C599   N650    1.367   .     A
C599   C994    1.416   1_545 S
C600   N649    1.367   .     A
C600   H634    1.082   .     S
C600   C795    1.416   .     S
C601   O656    1.294   .     A
C601   O659    1.292   .     A
C601   C607    1.462   .     S
C602   O658    1.292   .     A
C602   C605    1.462   .     S
C602   O657    1.294   .     A
C603   C605    1.400   .     A
C603   C614    1.390   .     A
C603   H629    1.085   .     S
C604   H640    1.085   .     S
C604   C615    1.390   .     A
C604   C607    1.400   .     A
C605   C608    1.414   .     A
C606   C626    1.449   .     S
C606   O654    1.290   .     A
C606   O653    1.290   .     A
C607   C609    1.414   .     A
C608   O660    1.385   .     S
C608   C610    1.404   .     A
C609   C611    1.404   .     A
C609   O652    1.385   .     S
C610   C612    1.414   .     A
C610   C616    1.405   .     A
C611   C613    1.414   .     A
C611   C618    1.405   .     A
C612   C614    1.410   .     A
C612   C19     1.405   1_556 S
C613   C615    1.410   .     A
C614   C621    1.400   .     A
C615   C617    1.400   .     A
C616   H642    1.083   .     S
C616   C23     1.392   1_556 S
C617   H644    1.084   .     S
C618   H643    1.083   .     S
C619   H636    1.109   .     S
C619   H637    1.113   .     S
C619   H635    1.113   .     S
C619   O660    1.411   .     S
C620   H638    1.109   .     S
C620   H641    1.113   .     S
C620   H639    1.113   .     S
C620   O652    1.411   .     S
C621   H645    1.084   .     S
C621   C24     1.392   1_556 S
C622   H646    1.083   .     S
C622   C756    1.383   1_455 S
C623   H647    1.083   .     S
C623   C626    1.401   .     A
C623   C691    1.383   .     S
C624   C626    1.401   .     A
C624   H648    1.083   .     S
C624   C688    1.383   .     S
C625   H630    1.083   .     S
C625   C755    1.383   1_455 S
Cu627  N649    2.010   .     S
Cu627  Cu628   2.674   .     S
Cu627  O651    1.964   .     S
Cu627  O654    1.965   .     S
Cu627  O658    1.970   .     S
Cu627  O656    1.968   .     S
Cu628  N650    2.010   .     S
Cu628  O659    1.970   .     S
Cu628  O657    1.968   .     S
Cu628  O653    1.964   .     S
Cu628  O655    1.965   .     S
C661   O717    1.290   .     A
C661   C662    1.449   .     S
C661   O721    1.290   .     A
C662   C691    1.401   .     A
C662   C688    1.401   .     A
C663   N716    1.367   .     A
C663   H697    1.082   .     S
C663   C1062   1.416   1_545 S
C664   H698    1.082   .     S
C664   N715    1.367   .     A
C664   C863    1.416   .     S
C665   H699    1.082   .     S
C665   N716    1.367   .     A
C665   C1060   1.416   1_545 S
C666   N715    1.367   .     A
C666   H700    1.082   .     S
C666   C861    1.416   .     S
C667   O722    1.294   .     A
C667   O725    1.292   .     A
C667   C673    1.462   .     S
C668   O724    1.292   .     A
C668   C671    1.462   .     S
C668   O723    1.294   .     A
C669   C671    1.400   .     A
C669   C680    1.390   .     A
C669   H695    1.085   .     S
C670   H706    1.085   .     S
C670   C681    1.390   .     A
C670   C673    1.400   .     A
C671   C674    1.414   .     A
C672   C692    1.449   .     S
C672   O720    1.290   .     A
C672   O719    1.290   .     A
C673   C675    1.414   .     A
C674   O726    1.385   .     S
C674   C676    1.404   .     A
C675   C677    1.404   .     A
C675   O718    1.385   .     S
C676   C678    1.414   .     A
C676   C682    1.405   .     A
C677   C679    1.414   .     A
C677   C684    1.405   .     A
C678   C680    1.410   .     A
C678   C85     1.405   1_556 S
C679   C681    1.410   .     A
C680   C687    1.400   .     A
C681   C683    1.400   .     A
C682   H708    1.083   .     S
C682   C89     1.392   1_556 S
C683   H710    1.084   .     S
C684   H709    1.083   .     S
C685   H702    1.109   .     S
C685   H703    1.113   .     S
C685   H701    1.113   .     S
C685   O726    1.411   .     S
C686   H704    1.109   .     S
C686   H707    1.113   .     S
C686   H705    1.113   .     S
C686   O718    1.411   .     S
C687   H711    1.084   .     S
C687   C90     1.392   1_556 S
C688   H712    1.083   .     S
C689   H713    1.083   .     S
C689   C692    1.401   .     A
C689   C757    1.383   .     S
C690   C692    1.401   .     A
C690   H714    1.083   .     S
C690   C754    1.383   .     S
C691   H696    1.083   .     S
Cu693  N715    2.010   .     S
Cu693  Cu694   2.674   .     S
Cu693  O717    1.964   .     S
Cu693  O720    1.965   .     S
Cu693  O724    1.970   .     S
Cu693  O722    1.968   .     S
Cu694  N716    2.010   .     S
Cu694  O725    1.970   .     S
Cu694  O723    1.968   .     S
Cu694  O719    1.964   .     S
Cu694  O721    1.965   .     S
C727   O783    1.290   .     A
C727   C728    1.449   .     S
C727   O787    1.290   .     A
C728   C757    1.401   .     A
C728   C754    1.401   .     A
C729   N782    1.367   .     A
C729   H763    1.082   .     S
C729   C1128   1.416   1_545 S
C730   H764    1.082   .     S
C730   N781    1.367   .     A
C730   C929    1.416   .     S
C731   H765    1.082   .     S
C731   N782    1.367   .     A
C731   C1126   1.416   1_545 S
C732   N781    1.367   .     A
C732   H766    1.082   .     S
C732   C927    1.416   .     S
C733   O788    1.294   .     A
C733   O791    1.292   .     A
C733   C739    1.462   .     S
C734   O790    1.292   .     A
C734   C737    1.462   .     S
C734   O789    1.294   .     A
C735   C737    1.400   .     A
C735   C746    1.390   .     A
C735   H761    1.085   .     S
C736   H772    1.085   .     S
C736   C747    1.390   .     A
C736   C739    1.400   .     A
C737   C740    1.414   .     A
C738   C758    1.449   .     S
C738   O786    1.290   .     A
C738   O785    1.290   .     A
C739   C741    1.414   .     A
C740   O792    1.385   .     S
C740   C742    1.404   .     A
C741   C743    1.404   .     A
C741   O784    1.385   .     S
C742   C744    1.414   .     A
C742   C748    1.405   .     A
C743   C745    1.414   .     A
C743   C750    1.405   .     A
C744   C746    1.410   .     A
C744   C151    1.405   1_556 S
C745   C747    1.410   .     A
C746   C753    1.400   .     A
C747   C749    1.400   .     A
C748   H774    1.083   .     S
C748   C155    1.392   1_556 S
C749   H776    1.084   .     S
C750   H775    1.083   .     S
C751   H768    1.109   .     S
C751   H769    1.113   .     S
C751   H767    1.113   .     S
C751   O792    1.411   .     S
C752   H770    1.109   .     S
C752   H773    1.113   .     S
C752   H771    1.113   .     S
C752   O784    1.411   .     S
C753   H777    1.084   .     S
C753   C156    1.392   1_556 S
C754   H778    1.083   .     S
C755   H779    1.083   .     S
C755   C758    1.401   .     A
C755   C625    1.383   1_655 S
C756   C758    1.401   .     A
C756   H780    1.083   .     S
C756   C622    1.383   1_655 S
C757   H762    1.083   .     S
Cu759  N781    2.010   .     S
Cu759  Cu760   2.674   .     S
Cu759  O783    1.964   .     S
Cu759  O786    1.965   .     S
Cu759  O790    1.970   .     S
Cu759  O788    1.968   .     S
Cu760  N782    2.010   .     S
Cu760  O791    1.970   .     S
Cu760  O789    1.968   .     S
Cu760  O785    1.964   .     S
Cu760  O787    1.965   .     S
C793   O849    1.290   .     A
C793   C794    1.449   .     S
C793   O853    1.290   .     A
C794   C823    1.401   .     A
C794   C820    1.401   .     A
C795   N848    1.367   .     A
C795   H829    1.082   .     S
C796   H830    1.082   .     S
C796   N847    1.367   .     A
C796   C995    1.416   .     S
C797   H831    1.082   .     S
C797   N848    1.367   .     A
C798   N847    1.367   .     A
C798   H832    1.082   .     S
C798   C993    1.416   .     S
C799   O854    1.294   .     A
C799   O857    1.292   .     A
C799   C805    1.462   .     S
C800   O856    1.292   .     A
C800   C803    1.462   .     S
C800   O855    1.294   .     A
C801   C803    1.400   .     A
C801   C812    1.390   .     A
C801   H827    1.085   .     S
C802   H838    1.085   .     S
C802   C813    1.390   .     A
C802   C805    1.400   .     A
C803   C806    1.414   .     A
C804   C824    1.449   .     S
C804   O852    1.290   .     A
C804   O851    1.290   .     A
C805   C807    1.414   .     A
C806   O858    1.385   .     S
C806   C808    1.404   .     A
C807   C809    1.404   .     A
C807   O850    1.385   .     S
C808   C810    1.414   .     A
C808   C814    1.405   .     A
C809   C811    1.414   .     A
C809   C816    1.405   .     A
C810   C812    1.410   .     A
C810   C217    1.405   1_556 S
C811   C813    1.410   .     A
C812   C819    1.400   .     A
C813   C815    1.400   .     A
C814   H840    1.083   .     S
C814   C221    1.392   1_556 S
C815   H842    1.084   .     S
C816   H841    1.083   .     S
C817   H834    1.109   .     S
C817   H835    1.113   .     S
C817   H833    1.113   .     S
C817   O858    1.411   .     S
C818   H836    1.109   .     S
C818   H839    1.113   .     S
C818   H837    1.113   .     S
C818   O850    1.411   .     S
C819   H843    1.084   .     S
C819   C222    1.392   1_556 S
C820   H844    1.083   .     S
C820   C954    1.383   1_455 S
C821   H845    1.083   .     S
C821   C824    1.401   .     A
C821   C889    1.383   .     S
C822   C824    1.401   .     A
C822   H846    1.083   .     S
C822   C886    1.383   .     S
C823   H828    1.083   .     S
C823   C953    1.383   1_455 S
Cu825  N847    2.010   .     S
Cu825  Cu826   2.674   .     S
Cu825  O849    1.964   .     S
Cu825  O852    1.965   .     S
Cu825  O856    1.970   .     S
Cu825  O854    1.968   .     S
Cu826  N848    2.010   .     S
Cu826  O857    1.970   .     S
Cu826  O855    1.968   .     S
Cu826  O851    1.964   .     S
Cu826  O853    1.965   .     S
C859   O915    1.290   .     A
C859   C860    1.449   .     S
C859   O919    1.290   .     A
C860   C889    1.401   .     A
C860   C886    1.401   .     A
C861   N914    1.367   .     A
C861   H895    1.082   .     S
C862   H896    1.082   .     S
C862   N913    1.367   .     A
C862   C1061   1.416   .     S
C863   H897    1.082   .     S
C863   N914    1.367   .     A
C864   N913    1.367   .     A
C864   H898    1.082   .     S
C864   C1059   1.416   .     S
C865   O920    1.294   .     A
C865   O923    1.292   .     A
C865   C871    1.462   .     S
C866   O922    1.292   .     A
C866   C869    1.462   .     S
C866   O921    1.294   .     A
C867   C869    1.400   .     A
C867   C878    1.390   .     A
C867   H893    1.085   .     S
C868   H904    1.085   .     S
C868   C879    1.390   .     A
C868   C871    1.400   .     A
C869   C872    1.414   .     A
C870   C890    1.449   .     S
C870   O918    1.290   .     A
C870   O917    1.290   .     A
C871   C873    1.414   .     A
C872   O924    1.385   .     S
C872   C874    1.404   .     A
C873   C875    1.404   .     A
C873   O916    1.385   .     S
C874   C876    1.414   .     A
C874   C880    1.405   .     A
C875   C877    1.414   .     A
C875   C882    1.405   .     A
C876   C878    1.410   .     A
C876   C283    1.405   1_556 S
C877   C879    1.410   .     A
C878   C885    1.400   .     A
C879   C881    1.400   .     A
C880   H906    1.083   .     S
C880   C287    1.392   1_556 S
C881   H908    1.084   .     S
C882   H907    1.083   .     S
C883   H900    1.109   .     S
C883   H901    1.113   .     S
C883   H899    1.113   .     S
C883   O924    1.411   .     S
C884   H902    1.109   .     S
C884   H905    1.113   .     S
C884   H903    1.113   .     S
C884   O916    1.411   .     S
C885   H909    1.084   .     S
C885   C288    1.392   1_556 S
C886   H910    1.083   .     S
C887   H911    1.083   .     S
C887   C890    1.401   .     A
C887   C955    1.383   .     S
C888   C890    1.401   .     A
C888   H912    1.083   .     S
C888   C952    1.383   .     S
C889   H894    1.083   .     S
Cu891  N913    2.010   .     S
Cu891  Cu892   2.674   .     S
Cu891  O915    1.964   .     S
Cu891  O918    1.965   .     S
Cu891  O922    1.970   .     S
Cu891  O920    1.968   .     S
Cu892  N914    2.010   .     S
Cu892  O923    1.970   .     S
Cu892  O921    1.968   .     S
Cu892  O917    1.964   .     S
Cu892  O919    1.965   .     S
C925   O981    1.290   .     A
C925   C926    1.449   .     S
C925   O985    1.290   .     A
C926   C955    1.401   .     A
C926   C952    1.401   .     A
C927   N980    1.367   .     A
C927   H961    1.082   .     S
C928   H962    1.082   .     S
C928   N979    1.367   .     A
C928   C1127   1.416   .     S
C929   H963    1.082   .     S
C929   N980    1.367   .     A
C930   N979    1.367   .     A
C930   H964    1.082   .     S
C930   C1125   1.416   .     S
C931   O986    1.294   .     A
C931   O989    1.292   .     A
C931   C937    1.462   .     S
C932   O988    1.292   .     A
C932   C935    1.462   .     S
C932   O987    1.294   .     A
C933   C935    1.400   .     A
C933   C944    1.390   .     A
C933   H959    1.085   .     S
C934   H970    1.085   .     S
C934   C945    1.390   .     A
C934   C937    1.400   .     A
C935   C938    1.414   .     A
C936   C956    1.449   .     S
C936   O984    1.290   .     A
C936   O983    1.290   .     A
C937   C939    1.414   .     A
C938   O990    1.385   .     S
C938   C940    1.404   .     A
C939   C941    1.404   .     A
C939   O982    1.385   .     S
C940   C942    1.414   .     A
C940   C946    1.405   .     A
C941   C943    1.414   .     A
C941   C948    1.405   .     A
C942   C944    1.410   .     A
C942   C349    1.405   1_556 S
C943   C945    1.410   .     A
C944   C951    1.400   .     A
C945   C947    1.400   .     A
C946   H972    1.083   .     S
C946   C353    1.392   1_556 S
C947   H974    1.084   .     S
C948   H973    1.083   .     S
C949   H966    1.109   .     S
C949   H967    1.113   .     S
C949   H965    1.113   .     S
C949   O990    1.411   .     S
C950   H968    1.109   .     S
C950   H971    1.113   .     S
C950   H969    1.113   .     S
C950   O982    1.411   .     S
C951   H975    1.084   .     S
C951   C354    1.392   1_556 S
C952   H976    1.083   .     S
C953   H977    1.083   .     S
C953   C956    1.401   .     A
C953   C823    1.383   1_655 S
C954   C956    1.401   .     A
C954   H978    1.083   .     S
C954   C820    1.383   1_655 S
C955   H960    1.083   .     S
Cu957  N979    2.010   .     S
Cu957  Cu958   2.674   .     S
Cu957  O981    1.964   .     S
Cu957  O984    1.965   .     S
Cu957  O988    1.970   .     S
Cu957  O986    1.968   .     S
Cu958  N980    2.010   .     S
Cu958  O989    1.970   .     S
Cu958  O987    1.968   .     S
Cu958  O983    1.964   .     S
Cu958  O985    1.965   .     S
C991   O1047   1.290   .     A
C991   C992    1.449   .     S
C991   O1051   1.290   .     A
C992   C1021   1.401   .     A
C992   C1018   1.401   .     A
C993   N1046   1.367   .     A
C993   H1027   1.082   .     S
C994   H1028   1.082   .     S
C994   N1045   1.367   .     A
C994   C599    1.416   1_565 S
C995   H1029   1.082   .     S
C995   N1046   1.367   .     A
C996   N1045   1.367   .     A
C996   H1030   1.082   .     S
C996   C597    1.416   1_565 S
C997   O1052   1.294   .     A
C997   O1055   1.292   .     A
C997   C1003   1.462   .     S
C998   O1054   1.292   .     A
C998   C1001   1.462   .     S
C998   O1053   1.294   .     A
C999   C1001   1.400   .     A
C999   C1010   1.390   .     A
C999   H1025   1.085   .     S
C1000  H1036   1.085   .     S
C1000  C1011   1.390   .     A
C1000  C1003   1.400   .     A
C1001  C1004   1.414   .     A
C1002  C1022   1.449   .     S
C1002  O1050   1.290   .     A
C1002  O1049   1.290   .     A
C1003  C1005   1.414   .     A
C1004  O1056   1.385   .     S
C1004  C1006   1.404   .     A
C1005  C1007   1.404   .     A
C1005  O1048   1.385   .     S
C1006  C1008   1.414   .     A
C1006  C1012   1.405   .     A
C1007  C1009   1.414   .     A
C1007  C1014   1.405   .     A
C1008  C1010   1.410   .     A
C1008  C415    1.405   1_556 S
C1009  C1011   1.410   .     A
C1010  C1017   1.400   .     A
C1011  C1013   1.400   .     A
C1012  H1038   1.083   .     S
C1012  C419    1.392   1_556 S
C1013  H1040   1.084   .     S
C1014  H1039   1.083   .     S
C1015  H1032   1.109   .     S
C1015  H1033   1.113   .     S
C1015  H1031   1.113   .     S
C1015  O1056   1.411   .     S
C1016  H1034   1.109   .     S
C1016  H1037   1.113   .     S
C1016  H1035   1.113   .     S
C1016  O1048   1.411   .     S
C1017  H1041   1.084   .     S
C1017  C420    1.392   1_556 S
C1018  H1042   1.083   .     S
C1018  C1152   1.383   1_455 S
C1019  H1043   1.083   .     S
C1019  C1022   1.401   .     A
C1019  C1087   1.383   .     S
C1020  C1022   1.401   .     A
C1020  H1044   1.083   .     S
C1020  C1084   1.383   .     S
C1021  H1026   1.083   .     S
C1021  C1151   1.383   1_455 S
Cu1023 N1045   2.010   .     S
Cu1023 Cu1024  2.674   .     S
Cu1023 O1047   1.964   .     S
Cu1023 O1050   1.965   .     S
Cu1023 O1054   1.970   .     S
Cu1023 O1052   1.968   .     S
Cu1024 N1046   2.010   .     S
Cu1024 O1055   1.970   .     S
Cu1024 O1053   1.968   .     S
Cu1024 O1049   1.964   .     S
Cu1024 O1051   1.965   .     S
C1057  O1113   1.290   .     A
C1057  C1058   1.449   .     S
C1057  O1117   1.290   .     A
C1058  C1087   1.401   .     A
C1058  C1084   1.401   .     A
C1059  N1112   1.367   .     A
C1059  H1093   1.082   .     S
C1060  H1094   1.082   .     S
C1060  N1111   1.367   .     A
C1060  C665    1.416   1_565 S
C1061  H1095   1.082   .     S
C1061  N1112   1.367   .     A
C1062  N1111   1.367   .     A
C1062  H1096   1.082   .     S
C1062  C663    1.416   1_565 S
C1063  O1118   1.294   .     A
C1063  O1121   1.292   .     A
C1063  C1069   1.462   .     S
C1064  O1120   1.292   .     A
C1064  C1067   1.462   .     S
C1064  O1119   1.294   .     A
C1065  C1067   1.400   .     A
C1065  C1076   1.390   .     A
C1065  H1091   1.085   .     S
C1066  H1102   1.085   .     S
C1066  C1077   1.390   .     A
C1066  C1069   1.400   .     A
C1067  C1070   1.414   .     A
C1068  C1088   1.449   .     S
C1068  O1116   1.290   .     A
C1068  O1115   1.290   .     A
C1069  C1071   1.414   .     A
C1070  O1122   1.385   .     S
C1070  C1072   1.404   .     A
C1071  C1073   1.404   .     A
C1071  O1114   1.385   .     S
C1072  C1074   1.414   .     A
C1072  C1078   1.405   .     A
C1073  C1075   1.414   .     A
C1073  C1080   1.405   .     A
C1074  C1076   1.410   .     A
C1074  C481    1.405   1_556 S
C1075  C1077   1.410   .     A
C1076  C1083   1.400   .     A
C1077  C1079   1.400   .     A
C1078  H1104   1.083   .     S
C1078  C485    1.392   1_556 S
C1079  H1106   1.084   .     S
C1080  H1105   1.083   .     S
C1081  H1098   1.109   .     S
C1081  H1099   1.113   .     S
C1081  H1097   1.113   .     S
C1081  O1122   1.411   .     S
C1082  H1100   1.109   .     S
C1082  H1103   1.113   .     S
C1082  H1101   1.113   .     S
C1082  O1114   1.411   .     S
C1083  H1107   1.084   .     S
C1083  C486    1.392   1_556 S
C1084  H1108   1.083   .     S
C1085  H1109   1.083   .     S
C1085  C1088   1.401   .     A
C1085  C1153   1.383   .     S
C1086  C1088   1.401   .     A
C1086  H1110   1.083   .     S
C1086  C1150   1.383   .     S
C1087  H1092   1.083   .     S
Cu1089 N1111   2.010   .     S
Cu1089 Cu1090  2.674   .     S
Cu1089 O1113   1.964   .     S
Cu1089 O1116   1.965   .     S
Cu1089 O1120   1.970   .     S
Cu1089 O1118   1.968   .     S
Cu1090 N1112   2.010   .     S
Cu1090 O1121   1.970   .     S
Cu1090 O1119   1.968   .     S
Cu1090 O1115   1.964   .     S
Cu1090 O1117   1.965   .     S
C1123  O1179   1.290   .     A
C1123  C1124   1.449   .     S
C1123  O1183   1.290   .     A
C1124  C1153   1.401   .     A
C1124  C1150   1.401   .     A
C1125  N1178   1.367   .     A
C1125  H1159   1.082   .     S
C1126  H1160   1.082   .     S
C1126  N1177   1.367   .     A
C1126  C731    1.416   1_565 S
C1127  H1161   1.082   .     S
C1127  N1178   1.367   .     A
C1128  N1177   1.367   .     A
C1128  H1162   1.082   .     S
C1128  C729    1.416   1_565 S
C1129  O1184   1.294   .     A
C1129  O1187   1.292   .     A
C1129  C1135   1.462   .     S
C1130  O1186   1.292   .     A
C1130  C1133   1.462   .     S
C1130  O1185   1.294   .     A
C1131  C1133   1.400   .     A
C1131  C1142   1.390   .     A
C1131  H1157   1.085   .     S
C1132  H1168   1.085   .     S
C1132  C1143   1.390   .     A
C1132  C1135   1.400   .     A
C1133  C1136   1.414   .     A
C1134  C1154   1.449   .     S
C1134  O1182   1.290   .     A
C1134  O1181   1.290   .     A
C1135  C1137   1.414   .     A
C1136  O1188   1.385   .     S
C1136  C1138   1.404   .     A
C1137  C1139   1.404   .     A
C1137  O1180   1.385   .     S
C1138  C1140   1.414   .     A
C1138  C1144   1.405   .     A
C1139  C1141   1.414   .     A
C1139  C1146   1.405   .     A
C1140  C1142   1.410   .     A
C1140  C547    1.405   1_556 S
C1141  C1143   1.410   .     A
C1142  C1149   1.400   .     A
C1143  C1145   1.400   .     A
C1144  H1170   1.083   .     S
C1144  C551    1.392   1_556 S
C1145  H1172   1.084   .     S
C1146  H1171   1.083   .     S
C1147  H1164   1.109   .     S
C1147  H1165   1.113   .     S
C1147  H1163   1.113   .     S
C1147  O1188   1.411   .     S
C1148  H1166   1.109   .     S
C1148  H1169   1.113   .     S
C1148  H1167   1.113   .     S
C1148  O1180   1.411   .     S
C1149  H1173   1.084   .     S
C1149  C552    1.392   1_556 S
C1150  H1174   1.083   .     S
C1151  H1175   1.083   .     S
C1151  C1154   1.401   .     A
C1151  C1021   1.383   1_655 S
C1152  C1154   1.401   .     A
C1152  H1176   1.083   .     S
C1152  C1018   1.383   1_655 S
C1153  H1158   1.083   .     S
Cu1155 N1177   2.010   .     S
Cu1155 Cu1156  2.674   .     S
Cu1155 O1179   1.964   .     S
Cu1155 O1182   1.965   .     S
Cu1155 O1186   1.970   .     S
Cu1155 O1184   1.968   .     S
Cu1156 N1178   2.010   .     S
Cu1156 O1187   1.970   .     S
Cu1156 O1185   1.968   .     S
Cu1156 O1181   1.964   .     S
Cu1156 O1183   1.965   .     S
