data_str_m2_o1_o17_pcu_sym.102
_audit_creation_date              2020-01-03
_audit_creation_method            'Materials Studio'
_symmetry_space_group_name_H-M    'P1'
_symmetry_Int_Tables_number       1
_symmetry_cell_setting            triclinic
loop_
_symmetry_equiv_pos_as_xyz
  x,y,z
_cell_length_a                    32.3361
_cell_length_b                    28.8991
_cell_length_c                    30.0914
_cell_angle_alpha                 89.7655
_cell_angle_beta                  91.4583
_cell_angle_gamma                 89.7772
loop_
_atom_site_label
_atom_site_type_symbol
_atom_site_fract_x
_atom_site_fract_y
_atom_site_fract_z
_atom_site_U_iso_or_equiv
_atom_site_adp_type
_atom_site_occupancy
C1     C     0.08767   0.16662   0.25022   0.00000  Uiso   1.00
C2     C     0.24567   0.16672   0.24978   0.00000  Uiso   1.00
C3     C     0.10447   0.21293   0.02363   0.00000  Uiso   1.00
C4     C     0.22885   0.12038   0.47637   0.00000  Uiso   1.00
C5     C     0.02261   0.15614   0.28992   0.00000  Uiso   1.00
C6     C     0.31072   0.17719   0.21008   0.00000  Uiso   1.00
C7     C     0.31241   0.15663   0.28979   0.00000  Uiso   1.00
C8     C     0.02092   0.17670   0.21021   0.00000  Uiso   1.00
C9     C     0.29044   0.16730   0.24997   0.00000  Uiso   1.00
C10    C     0.04290   0.16603   0.25003   0.00000  Uiso   1.00
C11    C     0.14186   0.02510   0.22066   0.00000  Uiso   1.00
C12    C     0.19147   0.30823   0.27933   0.00000  Uiso   1.00
C13    C     0.19114   0.02436   0.27963   0.00000  Uiso   1.00
C14    C     0.14219   0.30897   0.22037   0.00000  Uiso   1.00
C15    C     0.16762   0.16657   0.16459   0.00000  Uiso   1.00
C16    C     0.16571   0.16677   0.33541   0.00000  Uiso   1.00
C17    C     0.19516   0.14243   0.40727   0.00000  Uiso   1.00
C18    C     0.13817   0.19090   0.09273   0.00000  Uiso   1.00
C19    C     0.16493   0.16739   0.38369   0.00000  Uiso   1.00
C20    C     0.16840   0.16595   0.11631   0.00000  Uiso   1.00
C21    C     0.13544   0.19406   0.40601   0.00000  Uiso   1.00
C22    C     0.19789   0.13927   0.09399   0.00000  Uiso   1.00
C23    C     0.13415   0.19166   0.45304   0.00000  Uiso   1.00
C24    C     0.19917   0.14166   0.04696   0.00000  Uiso   1.00
C25    C     0.16608   0.16716   0.47660   0.00000  Uiso   1.00
C26    C     0.16725   0.16616   0.02339   0.00000  Uiso   1.00
C27    C     0.19671   0.14319   0.45339   0.00000  Uiso   1.00
C28    C     0.13661   0.19013   0.04661   0.00000  Uiso   1.00
C29    C     0.10184   0.21231   0.47714   0.00000  Uiso   1.00
C30    C     0.23148   0.12100   0.02286   0.00000  Uiso   1.00
Cu31   Cu    0.16667   0.21355   0.25000   0.00000  Uiso   1.00
Cu32   Cu    0.16667   0.11978   0.25000   0.00000  Uiso   1.00
H33    H     0.21848   0.12359   0.38952   0.00000  Uiso   1.00
H34    H     0.11485   0.20974   0.11048   0.00000  Uiso   1.00
H35    H     0.08098   0.23111   0.04189   0.00000  Uiso   1.00
H36    H     0.25234   0.10220   0.45811   0.00000  Uiso   1.00
N37    N     0.16667   0.28402   0.25000   0.00000  Uiso   1.00
N38    N     0.16667   0.04931   0.25000   0.00000  Uiso   1.00
O39    O     0.10655   0.20625   0.25000   0.00000  Uiso   1.00
O40    O     0.22679   0.12709   0.25000   0.00000  Uiso   1.00
O41    O     0.22679   0.20625   0.25000   0.00000  Uiso   1.00
O42    O     0.10655   0.12709   0.24999   0.00000  Uiso   1.00
O43    O     0.16666   0.20627   0.18513   0.00000  Uiso   1.00
O44    O     0.16668   0.12707   0.31487   0.00000  Uiso   1.00
O45    O     0.16668   0.20627   0.31487   0.00000  Uiso   1.00
O46    O     0.16666   0.12707   0.18513   0.00000  Uiso   1.00
O47    O     0.10613   0.21901   0.38140   0.00000  Uiso   1.00
C48    C     0.11653   0.26652   0.38138   0.00000  Uiso   1.00
H49    H     0.08749   0.28705   0.37908   0.00000  Uiso   1.00
H50    H     0.13440   0.27503   0.35157   0.00000  Uiso   1.00
H51    H     0.13390   0.27815   0.41180   0.00000  Uiso   1.00
O52    O     0.22719   0.11432   0.11860   0.00000  Uiso   1.00
C53    C     0.21678   0.06680   0.11864   0.00000  Uiso   1.00
H54    H     0.19929   0.05520   0.08829   0.00000  Uiso   1.00
H55    H     0.19903   0.05829   0.14853   0.00000  Uiso   1.00
H56    H     0.24582   0.04627   0.12079   0.00000  Uiso   1.00
O57    O     0.06866   0.23372   0.45535   0.00000  Uiso   1.00
C58    C     0.03193   0.20947   0.46422   0.00000  Uiso   1.00
H59    H     0.03559   0.17143   0.45962   0.00000  Uiso   1.00
H60    H     0.00736   0.22143   0.44042   0.00000  Uiso   1.00
H61    H     0.02119   0.21701   0.49822   0.00000  Uiso   1.00
O62    O     0.26465   0.09958   0.04465   0.00000  Uiso   1.00
C63    C     0.30139   0.12383   0.03579   0.00000  Uiso   1.00
H64    H     0.32596   0.11186   0.05958   0.00000  Uiso   1.00
H65    H     0.29773   0.16186   0.04040   0.00000  Uiso   1.00
H66    H     0.31212   0.11630   0.00178   0.00000  Uiso   1.00
C67    C     0.04755   0.14752   0.33156   0.00000  Uiso   1.00
H68    H     0.07715   0.12989   0.33037   0.00000  Uiso   1.00
O69    O     0.03613   0.16164   0.36739   0.00000  Uiso   1.00
C70    C     0.28578   0.18580   0.16844   0.00000  Uiso   1.00
H71    H     0.25618   0.20344   0.16963   0.00000  Uiso   1.00
O72    O     0.29720   0.17168   0.13261   0.00000  Uiso   1.00
C73    C     0.28904   0.14589   0.33057   0.00000  Uiso   1.00
H74    H     0.26121   0.16529   0.33765   0.00000  Uiso   1.00
O75    O     0.29950   0.11412   0.35532   0.00000  Uiso   1.00
C76    C     0.04429   0.18744   0.16943   0.00000  Uiso   1.00
H77    H     0.07212   0.16804   0.16235   0.00000  Uiso   1.00
O78    O     0.03383   0.21921   0.14468   0.00000  Uiso   1.00
C79    C     0.11223   0.05010   0.19100   0.00000  Uiso   1.00
H80    H     0.08367   0.06349   0.20400   0.00000  Uiso   1.00
O81    O     0.11846   0.05367   0.15131   0.00000  Uiso   1.00
C82    C     0.22112   0.28323   0.30898   0.00000  Uiso   1.00
H83    H     0.24969   0.26986   0.29597   0.00000  Uiso   1.00
O84    O     0.21490   0.27964   0.34867   0.00000  Uiso   1.00
C85    C     0.21794   0.04847   0.31223   0.00000  Uiso   1.00
H86    H     0.24445   0.06767   0.30150   0.00000  Uiso   1.00
O87    O     0.21153   0.04492   0.35188   0.00000  Uiso   1.00
C88    C     0.11539   0.28486   0.18778   0.00000  Uiso   1.00
H89    H     0.08887   0.26568   0.19852   0.00000  Uiso   1.00
O90    O     0.12180   0.28839   0.14813   0.00000  Uiso   1.00
C91    C     0.42100   0.16662   0.25022   0.00000  Uiso   1.00
C92    C     0.57900   0.16672   0.24978   0.00000  Uiso   1.00
C93    C     0.43781   0.21293   0.02363   0.00000  Uiso   1.00
C94    C     0.56218   0.12038   0.47637   0.00000  Uiso   1.00
C95    C     0.35594   0.15614   0.28992   0.00000  Uiso   1.00
C96    C     0.64406   0.17719   0.21008   0.00000  Uiso   1.00
C97    C     0.64575   0.15663   0.28979   0.00000  Uiso   1.00
C98    C     0.35425   0.17670   0.21021   0.00000  Uiso   1.00
C99    C     0.62377   0.16730   0.24997   0.00000  Uiso   1.00
C100   C     0.37623   0.16603   0.25003   0.00000  Uiso   1.00
C101   C     0.47520   0.02510   0.22066   0.00000  Uiso   1.00
C102   C     0.52481   0.30823   0.27933   0.00000  Uiso   1.00
C103   C     0.52448   0.02436   0.27963   0.00000  Uiso   1.00
C104   C     0.47552   0.30897   0.22037   0.00000  Uiso   1.00
C105   C     0.50095   0.16657   0.16459   0.00000  Uiso   1.00
C106   C     0.49905   0.16677   0.33541   0.00000  Uiso   1.00
C107   C     0.52849   0.14243   0.40727   0.00000  Uiso   1.00
C108   C     0.47150   0.19090   0.09273   0.00000  Uiso   1.00
C109   C     0.49827   0.16739   0.38369   0.00000  Uiso   1.00
C110   C     0.50173   0.16595   0.11631   0.00000  Uiso   1.00
C111   C     0.46877   0.19406   0.40601   0.00000  Uiso   1.00
C112   C     0.53122   0.13927   0.09399   0.00000  Uiso   1.00
C113   C     0.46748   0.19166   0.45304   0.00000  Uiso   1.00
C114   C     0.53251   0.14166   0.04696   0.00000  Uiso   1.00
C115   C     0.49941   0.16716   0.47660   0.00000  Uiso   1.00
C116   C     0.50058   0.16616   0.02339   0.00000  Uiso   1.00
C117   C     0.53004   0.14319   0.45339   0.00000  Uiso   1.00
C118   C     0.46995   0.19013   0.04661   0.00000  Uiso   1.00
C119   C     0.43517   0.21231   0.47714   0.00000  Uiso   1.00
C120   C     0.56481   0.12100   0.02286   0.00000  Uiso   1.00
Cu121  Cu    0.50000   0.21355   0.25000   0.00000  Uiso   1.00
Cu122  Cu    0.50000   0.11978   0.25000   0.00000  Uiso   1.00
H123   H     0.55181   0.12359   0.38952   0.00000  Uiso   1.00
H124   H     0.44818   0.20974   0.11048   0.00000  Uiso   1.00
H125   H     0.41432   0.23111   0.04189   0.00000  Uiso   1.00
H126   H     0.58567   0.10220   0.45811   0.00000  Uiso   1.00
N127   N     0.50000   0.28402   0.25000   0.00000  Uiso   1.00
N128   N     0.50000   0.04931   0.25000   0.00000  Uiso   1.00
O129   O     0.43988   0.20625   0.25000   0.00000  Uiso   1.00
O130   O     0.56012   0.12709   0.25000   0.00000  Uiso   1.00
O131   O     0.56012   0.20625   0.25000   0.00000  Uiso   1.00
O132   O     0.43988   0.12709   0.24999   0.00000  Uiso   1.00
O133   O     0.49999   0.20627   0.18513   0.00000  Uiso   1.00
O134   O     0.50001   0.12707   0.31487   0.00000  Uiso   1.00
O135   O     0.50001   0.20627   0.31487   0.00000  Uiso   1.00
O136   O     0.49999   0.12707   0.18513   0.00000  Uiso   1.00
O137   O     0.43946   0.21901   0.38140   0.00000  Uiso   1.00
C138   C     0.44986   0.26652   0.38138   0.00000  Uiso   1.00
H139   H     0.42082   0.28705   0.37908   0.00000  Uiso   1.00
H140   H     0.46773   0.27503   0.35157   0.00000  Uiso   1.00
H141   H     0.46723   0.27815   0.41180   0.00000  Uiso   1.00
O142   O     0.56053   0.11432   0.11860   0.00000  Uiso   1.00
C143   C     0.55011   0.06680   0.11864   0.00000  Uiso   1.00
H144   H     0.53262   0.05520   0.08829   0.00000  Uiso   1.00
H145   H     0.53237   0.05829   0.14853   0.00000  Uiso   1.00
H146   H     0.57915   0.04627   0.12079   0.00000  Uiso   1.00
O147   O     0.40199   0.23372   0.45535   0.00000  Uiso   1.00
C148   C     0.36526   0.20947   0.46422   0.00000  Uiso   1.00
H149   H     0.36892   0.17143   0.45962   0.00000  Uiso   1.00
H150   H     0.34069   0.22143   0.44042   0.00000  Uiso   1.00
H151   H     0.35453   0.21701   0.49822   0.00000  Uiso   1.00
O152   O     0.59799   0.09958   0.04465   0.00000  Uiso   1.00
C153   C     0.63472   0.12383   0.03579   0.00000  Uiso   1.00
H154   H     0.65929   0.11186   0.05958   0.00000  Uiso   1.00
H155   H     0.63107   0.16186   0.04040   0.00000  Uiso   1.00
H156   H     0.64546   0.11630   0.00178   0.00000  Uiso   1.00
C157   C     0.38089   0.14752   0.33156   0.00000  Uiso   1.00
H158   H     0.41048   0.12989   0.33037   0.00000  Uiso   1.00
O159   O     0.36947   0.16164   0.36739   0.00000  Uiso   1.00
C160   C     0.61911   0.18580   0.16844   0.00000  Uiso   1.00
H161   H     0.58952   0.20344   0.16963   0.00000  Uiso   1.00
O162   O     0.63053   0.17168   0.13261   0.00000  Uiso   1.00
C163   C     0.62237   0.14589   0.33057   0.00000  Uiso   1.00
H164   H     0.59455   0.16529   0.33765   0.00000  Uiso   1.00
O165   O     0.63283   0.11412   0.35532   0.00000  Uiso   1.00
C166   C     0.37763   0.18744   0.16943   0.00000  Uiso   1.00
H167   H     0.40545   0.16804   0.16235   0.00000  Uiso   1.00
O168   O     0.36717   0.21921   0.14468   0.00000  Uiso   1.00
C169   C     0.44556   0.05010   0.19100   0.00000  Uiso   1.00
H170   H     0.41700   0.06349   0.20400   0.00000  Uiso   1.00
O171   O     0.45180   0.05367   0.15131   0.00000  Uiso   1.00
C172   C     0.55445   0.28323   0.30898   0.00000  Uiso   1.00
H173   H     0.58302   0.26986   0.29597   0.00000  Uiso   1.00
O174   O     0.54824   0.27964   0.34867   0.00000  Uiso   1.00
C175   C     0.55127   0.04847   0.31223   0.00000  Uiso   1.00
H176   H     0.57778   0.06767   0.30150   0.00000  Uiso   1.00
O177   O     0.54486   0.04492   0.35188   0.00000  Uiso   1.00
C178   C     0.44872   0.28486   0.18778   0.00000  Uiso   1.00
H179   H     0.42220   0.26568   0.19852   0.00000  Uiso   1.00
O180   O     0.45513   0.28839   0.14813   0.00000  Uiso   1.00
C181   C     0.75433   0.16662   0.25022   0.00000  Uiso   1.00
C182   C     0.91233   0.16672   0.24978   0.00000  Uiso   1.00
C183   C     0.77114   0.21293   0.02363   0.00000  Uiso   1.00
C184   C     0.89551   0.12038   0.47637   0.00000  Uiso   1.00
C185   C     0.68927   0.15614   0.28992   0.00000  Uiso   1.00
C186   C     0.97739   0.17719   0.21008   0.00000  Uiso   1.00
C187   C     0.97908   0.15663   0.28979   0.00000  Uiso   1.00
C188   C     0.68759   0.17670   0.21021   0.00000  Uiso   1.00
C189   C     0.95710   0.16730   0.24997   0.00000  Uiso   1.00
C190   C     0.70956   0.16603   0.25003   0.00000  Uiso   1.00
C191   C     0.80853   0.02510   0.22066   0.00000  Uiso   1.00
C192   C     0.85814   0.30823   0.27933   0.00000  Uiso   1.00
C193   C     0.85781   0.02436   0.27963   0.00000  Uiso   1.00
C194   C     0.80886   0.30897   0.22037   0.00000  Uiso   1.00
C195   C     0.83428   0.16657   0.16459   0.00000  Uiso   1.00
C196   C     0.83238   0.16677   0.33541   0.00000  Uiso   1.00
C197   C     0.86182   0.14243   0.40727   0.00000  Uiso   1.00
C198   C     0.80484   0.19090   0.09273   0.00000  Uiso   1.00
C199   C     0.83160   0.16739   0.38369   0.00000  Uiso   1.00
C200   C     0.83506   0.16595   0.11631   0.00000  Uiso   1.00
C201   C     0.80210   0.19406   0.40601   0.00000  Uiso   1.00
C202   C     0.86456   0.13927   0.09399   0.00000  Uiso   1.00
C203   C     0.80082   0.19166   0.45304   0.00000  Uiso   1.00
C204   C     0.86584   0.14166   0.04696   0.00000  Uiso   1.00
C205   C     0.83274   0.16716   0.47660   0.00000  Uiso   1.00
C206   C     0.83391   0.16616   0.02339   0.00000  Uiso   1.00
C207   C     0.86338   0.14319   0.45339   0.00000  Uiso   1.00
C208   C     0.80328   0.19013   0.04661   0.00000  Uiso   1.00
C209   C     0.76850   0.21231   0.47714   0.00000  Uiso   1.00
C210   C     0.89815   0.12100   0.02286   0.00000  Uiso   1.00
Cu211  Cu    0.83333   0.21355   0.25000   0.00000  Uiso   1.00
Cu212  Cu    0.83333   0.11978   0.25000   0.00000  Uiso   1.00
H213   H     0.88514   0.12359   0.38952   0.00000  Uiso   1.00
H214   H     0.78152   0.20974   0.11048   0.00000  Uiso   1.00
H215   H     0.74765   0.23111   0.04189   0.00000  Uiso   1.00
H216   H     0.91900   0.10220   0.45811   0.00000  Uiso   1.00
N217   N     0.83333   0.28402   0.25000   0.00000  Uiso   1.00
N218   N     0.83333   0.04931   0.25000   0.00000  Uiso   1.00
O219   O     0.77321   0.20625   0.25000   0.00000  Uiso   1.00
O220   O     0.89345   0.12709   0.25000   0.00000  Uiso   1.00
O221   O     0.89345   0.20625   0.25000   0.00000  Uiso   1.00
O222   O     0.77321   0.12709   0.24999   0.00000  Uiso   1.00
O223   O     0.83332   0.20627   0.18513   0.00000  Uiso   1.00
O224   O     0.83334   0.12707   0.31487   0.00000  Uiso   1.00
O225   O     0.83334   0.20627   0.31487   0.00000  Uiso   1.00
O226   O     0.83332   0.12707   0.18513   0.00000  Uiso   1.00
O227   O     0.77280   0.21901   0.38140   0.00000  Uiso   1.00
C228   C     0.78320   0.26652   0.38138   0.00000  Uiso   1.00
H229   H     0.75415   0.28705   0.37908   0.00000  Uiso   1.00
H230   H     0.80106   0.27503   0.35157   0.00000  Uiso   1.00
H231   H     0.80056   0.27815   0.41180   0.00000  Uiso   1.00
O232   O     0.89386   0.11432   0.11860   0.00000  Uiso   1.00
C233   C     0.88345   0.06680   0.11864   0.00000  Uiso   1.00
H234   H     0.86595   0.05520   0.08829   0.00000  Uiso   1.00
H235   H     0.86570   0.05829   0.14853   0.00000  Uiso   1.00
H236   H     0.91249   0.04627   0.12079   0.00000  Uiso   1.00
O237   O     0.73533   0.23372   0.45535   0.00000  Uiso   1.00
C238   C     0.69860   0.20947   0.46422   0.00000  Uiso   1.00
H239   H     0.70225   0.17143   0.45962   0.00000  Uiso   1.00
H240   H     0.67402   0.22143   0.44042   0.00000  Uiso   1.00
H241   H     0.68786   0.21701   0.49822   0.00000  Uiso   1.00
O242   O     0.93132   0.09958   0.04465   0.00000  Uiso   1.00
C243   C     0.96805   0.12383   0.03579   0.00000  Uiso   1.00
H244   H     0.99262   0.11186   0.05958   0.00000  Uiso   1.00
H245   H     0.96440   0.16186   0.04040   0.00000  Uiso   1.00
H246   H     0.97879   0.11630   0.00178   0.00000  Uiso   1.00
C247   C     0.71422   0.14752   0.33156   0.00000  Uiso   1.00
H248   H     0.74382   0.12989   0.33037   0.00000  Uiso   1.00
O249   O     0.70280   0.16164   0.36739   0.00000  Uiso   1.00
C250   C     0.95245   0.18580   0.16844   0.00000  Uiso   1.00
H251   H     0.92285   0.20344   0.16963   0.00000  Uiso   1.00
O252   O     0.96386   0.17168   0.13261   0.00000  Uiso   1.00
C253   C     0.95571   0.14589   0.33057   0.00000  Uiso   1.00
H254   H     0.92788   0.16529   0.33765   0.00000  Uiso   1.00
O255   O     0.96616   0.11412   0.35532   0.00000  Uiso   1.00
C256   C     0.71096   0.18744   0.16943   0.00000  Uiso   1.00
H257   H     0.73879   0.16804   0.16235   0.00000  Uiso   1.00
O258   O     0.70050   0.21921   0.14468   0.00000  Uiso   1.00
C259   C     0.77890   0.05010   0.19100   0.00000  Uiso   1.00
H260   H     0.75033   0.06349   0.20400   0.00000  Uiso   1.00
O261   O     0.78513   0.05367   0.15131   0.00000  Uiso   1.00
C262   C     0.88779   0.28323   0.30898   0.00000  Uiso   1.00
H263   H     0.91635   0.26986   0.29597   0.00000  Uiso   1.00
O264   O     0.88157   0.27964   0.34867   0.00000  Uiso   1.00
C265   C     0.88461   0.04847   0.31223   0.00000  Uiso   1.00
H266   H     0.91112   0.06767   0.30150   0.00000  Uiso   1.00
O267   O     0.87819   0.04492   0.35188   0.00000  Uiso   1.00
C268   C     0.78205   0.28486   0.18778   0.00000  Uiso   1.00
H269   H     0.75553   0.26568   0.19852   0.00000  Uiso   1.00
O270   O     0.78847   0.28839   0.14813   0.00000  Uiso   1.00
C271   C     0.08767   0.49995   0.25022   0.00000  Uiso   1.00
C272   C     0.24567   0.50005   0.24978   0.00000  Uiso   1.00
C273   C     0.10447   0.54627   0.02363   0.00000  Uiso   1.00
C274   C     0.22885   0.45371   0.47637   0.00000  Uiso   1.00
C275   C     0.02261   0.48947   0.28992   0.00000  Uiso   1.00
C276   C     0.31072   0.51053   0.21008   0.00000  Uiso   1.00
C277   C     0.31241   0.48996   0.28979   0.00000  Uiso   1.00
C278   C     0.02092   0.51004   0.21021   0.00000  Uiso   1.00
C279   C     0.29044   0.50063   0.24997   0.00000  Uiso   1.00
C280   C     0.04290   0.49937   0.25003   0.00000  Uiso   1.00
C281   C     0.14186   0.35844   0.22066   0.00000  Uiso   1.00
C282   C     0.19147   0.64156   0.27933   0.00000  Uiso   1.00
C283   C     0.19114   0.35770   0.27963   0.00000  Uiso   1.00
C284   C     0.14219   0.64230   0.22037   0.00000  Uiso   1.00
C285   C     0.16762   0.49990   0.16459   0.00000  Uiso   1.00
C286   C     0.16571   0.50010   0.33541   0.00000  Uiso   1.00
C287   C     0.19516   0.47576   0.40727   0.00000  Uiso   1.00
C288   C     0.13817   0.52423   0.09273   0.00000  Uiso   1.00
C289   C     0.16493   0.50072   0.38369   0.00000  Uiso   1.00
C290   C     0.16840   0.49928   0.11631   0.00000  Uiso   1.00
C291   C     0.13544   0.52739   0.40601   0.00000  Uiso   1.00
C292   C     0.19789   0.47260   0.09399   0.00000  Uiso   1.00
C293   C     0.13415   0.52500   0.45304   0.00000  Uiso   1.00
C294   C     0.19917   0.47499   0.04696   0.00000  Uiso   1.00
C295   C     0.16608   0.50050   0.47660   0.00000  Uiso   1.00
C296   C     0.16725   0.49949   0.02339   0.00000  Uiso   1.00
C297   C     0.19671   0.47652   0.45339   0.00000  Uiso   1.00
C298   C     0.13661   0.52347   0.04661   0.00000  Uiso   1.00
C299   C     0.10184   0.54565   0.47714   0.00000  Uiso   1.00
C300   C     0.23148   0.45433   0.02286   0.00000  Uiso   1.00
Cu301  Cu    0.16667   0.54689   0.25000   0.00000  Uiso   1.00
Cu302  Cu    0.16667   0.45311   0.25000   0.00000  Uiso   1.00
H303   H     0.21848   0.45692   0.38952   0.00000  Uiso   1.00
H304   H     0.11485   0.54307   0.11048   0.00000  Uiso   1.00
H305   H     0.08098   0.56445   0.04189   0.00000  Uiso   1.00
H306   H     0.25234   0.43553   0.45811   0.00000  Uiso   1.00
N307   N     0.16667   0.61736   0.25000   0.00000  Uiso   1.00
N308   N     0.16667   0.38264   0.25000   0.00000  Uiso   1.00
O309   O     0.10655   0.53958   0.25000   0.00000  Uiso   1.00
O310   O     0.22679   0.46042   0.25000   0.00000  Uiso   1.00
O311   O     0.22679   0.53958   0.25000   0.00000  Uiso   1.00
O312   O     0.10655   0.46042   0.24999   0.00000  Uiso   1.00
O313   O     0.16666   0.53960   0.18513   0.00000  Uiso   1.00
O314   O     0.16668   0.46040   0.31487   0.00000  Uiso   1.00
O315   O     0.16668   0.53960   0.31487   0.00000  Uiso   1.00
O316   O     0.16666   0.46040   0.18513   0.00000  Uiso   1.00
O317   O     0.10613   0.55234   0.38140   0.00000  Uiso   1.00
C318   C     0.11653   0.59986   0.38138   0.00000  Uiso   1.00
H319   H     0.08749   0.62038   0.37908   0.00000  Uiso   1.00
H320   H     0.13440   0.60836   0.35157   0.00000  Uiso   1.00
H321   H     0.13390   0.61148   0.41180   0.00000  Uiso   1.00
O322   O     0.22719   0.44765   0.11860   0.00000  Uiso   1.00
C323   C     0.21678   0.40014   0.11864   0.00000  Uiso   1.00
H324   H     0.19929   0.38854   0.08829   0.00000  Uiso   1.00
H325   H     0.19903   0.39162   0.14853   0.00000  Uiso   1.00
H326   H     0.24582   0.37960   0.12079   0.00000  Uiso   1.00
O327   O     0.06866   0.56705   0.45535   0.00000  Uiso   1.00
C328   C     0.03193   0.54280   0.46422   0.00000  Uiso   1.00
H329   H     0.03559   0.50477   0.45962   0.00000  Uiso   1.00
H330   H     0.00736   0.55477   0.44042   0.00000  Uiso   1.00
H331   H     0.02119   0.55034   0.49822   0.00000  Uiso   1.00
O332   O     0.26465   0.43292   0.04465   0.00000  Uiso   1.00
C333   C     0.30139   0.45717   0.03579   0.00000  Uiso   1.00
H334   H     0.32596   0.44519   0.05958   0.00000  Uiso   1.00
H335   H     0.29773   0.49520   0.04040   0.00000  Uiso   1.00
H336   H     0.31212   0.44963   0.00178   0.00000  Uiso   1.00
C337   C     0.04755   0.48086   0.33156   0.00000  Uiso   1.00
H338   H     0.07715   0.46323   0.33037   0.00000  Uiso   1.00
O339   O     0.03613   0.49498   0.36739   0.00000  Uiso   1.00
C340   C     0.28578   0.51914   0.16844   0.00000  Uiso   1.00
H341   H     0.25618   0.53677   0.16963   0.00000  Uiso   1.00
O342   O     0.29720   0.50501   0.13261   0.00000  Uiso   1.00
C343   C     0.28904   0.47922   0.33057   0.00000  Uiso   1.00
H344   H     0.26121   0.49863   0.33765   0.00000  Uiso   1.00
O345   O     0.29950   0.44745   0.35532   0.00000  Uiso   1.00
C346   C     0.04429   0.52078   0.16943   0.00000  Uiso   1.00
H347   H     0.07212   0.50138   0.16235   0.00000  Uiso   1.00
O348   O     0.03383   0.55255   0.14468   0.00000  Uiso   1.00
C349   C     0.11223   0.38344   0.19100   0.00000  Uiso   1.00
H350   H     0.08367   0.39682   0.20400   0.00000  Uiso   1.00
O351   O     0.11846   0.38701   0.15131   0.00000  Uiso   1.00
C352   C     0.22112   0.61657   0.30898   0.00000  Uiso   1.00
H353   H     0.24969   0.60320   0.29597   0.00000  Uiso   1.00
O354   O     0.21490   0.61298   0.34867   0.00000  Uiso   1.00
C355   C     0.21794   0.38181   0.31223   0.00000  Uiso   1.00
H356   H     0.24445   0.40100   0.30150   0.00000  Uiso   1.00
O357   O     0.21153   0.37826   0.35188   0.00000  Uiso   1.00
C358   C     0.11539   0.61819   0.18778   0.00000  Uiso   1.00
H359   H     0.08887   0.59901   0.19852   0.00000  Uiso   1.00
O360   O     0.12180   0.62173   0.14813   0.00000  Uiso   1.00
C361   C     0.42100   0.49995   0.25022   0.00000  Uiso   1.00
C362   C     0.57900   0.50005   0.24978   0.00000  Uiso   1.00
C363   C     0.43781   0.54627   0.02363   0.00000  Uiso   1.00
C364   C     0.56218   0.45371   0.47637   0.00000  Uiso   1.00
C365   C     0.35594   0.48947   0.28992   0.00000  Uiso   1.00
C366   C     0.64406   0.51053   0.21008   0.00000  Uiso   1.00
C367   C     0.64575   0.48996   0.28979   0.00000  Uiso   1.00
C368   C     0.35425   0.51004   0.21021   0.00000  Uiso   1.00
C369   C     0.62377   0.50063   0.24997   0.00000  Uiso   1.00
C370   C     0.37623   0.49937   0.25003   0.00000  Uiso   1.00
C371   C     0.47520   0.35844   0.22066   0.00000  Uiso   1.00
C372   C     0.52481   0.64156   0.27933   0.00000  Uiso   1.00
C373   C     0.52448   0.35770   0.27963   0.00000  Uiso   1.00
C374   C     0.47552   0.64230   0.22037   0.00000  Uiso   1.00
C375   C     0.50095   0.49990   0.16459   0.00000  Uiso   1.00
C376   C     0.49905   0.50010   0.33541   0.00000  Uiso   1.00
C377   C     0.52849   0.47576   0.40727   0.00000  Uiso   1.00
C378   C     0.47150   0.52423   0.09273   0.00000  Uiso   1.00
C379   C     0.49827   0.50072   0.38369   0.00000  Uiso   1.00
C380   C     0.50173   0.49928   0.11631   0.00000  Uiso   1.00
C381   C     0.46877   0.52739   0.40601   0.00000  Uiso   1.00
C382   C     0.53122   0.47260   0.09399   0.00000  Uiso   1.00
C383   C     0.46748   0.52500   0.45304   0.00000  Uiso   1.00
C384   C     0.53251   0.47499   0.04696   0.00000  Uiso   1.00
C385   C     0.49941   0.50050   0.47660   0.00000  Uiso   1.00
C386   C     0.50058   0.49949   0.02339   0.00000  Uiso   1.00
C387   C     0.53004   0.47652   0.45339   0.00000  Uiso   1.00
C388   C     0.46995   0.52347   0.04661   0.00000  Uiso   1.00
C389   C     0.43517   0.54565   0.47714   0.00000  Uiso   1.00
C390   C     0.56481   0.45433   0.02286   0.00000  Uiso   1.00
Cu391  Cu    0.50000   0.54689   0.25000   0.00000  Uiso   1.00
Cu392  Cu    0.50000   0.45311   0.25000   0.00000  Uiso   1.00
H393   H     0.55181   0.45692   0.38952   0.00000  Uiso   1.00
H394   H     0.44818   0.54307   0.11048   0.00000  Uiso   1.00
H395   H     0.41432   0.56445   0.04189   0.00000  Uiso   1.00
H396   H     0.58567   0.43553   0.45811   0.00000  Uiso   1.00
N397   N     0.50000   0.61736   0.25000   0.00000  Uiso   1.00
N398   N     0.50000   0.38264   0.25000   0.00000  Uiso   1.00
O399   O     0.43988   0.53958   0.25000   0.00000  Uiso   1.00
O400   O     0.56012   0.46042   0.25000   0.00000  Uiso   1.00
O401   O     0.56012   0.53958   0.25000   0.00000  Uiso   1.00
O402   O     0.43988   0.46042   0.24999   0.00000  Uiso   1.00
O403   O     0.49999   0.53960   0.18513   0.00000  Uiso   1.00
O404   O     0.50001   0.46040   0.31487   0.00000  Uiso   1.00
O405   O     0.50001   0.53960   0.31487   0.00000  Uiso   1.00
O406   O     0.49999   0.46040   0.18513   0.00000  Uiso   1.00
O407   O     0.43946   0.55234   0.38140   0.00000  Uiso   1.00
C408   C     0.44986   0.59986   0.38138   0.00000  Uiso   1.00
H409   H     0.42082   0.62038   0.37908   0.00000  Uiso   1.00
H410   H     0.46773   0.60836   0.35157   0.00000  Uiso   1.00
H411   H     0.46723   0.61148   0.41180   0.00000  Uiso   1.00
O412   O     0.56053   0.44765   0.11860   0.00000  Uiso   1.00
C413   C     0.55011   0.40014   0.11864   0.00000  Uiso   1.00
H414   H     0.53262   0.38854   0.08829   0.00000  Uiso   1.00
H415   H     0.53237   0.39162   0.14853   0.00000  Uiso   1.00
H416   H     0.57915   0.37960   0.12079   0.00000  Uiso   1.00
O417   O     0.40199   0.56705   0.45535   0.00000  Uiso   1.00
C418   C     0.36526   0.54280   0.46422   0.00000  Uiso   1.00
H419   H     0.36892   0.50477   0.45962   0.00000  Uiso   1.00
H420   H     0.34069   0.55477   0.44042   0.00000  Uiso   1.00
H421   H     0.35453   0.55034   0.49822   0.00000  Uiso   1.00
O422   O     0.59799   0.43292   0.04465   0.00000  Uiso   1.00
C423   C     0.63472   0.45717   0.03579   0.00000  Uiso   1.00
H424   H     0.65929   0.44519   0.05958   0.00000  Uiso   1.00
H425   H     0.63107   0.49520   0.04040   0.00000  Uiso   1.00
H426   H     0.64546   0.44963   0.00178   0.00000  Uiso   1.00
C427   C     0.38089   0.48086   0.33156   0.00000  Uiso   1.00
H428   H     0.41048   0.46323   0.33037   0.00000  Uiso   1.00
O429   O     0.36947   0.49498   0.36739   0.00000  Uiso   1.00
C430   C     0.61911   0.51914   0.16844   0.00000  Uiso   1.00
H431   H     0.58952   0.53677   0.16963   0.00000  Uiso   1.00
O432   O     0.63053   0.50501   0.13261   0.00000  Uiso   1.00
C433   C     0.62237   0.47922   0.33057   0.00000  Uiso   1.00
H434   H     0.59455   0.49863   0.33765   0.00000  Uiso   1.00
O435   O     0.63283   0.44745   0.35532   0.00000  Uiso   1.00
C436   C     0.37763   0.52078   0.16943   0.00000  Uiso   1.00
H437   H     0.40545   0.50138   0.16235   0.00000  Uiso   1.00
O438   O     0.36717   0.55255   0.14468   0.00000  Uiso   1.00
C439   C     0.44556   0.38344   0.19100   0.00000  Uiso   1.00
H440   H     0.41700   0.39682   0.20400   0.00000  Uiso   1.00
O441   O     0.45180   0.38701   0.15131   0.00000  Uiso   1.00
C442   C     0.55445   0.61657   0.30898   0.00000  Uiso   1.00
H443   H     0.58302   0.60320   0.29597   0.00000  Uiso   1.00
O444   O     0.54824   0.61298   0.34867   0.00000  Uiso   1.00
C445   C     0.55127   0.38181   0.31223   0.00000  Uiso   1.00
H446   H     0.57778   0.40100   0.30150   0.00000  Uiso   1.00
O447   O     0.54486   0.37826   0.35188   0.00000  Uiso   1.00
C448   C     0.44872   0.61819   0.18778   0.00000  Uiso   1.00
H449   H     0.42220   0.59901   0.19852   0.00000  Uiso   1.00
O450   O     0.45513   0.62173   0.14813   0.00000  Uiso   1.00
C451   C     0.75433   0.49995   0.25022   0.00000  Uiso   1.00
C452   C     0.91233   0.50005   0.24978   0.00000  Uiso   1.00
C453   C     0.77114   0.54627   0.02363   0.00000  Uiso   1.00
C454   C     0.89551   0.45371   0.47637   0.00000  Uiso   1.00
C455   C     0.68927   0.48947   0.28992   0.00000  Uiso   1.00
C456   C     0.97739   0.51053   0.21008   0.00000  Uiso   1.00
C457   C     0.97908   0.48996   0.28979   0.00000  Uiso   1.00
C458   C     0.68759   0.51004   0.21021   0.00000  Uiso   1.00
C459   C     0.95710   0.50063   0.24997   0.00000  Uiso   1.00
C460   C     0.70956   0.49937   0.25003   0.00000  Uiso   1.00
C461   C     0.80853   0.35844   0.22066   0.00000  Uiso   1.00
C462   C     0.85814   0.64156   0.27933   0.00000  Uiso   1.00
C463   C     0.85781   0.35770   0.27963   0.00000  Uiso   1.00
C464   C     0.80886   0.64230   0.22037   0.00000  Uiso   1.00
C465   C     0.83428   0.49990   0.16459   0.00000  Uiso   1.00
C466   C     0.83238   0.50010   0.33541   0.00000  Uiso   1.00
C467   C     0.86182   0.47576   0.40727   0.00000  Uiso   1.00
C468   C     0.80484   0.52423   0.09273   0.00000  Uiso   1.00
C469   C     0.83160   0.50072   0.38369   0.00000  Uiso   1.00
C470   C     0.83506   0.49928   0.11631   0.00000  Uiso   1.00
C471   C     0.80210   0.52739   0.40601   0.00000  Uiso   1.00
C472   C     0.86456   0.47260   0.09399   0.00000  Uiso   1.00
C473   C     0.80082   0.52500   0.45304   0.00000  Uiso   1.00
C474   C     0.86584   0.47499   0.04696   0.00000  Uiso   1.00
C475   C     0.83274   0.50050   0.47660   0.00000  Uiso   1.00
C476   C     0.83391   0.49949   0.02339   0.00000  Uiso   1.00
C477   C     0.86338   0.47652   0.45339   0.00000  Uiso   1.00
C478   C     0.80328   0.52347   0.04661   0.00000  Uiso   1.00
C479   C     0.76850   0.54565   0.47714   0.00000  Uiso   1.00
C480   C     0.89815   0.45433   0.02286   0.00000  Uiso   1.00
Cu481  Cu    0.83333   0.54689   0.25000   0.00000  Uiso   1.00
Cu482  Cu    0.83333   0.45311   0.25000   0.00000  Uiso   1.00
H483   H     0.88514   0.45692   0.38952   0.00000  Uiso   1.00
H484   H     0.78152   0.54307   0.11048   0.00000  Uiso   1.00
H485   H     0.74765   0.56445   0.04189   0.00000  Uiso   1.00
H486   H     0.91900   0.43553   0.45811   0.00000  Uiso   1.00
N487   N     0.83333   0.61736   0.25000   0.00000  Uiso   1.00
N488   N     0.83333   0.38264   0.25000   0.00000  Uiso   1.00
O489   O     0.77321   0.53958   0.25000   0.00000  Uiso   1.00
O490   O     0.89345   0.46042   0.25000   0.00000  Uiso   1.00
O491   O     0.89345   0.53958   0.25000   0.00000  Uiso   1.00
O492   O     0.77321   0.46042   0.24999   0.00000  Uiso   1.00
O493   O     0.83332   0.53960   0.18513   0.00000  Uiso   1.00
O494   O     0.83334   0.46040   0.31487   0.00000  Uiso   1.00
O495   O     0.83334   0.53960   0.31487   0.00000  Uiso   1.00
O496   O     0.83332   0.46040   0.18513   0.00000  Uiso   1.00
O497   O     0.77280   0.55234   0.38140   0.00000  Uiso   1.00
C498   C     0.78320   0.59986   0.38138   0.00000  Uiso   1.00
H499   H     0.75415   0.62038   0.37908   0.00000  Uiso   1.00
H500   H     0.80106   0.60836   0.35157   0.00000  Uiso   1.00
H501   H     0.80056   0.61148   0.41180   0.00000  Uiso   1.00
O502   O     0.89386   0.44765   0.11860   0.00000  Uiso   1.00
C503   C     0.88345   0.40014   0.11864   0.00000  Uiso   1.00
H504   H     0.86595   0.38854   0.08829   0.00000  Uiso   1.00
H505   H     0.86570   0.39162   0.14853   0.00000  Uiso   1.00
H506   H     0.91249   0.37960   0.12079   0.00000  Uiso   1.00
O507   O     0.73533   0.56705   0.45535   0.00000  Uiso   1.00
C508   C     0.69860   0.54280   0.46422   0.00000  Uiso   1.00
H509   H     0.70225   0.50477   0.45962   0.00000  Uiso   1.00
H510   H     0.67402   0.55477   0.44042   0.00000  Uiso   1.00
H511   H     0.68786   0.55034   0.49822   0.00000  Uiso   1.00
O512   O     0.93132   0.43292   0.04465   0.00000  Uiso   1.00
C513   C     0.96805   0.45717   0.03579   0.00000  Uiso   1.00
H514   H     0.99262   0.44519   0.05958   0.00000  Uiso   1.00
H515   H     0.96440   0.49520   0.04040   0.00000  Uiso   1.00
H516   H     0.97879   0.44963   0.00178   0.00000  Uiso   1.00
C517   C     0.71422   0.48086   0.33156   0.00000  Uiso   1.00
H518   H     0.74382   0.46323   0.33037   0.00000  Uiso   1.00
O519   O     0.70280   0.49498   0.36739   0.00000  Uiso   1.00
C520   C     0.95245   0.51914   0.16844   0.00000  Uiso   1.00
H521   H     0.92285   0.53677   0.16963   0.00000  Uiso   1.00
O522   O     0.96386   0.50501   0.13261   0.00000  Uiso   1.00
C523   C     0.95571   0.47922   0.33057   0.00000  Uiso   1.00
H524   H     0.92788   0.49863   0.33765   0.00000  Uiso   1.00
O525   O     0.96616   0.44745   0.35532   0.00000  Uiso   1.00
C526   C     0.71096   0.52078   0.16943   0.00000  Uiso   1.00
H527   H     0.73879   0.50138   0.16235   0.00000  Uiso   1.00
O528   O     0.70050   0.55255   0.14468   0.00000  Uiso   1.00
C529   C     0.77890   0.38344   0.19100   0.00000  Uiso   1.00
H530   H     0.75033   0.39682   0.20400   0.00000  Uiso   1.00
O531   O     0.78513   0.38701   0.15131   0.00000  Uiso   1.00
C532   C     0.88779   0.61657   0.30898   0.00000  Uiso   1.00
H533   H     0.91635   0.60320   0.29597   0.00000  Uiso   1.00
O534   O     0.88157   0.61298   0.34867   0.00000  Uiso   1.00
C535   C     0.88461   0.38181   0.31223   0.00000  Uiso   1.00
H536   H     0.91112   0.40100   0.30150   0.00000  Uiso   1.00
O537   O     0.87819   0.37826   0.35188   0.00000  Uiso   1.00
C538   C     0.78205   0.61819   0.18778   0.00000  Uiso   1.00
H539   H     0.75553   0.59901   0.19852   0.00000  Uiso   1.00
O540   O     0.78847   0.62173   0.14813   0.00000  Uiso   1.00
C541   C     0.08767   0.83328   0.25022   0.00000  Uiso   1.00
C542   C     0.24567   0.83338   0.24978   0.00000  Uiso   1.00
C543   C     0.10447   0.87960   0.02363   0.00000  Uiso   1.00
C544   C     0.22885   0.78705   0.47637   0.00000  Uiso   1.00
C545   C     0.02261   0.82280   0.28992   0.00000  Uiso   1.00
C546   C     0.31072   0.84386   0.21008   0.00000  Uiso   1.00
C547   C     0.31241   0.82330   0.28979   0.00000  Uiso   1.00
C548   C     0.02092   0.84337   0.21021   0.00000  Uiso   1.00
C549   C     0.29044   0.83397   0.24997   0.00000  Uiso   1.00
C550   C     0.04290   0.83270   0.25003   0.00000  Uiso   1.00
C551   C     0.14186   0.69177   0.22066   0.00000  Uiso   1.00
C552   C     0.19147   0.97490   0.27933   0.00000  Uiso   1.00
C553   C     0.19114   0.69103   0.27963   0.00000  Uiso   1.00
C554   C     0.14219   0.97564   0.22037   0.00000  Uiso   1.00
C555   C     0.16762   0.83323   0.16459   0.00000  Uiso   1.00
C556   C     0.16571   0.83343   0.33541   0.00000  Uiso   1.00
C557   C     0.19516   0.80910   0.40727   0.00000  Uiso   1.00
C558   C     0.13817   0.85756   0.09273   0.00000  Uiso   1.00
C559   C     0.16493   0.83405   0.38369   0.00000  Uiso   1.00
C560   C     0.16840   0.83261   0.11631   0.00000  Uiso   1.00
C561   C     0.13544   0.86073   0.40601   0.00000  Uiso   1.00
C562   C     0.19789   0.80594   0.09399   0.00000  Uiso   1.00
C563   C     0.13415   0.85833   0.45304   0.00000  Uiso   1.00
C564   C     0.19917   0.80833   0.04696   0.00000  Uiso   1.00
C565   C     0.16608   0.83383   0.47660   0.00000  Uiso   1.00
C566   C     0.16725   0.83283   0.02339   0.00000  Uiso   1.00
C567   C     0.19671   0.80985   0.45339   0.00000  Uiso   1.00
C568   C     0.13661   0.85680   0.04661   0.00000  Uiso   1.00
C569   C     0.10184   0.87898   0.47714   0.00000  Uiso   1.00
C570   C     0.23148   0.78767   0.02286   0.00000  Uiso   1.00
Cu571  Cu    0.16667   0.88022   0.25000   0.00000  Uiso   1.00
Cu572  Cu    0.16667   0.78645   0.25000   0.00000  Uiso   1.00
H573   H     0.21848   0.79026   0.38952   0.00000  Uiso   1.00
H574   H     0.11485   0.87641   0.11048   0.00000  Uiso   1.00
H575   H     0.08098   0.89778   0.04189   0.00000  Uiso   1.00
H576   H     0.25234   0.76887   0.45811   0.00000  Uiso   1.00
N577   N     0.16667   0.95069   0.25000   0.00000  Uiso   1.00
N578   N     0.16667   0.71598   0.25000   0.00000  Uiso   1.00
O579   O     0.10655   0.87291   0.25000   0.00000  Uiso   1.00
O580   O     0.22679   0.79375   0.25000   0.00000  Uiso   1.00
O581   O     0.22679   0.87291   0.25000   0.00000  Uiso   1.00
O582   O     0.10655   0.79375   0.24999   0.00000  Uiso   1.00
O583   O     0.16666   0.87293   0.18513   0.00000  Uiso   1.00
O584   O     0.16668   0.79373   0.31487   0.00000  Uiso   1.00
O585   O     0.16668   0.87293   0.31487   0.00000  Uiso   1.00
O586   O     0.16666   0.79373   0.18513   0.00000  Uiso   1.00
O587   O     0.10613   0.88567   0.38140   0.00000  Uiso   1.00
C588   C     0.11653   0.93319   0.38138   0.00000  Uiso   1.00
H589   H     0.08749   0.95371   0.37908   0.00000  Uiso   1.00
H590   H     0.13440   0.94169   0.35157   0.00000  Uiso   1.00
H591   H     0.13390   0.94481   0.41180   0.00000  Uiso   1.00
O592   O     0.22719   0.78098   0.11860   0.00000  Uiso   1.00
C593   C     0.21678   0.73347   0.11864   0.00000  Uiso   1.00
H594   H     0.19929   0.72187   0.08829   0.00000  Uiso   1.00
H595   H     0.19903   0.72496   0.14853   0.00000  Uiso   1.00
H596   H     0.24582   0.71293   0.12079   0.00000  Uiso   1.00
O597   O     0.06866   0.90039   0.45535   0.00000  Uiso   1.00
C598   C     0.03193   0.87613   0.46422   0.00000  Uiso   1.00
H599   H     0.03559   0.83810   0.45962   0.00000  Uiso   1.00
H600   H     0.00736   0.88810   0.44042   0.00000  Uiso   1.00
H601   H     0.02119   0.88367   0.49822   0.00000  Uiso   1.00
O602   O     0.26465   0.76625   0.04465   0.00000  Uiso   1.00
C603   C     0.30139   0.79050   0.03579   0.00000  Uiso   1.00
H604   H     0.32596   0.77852   0.05958   0.00000  Uiso   1.00
H605   H     0.29773   0.82853   0.04040   0.00000  Uiso   1.00
H606   H     0.31212   0.78297   0.00178   0.00000  Uiso   1.00
C607   C     0.04755   0.81419   0.33156   0.00000  Uiso   1.00
H608   H     0.07715   0.79656   0.33037   0.00000  Uiso   1.00
O609   O     0.03613   0.82831   0.36739   0.00000  Uiso   1.00
C610   C     0.28578   0.85247   0.16844   0.00000  Uiso   1.00
H611   H     0.25618   0.87010   0.16963   0.00000  Uiso   1.00
O612   O     0.29720   0.83835   0.13261   0.00000  Uiso   1.00
C613   C     0.28904   0.81256   0.33057   0.00000  Uiso   1.00
H614   H     0.26121   0.83196   0.33765   0.00000  Uiso   1.00
O615   O     0.29950   0.78079   0.35532   0.00000  Uiso   1.00
C616   C     0.04429   0.85411   0.16943   0.00000  Uiso   1.00
H617   H     0.07212   0.83471   0.16235   0.00000  Uiso   1.00
O618   O     0.03383   0.88588   0.14468   0.00000  Uiso   1.00
C619   C     0.11223   0.71677   0.19100   0.00000  Uiso   1.00
H620   H     0.08367   0.73015   0.20400   0.00000  Uiso   1.00
O621   O     0.11846   0.72034   0.15131   0.00000  Uiso   1.00
C622   C     0.22112   0.94990   0.30898   0.00000  Uiso   1.00
H623   H     0.24969   0.93653   0.29597   0.00000  Uiso   1.00
O624   O     0.21490   0.94631   0.34867   0.00000  Uiso   1.00
C625   C     0.21794   0.71514   0.31223   0.00000  Uiso   1.00
H626   H     0.24445   0.73434   0.30150   0.00000  Uiso   1.00
O627   O     0.21153   0.71159   0.35188   0.00000  Uiso   1.00
C628   C     0.11539   0.95153   0.18778   0.00000  Uiso   1.00
H629   H     0.08887   0.93235   0.19852   0.00000  Uiso   1.00
O630   O     0.12180   0.95506   0.14813   0.00000  Uiso   1.00
C631   C     0.42100   0.83328   0.25022   0.00000  Uiso   1.00
C632   C     0.57900   0.83338   0.24978   0.00000  Uiso   1.00
C633   C     0.43781   0.87960   0.02363   0.00000  Uiso   1.00
C634   C     0.56218   0.78705   0.47637   0.00000  Uiso   1.00
C635   C     0.35594   0.82280   0.28992   0.00000  Uiso   1.00
C636   C     0.64406   0.84386   0.21008   0.00000  Uiso   1.00
C637   C     0.64575   0.82330   0.28979   0.00000  Uiso   1.00
C638   C     0.35425   0.84337   0.21021   0.00000  Uiso   1.00
C639   C     0.62377   0.83397   0.24997   0.00000  Uiso   1.00
C640   C     0.37623   0.83270   0.25003   0.00000  Uiso   1.00
C641   C     0.47520   0.69177   0.22066   0.00000  Uiso   1.00
C642   C     0.52481   0.97490   0.27933   0.00000  Uiso   1.00
C643   C     0.52448   0.69103   0.27963   0.00000  Uiso   1.00
C644   C     0.47552   0.97564   0.22037   0.00000  Uiso   1.00
C645   C     0.50095   0.83323   0.16459   0.00000  Uiso   1.00
C646   C     0.49905   0.83343   0.33541   0.00000  Uiso   1.00
C647   C     0.52849   0.80910   0.40727   0.00000  Uiso   1.00
C648   C     0.47150   0.85756   0.09273   0.00000  Uiso   1.00
C649   C     0.49827   0.83405   0.38369   0.00000  Uiso   1.00
C650   C     0.50173   0.83261   0.11631   0.00000  Uiso   1.00
C651   C     0.46877   0.86073   0.40601   0.00000  Uiso   1.00
C652   C     0.53122   0.80594   0.09399   0.00000  Uiso   1.00
C653   C     0.46748   0.85833   0.45304   0.00000  Uiso   1.00
C654   C     0.53251   0.80833   0.04696   0.00000  Uiso   1.00
C655   C     0.49941   0.83383   0.47660   0.00000  Uiso   1.00
C656   C     0.50058   0.83283   0.02339   0.00000  Uiso   1.00
C657   C     0.53004   0.80985   0.45339   0.00000  Uiso   1.00
C658   C     0.46995   0.85680   0.04661   0.00000  Uiso   1.00
C659   C     0.43517   0.87898   0.47714   0.00000  Uiso   1.00
C660   C     0.56481   0.78767   0.02286   0.00000  Uiso   1.00
Cu661  Cu    0.50000   0.88022   0.25000   0.00000  Uiso   1.00
Cu662  Cu    0.50000   0.78645   0.25000   0.00000  Uiso   1.00
H663   H     0.55181   0.79026   0.38952   0.00000  Uiso   1.00
H664   H     0.44818   0.87641   0.11048   0.00000  Uiso   1.00
H665   H     0.41432   0.89778   0.04189   0.00000  Uiso   1.00
H666   H     0.58567   0.76887   0.45811   0.00000  Uiso   1.00
N667   N     0.50000   0.95069   0.25000   0.00000  Uiso   1.00
N668   N     0.50000   0.71598   0.25000   0.00000  Uiso   1.00
O669   O     0.43988   0.87291   0.25000   0.00000  Uiso   1.00
O670   O     0.56012   0.79375   0.25000   0.00000  Uiso   1.00
O671   O     0.56012   0.87291   0.25000   0.00000  Uiso   1.00
O672   O     0.43988   0.79375   0.24999   0.00000  Uiso   1.00
O673   O     0.49999   0.87293   0.18513   0.00000  Uiso   1.00
O674   O     0.50001   0.79373   0.31487   0.00000  Uiso   1.00
O675   O     0.50001   0.87293   0.31487   0.00000  Uiso   1.00
O676   O     0.49999   0.79373   0.18513   0.00000  Uiso   1.00
O677   O     0.43946   0.88567   0.38140   0.00000  Uiso   1.00
C678   C     0.44986   0.93319   0.38138   0.00000  Uiso   1.00
H679   H     0.42082   0.95371   0.37908   0.00000  Uiso   1.00
H680   H     0.46773   0.94169   0.35157   0.00000  Uiso   1.00
H681   H     0.46723   0.94481   0.41180   0.00000  Uiso   1.00
O682   O     0.56053   0.78098   0.11860   0.00000  Uiso   1.00
C683   C     0.55011   0.73347   0.11864   0.00000  Uiso   1.00
H684   H     0.53262   0.72187   0.08829   0.00000  Uiso   1.00
H685   H     0.53237   0.72496   0.14853   0.00000  Uiso   1.00
H686   H     0.57915   0.71293   0.12079   0.00000  Uiso   1.00
O687   O     0.40199   0.90039   0.45535   0.00000  Uiso   1.00
C688   C     0.36526   0.87613   0.46422   0.00000  Uiso   1.00
H689   H     0.36892   0.83810   0.45962   0.00000  Uiso   1.00
H690   H     0.34069   0.88810   0.44042   0.00000  Uiso   1.00
H691   H     0.35453   0.88367   0.49822   0.00000  Uiso   1.00
O692   O     0.59799   0.76625   0.04465   0.00000  Uiso   1.00
C693   C     0.63472   0.79050   0.03579   0.00000  Uiso   1.00
H694   H     0.65929   0.77852   0.05958   0.00000  Uiso   1.00
H695   H     0.63107   0.82853   0.04040   0.00000  Uiso   1.00
H696   H     0.64546   0.78297   0.00178   0.00000  Uiso   1.00
C697   C     0.38089   0.81419   0.33156   0.00000  Uiso   1.00
H698   H     0.41048   0.79656   0.33037   0.00000  Uiso   1.00
O699   O     0.36947   0.82831   0.36739   0.00000  Uiso   1.00
C700   C     0.61911   0.85247   0.16844   0.00000  Uiso   1.00
H701   H     0.58952   0.87010   0.16963   0.00000  Uiso   1.00
O702   O     0.63053   0.83835   0.13261   0.00000  Uiso   1.00
C703   C     0.62237   0.81256   0.33057   0.00000  Uiso   1.00
H704   H     0.59455   0.83196   0.33765   0.00000  Uiso   1.00
O705   O     0.63283   0.78079   0.35532   0.00000  Uiso   1.00
C706   C     0.37763   0.85411   0.16943   0.00000  Uiso   1.00
H707   H     0.40545   0.83471   0.16235   0.00000  Uiso   1.00
O708   O     0.36717   0.88588   0.14468   0.00000  Uiso   1.00
C709   C     0.44556   0.71677   0.19100   0.00000  Uiso   1.00
H710   H     0.41700   0.73015   0.20400   0.00000  Uiso   1.00
O711   O     0.45180   0.72034   0.15131   0.00000  Uiso   1.00
C712   C     0.55445   0.94990   0.30898   0.00000  Uiso   1.00
H713   H     0.58302   0.93653   0.29597   0.00000  Uiso   1.00
O714   O     0.54824   0.94631   0.34867   0.00000  Uiso   1.00
C715   C     0.55127   0.71514   0.31223   0.00000  Uiso   1.00
H716   H     0.57778   0.73434   0.30150   0.00000  Uiso   1.00
O717   O     0.54486   0.71159   0.35188   0.00000  Uiso   1.00
C718   C     0.44872   0.95153   0.18778   0.00000  Uiso   1.00
H719   H     0.42220   0.93235   0.19852   0.00000  Uiso   1.00
O720   O     0.45513   0.95506   0.14813   0.00000  Uiso   1.00
C721   C     0.75433   0.83328   0.25022   0.00000  Uiso   1.00
C722   C     0.91233   0.83338   0.24978   0.00000  Uiso   1.00
C723   C     0.77114   0.87960   0.02363   0.00000  Uiso   1.00
C724   C     0.89551   0.78705   0.47637   0.00000  Uiso   1.00
C725   C     0.68927   0.82280   0.28992   0.00000  Uiso   1.00
C726   C     0.97739   0.84386   0.21008   0.00000  Uiso   1.00
C727   C     0.97908   0.82330   0.28979   0.00000  Uiso   1.00
C728   C     0.68759   0.84337   0.21021   0.00000  Uiso   1.00
C729   C     0.95710   0.83397   0.24997   0.00000  Uiso   1.00
C730   C     0.70956   0.83270   0.25003   0.00000  Uiso   1.00
C731   C     0.80853   0.69177   0.22066   0.00000  Uiso   1.00
C732   C     0.85814   0.97490   0.27933   0.00000  Uiso   1.00
C733   C     0.85781   0.69103   0.27963   0.00000  Uiso   1.00
C734   C     0.80886   0.97564   0.22037   0.00000  Uiso   1.00
C735   C     0.83428   0.83323   0.16459   0.00000  Uiso   1.00
C736   C     0.83238   0.83343   0.33541   0.00000  Uiso   1.00
C737   C     0.86182   0.80910   0.40727   0.00000  Uiso   1.00
C738   C     0.80484   0.85756   0.09273   0.00000  Uiso   1.00
C739   C     0.83160   0.83405   0.38369   0.00000  Uiso   1.00
C740   C     0.83506   0.83261   0.11631   0.00000  Uiso   1.00
C741   C     0.80210   0.86073   0.40601   0.00000  Uiso   1.00
C742   C     0.86456   0.80594   0.09399   0.00000  Uiso   1.00
C743   C     0.80082   0.85833   0.45304   0.00000  Uiso   1.00
C744   C     0.86584   0.80833   0.04696   0.00000  Uiso   1.00
C745   C     0.83274   0.83383   0.47660   0.00000  Uiso   1.00
C746   C     0.83391   0.83283   0.02339   0.00000  Uiso   1.00
C747   C     0.86338   0.80985   0.45339   0.00000  Uiso   1.00
C748   C     0.80328   0.85680   0.04661   0.00000  Uiso   1.00
C749   C     0.76850   0.87898   0.47714   0.00000  Uiso   1.00
C750   C     0.89815   0.78767   0.02286   0.00000  Uiso   1.00
Cu751  Cu    0.83333   0.88022   0.25000   0.00000  Uiso   1.00
Cu752  Cu    0.83333   0.78645   0.25000   0.00000  Uiso   1.00
H753   H     0.88514   0.79026   0.38952   0.00000  Uiso   1.00
H754   H     0.78152   0.87641   0.11048   0.00000  Uiso   1.00
H755   H     0.74765   0.89778   0.04189   0.00000  Uiso   1.00
H756   H     0.91900   0.76887   0.45811   0.00000  Uiso   1.00
N757   N     0.83333   0.95069   0.25000   0.00000  Uiso   1.00
N758   N     0.83333   0.71598   0.25000   0.00000  Uiso   1.00
O759   O     0.77321   0.87291   0.25000   0.00000  Uiso   1.00
O760   O     0.89345   0.79375   0.25000   0.00000  Uiso   1.00
O761   O     0.89345   0.87291   0.25000   0.00000  Uiso   1.00
O762   O     0.77321   0.79375   0.24999   0.00000  Uiso   1.00
O763   O     0.83332   0.87293   0.18513   0.00000  Uiso   1.00
O764   O     0.83334   0.79373   0.31487   0.00000  Uiso   1.00
O765   O     0.83334   0.87293   0.31487   0.00000  Uiso   1.00
O766   O     0.83332   0.79373   0.18513   0.00000  Uiso   1.00
O767   O     0.77280   0.88567   0.38140   0.00000  Uiso   1.00
C768   C     0.78320   0.93319   0.38138   0.00000  Uiso   1.00
H769   H     0.75415   0.95371   0.37908   0.00000  Uiso   1.00
H770   H     0.80106   0.94169   0.35157   0.00000  Uiso   1.00
H771   H     0.80056   0.94481   0.41180   0.00000  Uiso   1.00
O772   O     0.89386   0.78098   0.11860   0.00000  Uiso   1.00
C773   C     0.88345   0.73347   0.11864   0.00000  Uiso   1.00
H774   H     0.86595   0.72187   0.08829   0.00000  Uiso   1.00
H775   H     0.86570   0.72496   0.14853   0.00000  Uiso   1.00
H776   H     0.91249   0.71293   0.12079   0.00000  Uiso   1.00
O777   O     0.73533   0.90039   0.45535   0.00000  Uiso   1.00
C778   C     0.69860   0.87613   0.46422   0.00000  Uiso   1.00
H779   H     0.70225   0.83810   0.45962   0.00000  Uiso   1.00
H780   H     0.67402   0.88810   0.44042   0.00000  Uiso   1.00
H781   H     0.68786   0.88367   0.49822   0.00000  Uiso   1.00
O782   O     0.93132   0.76625   0.04465   0.00000  Uiso   1.00
C783   C     0.96805   0.79050   0.03579   0.00000  Uiso   1.00
H784   H     0.99262   0.77852   0.05958   0.00000  Uiso   1.00
H785   H     0.96440   0.82853   0.04040   0.00000  Uiso   1.00
H786   H     0.97879   0.78297   0.00178   0.00000  Uiso   1.00
C787   C     0.71422   0.81419   0.33156   0.00000  Uiso   1.00
H788   H     0.74382   0.79656   0.33037   0.00000  Uiso   1.00
O789   O     0.70280   0.82831   0.36739   0.00000  Uiso   1.00
C790   C     0.95245   0.85247   0.16844   0.00000  Uiso   1.00
H791   H     0.92285   0.87010   0.16963   0.00000  Uiso   1.00
O792   O     0.96386   0.83835   0.13261   0.00000  Uiso   1.00
C793   C     0.95571   0.81256   0.33057   0.00000  Uiso   1.00
H794   H     0.92788   0.83196   0.33765   0.00000  Uiso   1.00
O795   O     0.96616   0.78079   0.35532   0.00000  Uiso   1.00
C796   C     0.71096   0.85411   0.16943   0.00000  Uiso   1.00
H797   H     0.73879   0.83471   0.16235   0.00000  Uiso   1.00
O798   O     0.70050   0.88588   0.14468   0.00000  Uiso   1.00
C799   C     0.77890   0.71677   0.19100   0.00000  Uiso   1.00
H800   H     0.75033   0.73015   0.20400   0.00000  Uiso   1.00
O801   O     0.78513   0.72034   0.15131   0.00000  Uiso   1.00
C802   C     0.88779   0.94990   0.30898   0.00000  Uiso   1.00
H803   H     0.91635   0.93653   0.29597   0.00000  Uiso   1.00
O804   O     0.88157   0.94631   0.34867   0.00000  Uiso   1.00
C805   C     0.88461   0.71514   0.31223   0.00000  Uiso   1.00
H806   H     0.91112   0.73434   0.30150   0.00000  Uiso   1.00
O807   O     0.87819   0.71159   0.35188   0.00000  Uiso   1.00
C808   C     0.78205   0.95153   0.18778   0.00000  Uiso   1.00
H809   H     0.75553   0.93235   0.19852   0.00000  Uiso   1.00
O810   O     0.78847   0.95506   0.14813   0.00000  Uiso   1.00
C811   C     0.08767   0.16662   0.75022   0.00000  Uiso   1.00
C812   C     0.24567   0.16672   0.74978   0.00000  Uiso   1.00
C813   C     0.10447   0.21293   0.52363   0.00000  Uiso   1.00
C814   C     0.22885   0.12038   0.97637   0.00000  Uiso   1.00
C815   C     0.02261   0.15614   0.78992   0.00000  Uiso   1.00
C816   C     0.31072   0.17719   0.71008   0.00000  Uiso   1.00
C817   C     0.31241   0.15663   0.78979   0.00000  Uiso   1.00
C818   C     0.02092   0.17670   0.71021   0.00000  Uiso   1.00
C819   C     0.29044   0.16730   0.74997   0.00000  Uiso   1.00
C820   C     0.04290   0.16603   0.75003   0.00000  Uiso   1.00
C821   C     0.14186   0.02510   0.72066   0.00000  Uiso   1.00
C822   C     0.19147   0.30823   0.77933   0.00000  Uiso   1.00
C823   C     0.19114   0.02436   0.77963   0.00000  Uiso   1.00
C824   C     0.14219   0.30897   0.72037   0.00000  Uiso   1.00
C825   C     0.16762   0.16657   0.66459   0.00000  Uiso   1.00
C826   C     0.16571   0.16677   0.83541   0.00000  Uiso   1.00
C827   C     0.19516   0.14243   0.90727   0.00000  Uiso   1.00
C828   C     0.13817   0.19090   0.59273   0.00000  Uiso   1.00
C829   C     0.16493   0.16739   0.88369   0.00000  Uiso   1.00
C830   C     0.16840   0.16595   0.61631   0.00000  Uiso   1.00
C831   C     0.13544   0.19406   0.90601   0.00000  Uiso   1.00
C832   C     0.19789   0.13927   0.59399   0.00000  Uiso   1.00
C833   C     0.13415   0.19166   0.95304   0.00000  Uiso   1.00
C834   C     0.19917   0.14166   0.54696   0.00000  Uiso   1.00
C835   C     0.16608   0.16716   0.97660   0.00000  Uiso   1.00
C836   C     0.16725   0.16616   0.52339   0.00000  Uiso   1.00
C837   C     0.19671   0.14319   0.95339   0.00000  Uiso   1.00
C838   C     0.13661   0.19013   0.54661   0.00000  Uiso   1.00
C839   C     0.10184   0.21231   0.97714   0.00000  Uiso   1.00
C840   C     0.23148   0.12100   0.52286   0.00000  Uiso   1.00
Cu841  Cu    0.16667   0.21355   0.75000   0.00000  Uiso   1.00
Cu842  Cu    0.16667   0.11978   0.75000   0.00000  Uiso   1.00
H843   H     0.21848   0.12359   0.88952   0.00000  Uiso   1.00
H844   H     0.11485   0.20974   0.61048   0.00000  Uiso   1.00
H845   H     0.08098   0.23111   0.54189   0.00000  Uiso   1.00
H846   H     0.25234   0.10220   0.95811   0.00000  Uiso   1.00
N847   N     0.16667   0.28402   0.75000   0.00000  Uiso   1.00
N848   N     0.16667   0.04931   0.75000   0.00000  Uiso   1.00
O849   O     0.10655   0.20625   0.75000   0.00000  Uiso   1.00
O850   O     0.22679   0.12709   0.75000   0.00000  Uiso   1.00
O851   O     0.22679   0.20625   0.75000   0.00000  Uiso   1.00
O852   O     0.10655   0.12709   0.74999   0.00000  Uiso   1.00
O853   O     0.16666   0.20627   0.68513   0.00000  Uiso   1.00
O854   O     0.16668   0.12707   0.81487   0.00000  Uiso   1.00
O855   O     0.16668   0.20627   0.81487   0.00000  Uiso   1.00
O856   O     0.16666   0.12707   0.68513   0.00000  Uiso   1.00
O857   O     0.10613   0.21901   0.88140   0.00000  Uiso   1.00
C858   C     0.11653   0.26652   0.88138   0.00000  Uiso   1.00
H859   H     0.08749   0.28705   0.87908   0.00000  Uiso   1.00
H860   H     0.13440   0.27503   0.85157   0.00000  Uiso   1.00
H861   H     0.13390   0.27815   0.91180   0.00000  Uiso   1.00
O862   O     0.22719   0.11432   0.61860   0.00000  Uiso   1.00
C863   C     0.21678   0.06680   0.61864   0.00000  Uiso   1.00
H864   H     0.19929   0.05520   0.58829   0.00000  Uiso   1.00
H865   H     0.19903   0.05829   0.64853   0.00000  Uiso   1.00
H866   H     0.24582   0.04627   0.62079   0.00000  Uiso   1.00
O867   O     0.06866   0.23372   0.95535   0.00000  Uiso   1.00
C868   C     0.03193   0.20947   0.96422   0.00000  Uiso   1.00
H869   H     0.03559   0.17143   0.95962   0.00000  Uiso   1.00
H870   H     0.00736   0.22143   0.94042   0.00000  Uiso   1.00
H871   H     0.02119   0.21701   0.99822   0.00000  Uiso   1.00
O872   O     0.26465   0.09958   0.54465   0.00000  Uiso   1.00
C873   C     0.30139   0.12383   0.53579   0.00000  Uiso   1.00
H874   H     0.32596   0.11186   0.55958   0.00000  Uiso   1.00
H875   H     0.29773   0.16186   0.54040   0.00000  Uiso   1.00
H876   H     0.31212   0.11630   0.50178   0.00000  Uiso   1.00
C877   C     0.04755   0.14752   0.83156   0.00000  Uiso   1.00
H878   H     0.07715   0.12989   0.83037   0.00000  Uiso   1.00
O879   O     0.03613   0.16164   0.86739   0.00000  Uiso   1.00
C880   C     0.28578   0.18580   0.66844   0.00000  Uiso   1.00
H881   H     0.25618   0.20344   0.66963   0.00000  Uiso   1.00
O882   O     0.29720   0.17168   0.63261   0.00000  Uiso   1.00
C883   C     0.28904   0.14589   0.83057   0.00000  Uiso   1.00
H884   H     0.26121   0.16529   0.83765   0.00000  Uiso   1.00
O885   O     0.29950   0.11412   0.85532   0.00000  Uiso   1.00
C886   C     0.04429   0.18744   0.66943   0.00000  Uiso   1.00
H887   H     0.07212   0.16804   0.66235   0.00000  Uiso   1.00
O888   O     0.03383   0.21921   0.64468   0.00000  Uiso   1.00
C889   C     0.11223   0.05010   0.69100   0.00000  Uiso   1.00
H890   H     0.08367   0.06349   0.70400   0.00000  Uiso   1.00
O891   O     0.11846   0.05367   0.65131   0.00000  Uiso   1.00
C892   C     0.22112   0.28323   0.80898   0.00000  Uiso   1.00
H893   H     0.24969   0.26986   0.79597   0.00000  Uiso   1.00
O894   O     0.21490   0.27964   0.84867   0.00000  Uiso   1.00
C895   C     0.21794   0.04847   0.81223   0.00000  Uiso   1.00
H896   H     0.24445   0.06767   0.80150   0.00000  Uiso   1.00
O897   O     0.21153   0.04492   0.85188   0.00000  Uiso   1.00
C898   C     0.11539   0.28486   0.68778   0.00000  Uiso   1.00
H899   H     0.08887   0.26568   0.69852   0.00000  Uiso   1.00
O900   O     0.12180   0.28839   0.64813   0.00000  Uiso   1.00
C901   C     0.42100   0.16662   0.75022   0.00000  Uiso   1.00
C902   C     0.57900   0.16672   0.74978   0.00000  Uiso   1.00
C903   C     0.43781   0.21293   0.52363   0.00000  Uiso   1.00
C904   C     0.56218   0.12038   0.97637   0.00000  Uiso   1.00
C905   C     0.35594   0.15614   0.78992   0.00000  Uiso   1.00
C906   C     0.64406   0.17719   0.71008   0.00000  Uiso   1.00
C907   C     0.64575   0.15663   0.78979   0.00000  Uiso   1.00
C908   C     0.35425   0.17670   0.71021   0.00000  Uiso   1.00
C909   C     0.62377   0.16730   0.74997   0.00000  Uiso   1.00
C910   C     0.37623   0.16603   0.75003   0.00000  Uiso   1.00
C911   C     0.47520   0.02510   0.72066   0.00000  Uiso   1.00
C912   C     0.52481   0.30823   0.77933   0.00000  Uiso   1.00
C913   C     0.52448   0.02436   0.77963   0.00000  Uiso   1.00
C914   C     0.47552   0.30897   0.72037   0.00000  Uiso   1.00
C915   C     0.50095   0.16657   0.66459   0.00000  Uiso   1.00
C916   C     0.49905   0.16677   0.83541   0.00000  Uiso   1.00
C917   C     0.52849   0.14243   0.90727   0.00000  Uiso   1.00
C918   C     0.47150   0.19090   0.59273   0.00000  Uiso   1.00
C919   C     0.49827   0.16739   0.88369   0.00000  Uiso   1.00
C920   C     0.50173   0.16595   0.61631   0.00000  Uiso   1.00
C921   C     0.46877   0.19406   0.90601   0.00000  Uiso   1.00
C922   C     0.53122   0.13927   0.59399   0.00000  Uiso   1.00
C923   C     0.46748   0.19166   0.95304   0.00000  Uiso   1.00
C924   C     0.53251   0.14166   0.54696   0.00000  Uiso   1.00
C925   C     0.49941   0.16716   0.97660   0.00000  Uiso   1.00
C926   C     0.50058   0.16616   0.52339   0.00000  Uiso   1.00
C927   C     0.53004   0.14319   0.95339   0.00000  Uiso   1.00
C928   C     0.46995   0.19013   0.54661   0.00000  Uiso   1.00
C929   C     0.43517   0.21231   0.97714   0.00000  Uiso   1.00
C930   C     0.56481   0.12100   0.52286   0.00000  Uiso   1.00
Cu931  Cu    0.50000   0.21355   0.75000   0.00000  Uiso   1.00
Cu932  Cu    0.50000   0.11978   0.75000   0.00000  Uiso   1.00
H933   H     0.55181   0.12359   0.88952   0.00000  Uiso   1.00
H934   H     0.44818   0.20974   0.61048   0.00000  Uiso   1.00
H935   H     0.41432   0.23111   0.54189   0.00000  Uiso   1.00
H936   H     0.58567   0.10220   0.95811   0.00000  Uiso   1.00
N937   N     0.50000   0.28402   0.75000   0.00000  Uiso   1.00
N938   N     0.50000   0.04931   0.75000   0.00000  Uiso   1.00
O939   O     0.43988   0.20625   0.75000   0.00000  Uiso   1.00
O940   O     0.56012   0.12709   0.75000   0.00000  Uiso   1.00
O941   O     0.56012   0.20625   0.75000   0.00000  Uiso   1.00
O942   O     0.43988   0.12709   0.74999   0.00000  Uiso   1.00
O943   O     0.49999   0.20627   0.68513   0.00000  Uiso   1.00
O944   O     0.50001   0.12707   0.81487   0.00000  Uiso   1.00
O945   O     0.50001   0.20627   0.81487   0.00000  Uiso   1.00
O946   O     0.49999   0.12707   0.68513   0.00000  Uiso   1.00
O947   O     0.43946   0.21901   0.88140   0.00000  Uiso   1.00
C948   C     0.44986   0.26652   0.88138   0.00000  Uiso   1.00
H949   H     0.42082   0.28705   0.87908   0.00000  Uiso   1.00
H950   H     0.46773   0.27503   0.85157   0.00000  Uiso   1.00
H951   H     0.46723   0.27815   0.91180   0.00000  Uiso   1.00
O952   O     0.56053   0.11432   0.61860   0.00000  Uiso   1.00
C953   C     0.55011   0.06680   0.61864   0.00000  Uiso   1.00
H954   H     0.53262   0.05520   0.58829   0.00000  Uiso   1.00
H955   H     0.53237   0.05829   0.64853   0.00000  Uiso   1.00
H956   H     0.57915   0.04627   0.62079   0.00000  Uiso   1.00
O957   O     0.40199   0.23372   0.95535   0.00000  Uiso   1.00
C958   C     0.36526   0.20947   0.96422   0.00000  Uiso   1.00
H959   H     0.36892   0.17143   0.95962   0.00000  Uiso   1.00
H960   H     0.34069   0.22143   0.94042   0.00000  Uiso   1.00
H961   H     0.35453   0.21701   0.99822   0.00000  Uiso   1.00
O962   O     0.59799   0.09958   0.54465   0.00000  Uiso   1.00
C963   C     0.63472   0.12383   0.53579   0.00000  Uiso   1.00
H964   H     0.65929   0.11186   0.55958   0.00000  Uiso   1.00
H965   H     0.63107   0.16186   0.54040   0.00000  Uiso   1.00
H966   H     0.64546   0.11630   0.50178   0.00000  Uiso   1.00
C967   C     0.38089   0.14752   0.83156   0.00000  Uiso   1.00
H968   H     0.41048   0.12989   0.83037   0.00000  Uiso   1.00
O969   O     0.36947   0.16164   0.86739   0.00000  Uiso   1.00
C970   C     0.61911   0.18580   0.66844   0.00000  Uiso   1.00
H971   H     0.58952   0.20344   0.66963   0.00000  Uiso   1.00
O972   O     0.63053   0.17168   0.63261   0.00000  Uiso   1.00
C973   C     0.62237   0.14589   0.83057   0.00000  Uiso   1.00
H974   H     0.59455   0.16529   0.83765   0.00000  Uiso   1.00
O975   O     0.63283   0.11412   0.85532   0.00000  Uiso   1.00
C976   C     0.37763   0.18744   0.66943   0.00000  Uiso   1.00
H977   H     0.40545   0.16804   0.66235   0.00000  Uiso   1.00
O978   O     0.36717   0.21921   0.64468   0.00000  Uiso   1.00
C979   C     0.44556   0.05010   0.69100   0.00000  Uiso   1.00
H980   H     0.41700   0.06349   0.70400   0.00000  Uiso   1.00
O981   O     0.45180   0.05367   0.65131   0.00000  Uiso   1.00
C982   C     0.55445   0.28323   0.80898   0.00000  Uiso   1.00
H983   H     0.58302   0.26986   0.79597   0.00000  Uiso   1.00
O984   O     0.54824   0.27964   0.84867   0.00000  Uiso   1.00
C985   C     0.55127   0.04847   0.81223   0.00000  Uiso   1.00
H986   H     0.57778   0.06767   0.80150   0.00000  Uiso   1.00
O987   O     0.54486   0.04492   0.85188   0.00000  Uiso   1.00
C988   C     0.44872   0.28486   0.68778   0.00000  Uiso   1.00
H989   H     0.42220   0.26568   0.69852   0.00000  Uiso   1.00
O990   O     0.45513   0.28839   0.64813   0.00000  Uiso   1.00
C991   C     0.75433   0.16662   0.75022   0.00000  Uiso   1.00
C992   C     0.91233   0.16672   0.74978   0.00000  Uiso   1.00
C993   C     0.77114   0.21293   0.52363   0.00000  Uiso   1.00
C994   C     0.89551   0.12038   0.97637   0.00000  Uiso   1.00
C995   C     0.68927   0.15614   0.78992   0.00000  Uiso   1.00
C996   C     0.97739   0.17719   0.71008   0.00000  Uiso   1.00
C997   C     0.97908   0.15663   0.78979   0.00000  Uiso   1.00
C998   C     0.68759   0.17670   0.71021   0.00000  Uiso   1.00
C999   C     0.95710   0.16730   0.74997   0.00000  Uiso   1.00
C1000  C     0.70956   0.16603   0.75003   0.00000  Uiso   1.00
C1001  C     0.80853   0.02510   0.72066   0.00000  Uiso   1.00
C1002  C     0.85814   0.30823   0.77933   0.00000  Uiso   1.00
C1003  C     0.85781   0.02436   0.77963   0.00000  Uiso   1.00
C1004  C     0.80886   0.30897   0.72037   0.00000  Uiso   1.00
C1005  C     0.83428   0.16657   0.66459   0.00000  Uiso   1.00
C1006  C     0.83238   0.16677   0.83541   0.00000  Uiso   1.00
C1007  C     0.86182   0.14243   0.90727   0.00000  Uiso   1.00
C1008  C     0.80484   0.19090   0.59273   0.00000  Uiso   1.00
C1009  C     0.83160   0.16739   0.88369   0.00000  Uiso   1.00
C1010  C     0.83506   0.16595   0.61631   0.00000  Uiso   1.00
C1011  C     0.80210   0.19406   0.90601   0.00000  Uiso   1.00
C1012  C     0.86456   0.13927   0.59399   0.00000  Uiso   1.00
C1013  C     0.80082   0.19166   0.95304   0.00000  Uiso   1.00
C1014  C     0.86584   0.14166   0.54696   0.00000  Uiso   1.00
C1015  C     0.83274   0.16716   0.97660   0.00000  Uiso   1.00
C1016  C     0.83391   0.16616   0.52339   0.00000  Uiso   1.00
C1017  C     0.86338   0.14319   0.95339   0.00000  Uiso   1.00
C1018  C     0.80328   0.19013   0.54661   0.00000  Uiso   1.00
C1019  C     0.76850   0.21231   0.97714   0.00000  Uiso   1.00
C1020  C     0.89815   0.12100   0.52286   0.00000  Uiso   1.00
Cu1021 Cu    0.83333   0.21355   0.75000   0.00000  Uiso   1.00
Cu1022 Cu    0.83333   0.11978   0.75000   0.00000  Uiso   1.00
H1023  H     0.88514   0.12359   0.88952   0.00000  Uiso   1.00
H1024  H     0.78152   0.20974   0.61048   0.00000  Uiso   1.00
H1025  H     0.74765   0.23111   0.54189   0.00000  Uiso   1.00
H1026  H     0.91900   0.10220   0.95811   0.00000  Uiso   1.00
N1027  N     0.83333   0.28402   0.75000   0.00000  Uiso   1.00
N1028  N     0.83333   0.04931   0.75000   0.00000  Uiso   1.00
O1029  O     0.77321   0.20625   0.75000   0.00000  Uiso   1.00
O1030  O     0.89345   0.12709   0.75000   0.00000  Uiso   1.00
O1031  O     0.89345   0.20625   0.75000   0.00000  Uiso   1.00
O1032  O     0.77321   0.12709   0.74999   0.00000  Uiso   1.00
O1033  O     0.83332   0.20627   0.68513   0.00000  Uiso   1.00
O1034  O     0.83334   0.12707   0.81487   0.00000  Uiso   1.00
O1035  O     0.83334   0.20627   0.81487   0.00000  Uiso   1.00
O1036  O     0.83332   0.12707   0.68513   0.00000  Uiso   1.00
O1037  O     0.77280   0.21901   0.88140   0.00000  Uiso   1.00
C1038  C     0.78320   0.26652   0.88138   0.00000  Uiso   1.00
H1039  H     0.75415   0.28705   0.87908   0.00000  Uiso   1.00
H1040  H     0.80106   0.27503   0.85157   0.00000  Uiso   1.00
H1041  H     0.80056   0.27815   0.91180   0.00000  Uiso   1.00
O1042  O     0.89386   0.11432   0.61860   0.00000  Uiso   1.00
C1043  C     0.88345   0.06680   0.61864   0.00000  Uiso   1.00
H1044  H     0.86595   0.05520   0.58829   0.00000  Uiso   1.00
H1045  H     0.86570   0.05829   0.64853   0.00000  Uiso   1.00
H1046  H     0.91249   0.04627   0.62079   0.00000  Uiso   1.00
O1047  O     0.73533   0.23372   0.95535   0.00000  Uiso   1.00
C1048  C     0.69860   0.20947   0.96422   0.00000  Uiso   1.00
H1049  H     0.70225   0.17143   0.95962   0.00000  Uiso   1.00
H1050  H     0.67402   0.22143   0.94042   0.00000  Uiso   1.00
H1051  H     0.68786   0.21701   0.99822   0.00000  Uiso   1.00
O1052  O     0.93132   0.09958   0.54465   0.00000  Uiso   1.00
C1053  C     0.96805   0.12383   0.53579   0.00000  Uiso   1.00
H1054  H     0.99262   0.11186   0.55958   0.00000  Uiso   1.00
H1055  H     0.96440   0.16186   0.54040   0.00000  Uiso   1.00
H1056  H     0.97879   0.11630   0.50178   0.00000  Uiso   1.00
C1057  C     0.71422   0.14752   0.83156   0.00000  Uiso   1.00
H1058  H     0.74382   0.12989   0.83037   0.00000  Uiso   1.00
O1059  O     0.70280   0.16164   0.86739   0.00000  Uiso   1.00
C1060  C     0.95245   0.18580   0.66844   0.00000  Uiso   1.00
H1061  H     0.92285   0.20344   0.66963   0.00000  Uiso   1.00
O1062  O     0.96386   0.17168   0.63261   0.00000  Uiso   1.00
C1063  C     0.95571   0.14589   0.83057   0.00000  Uiso   1.00
H1064  H     0.92788   0.16529   0.83765   0.00000  Uiso   1.00
O1065  O     0.96616   0.11412   0.85532   0.00000  Uiso   1.00
C1066  C     0.71096   0.18744   0.66943   0.00000  Uiso   1.00
H1067  H     0.73879   0.16804   0.66235   0.00000  Uiso   1.00
O1068  O     0.70050   0.21921   0.64468   0.00000  Uiso   1.00
C1069  C     0.77890   0.05010   0.69100   0.00000  Uiso   1.00
H1070  H     0.75033   0.06349   0.70400   0.00000  Uiso   1.00
O1071  O     0.78513   0.05367   0.65131   0.00000  Uiso   1.00
C1072  C     0.88779   0.28323   0.80898   0.00000  Uiso   1.00
H1073  H     0.91635   0.26986   0.79597   0.00000  Uiso   1.00
O1074  O     0.88157   0.27964   0.84867   0.00000  Uiso   1.00
C1075  C     0.88461   0.04847   0.81223   0.00000  Uiso   1.00
H1076  H     0.91112   0.06767   0.80150   0.00000  Uiso   1.00
O1077  O     0.87819   0.04492   0.85188   0.00000  Uiso   1.00
C1078  C     0.78205   0.28486   0.68778   0.00000  Uiso   1.00
H1079  H     0.75553   0.26568   0.69852   0.00000  Uiso   1.00
O1080  O     0.78847   0.28839   0.64813   0.00000  Uiso   1.00
C1081  C     0.08767   0.49995   0.75022   0.00000  Uiso   1.00
C1082  C     0.24567   0.50005   0.74978   0.00000  Uiso   1.00
C1083  C     0.10447   0.54627   0.52363   0.00000  Uiso   1.00
C1084  C     0.22885   0.45371   0.97637   0.00000  Uiso   1.00
C1085  C     0.02261   0.48947   0.78992   0.00000  Uiso   1.00
C1086  C     0.31072   0.51053   0.71008   0.00000  Uiso   1.00
C1087  C     0.31241   0.48996   0.78979   0.00000  Uiso   1.00
C1088  C     0.02092   0.51004   0.71021   0.00000  Uiso   1.00
C1089  C     0.29044   0.50063   0.74997   0.00000  Uiso   1.00
C1090  C     0.04290   0.49937   0.75003   0.00000  Uiso   1.00
C1091  C     0.14186   0.35844   0.72066   0.00000  Uiso   1.00
C1092  C     0.19147   0.64156   0.77933   0.00000  Uiso   1.00
C1093  C     0.19114   0.35770   0.77963   0.00000  Uiso   1.00
C1094  C     0.14219   0.64230   0.72037   0.00000  Uiso   1.00
C1095  C     0.16762   0.49990   0.66459   0.00000  Uiso   1.00
C1096  C     0.16571   0.50010   0.83541   0.00000  Uiso   1.00
C1097  C     0.19516   0.47576   0.90727   0.00000  Uiso   1.00
C1098  C     0.13817   0.52423   0.59273   0.00000  Uiso   1.00
C1099  C     0.16493   0.50072   0.88369   0.00000  Uiso   1.00
C1100  C     0.16840   0.49928   0.61631   0.00000  Uiso   1.00
C1101  C     0.13544   0.52739   0.90601   0.00000  Uiso   1.00
C1102  C     0.19789   0.47260   0.59399   0.00000  Uiso   1.00
C1103  C     0.13415   0.52500   0.95304   0.00000  Uiso   1.00
C1104  C     0.19917   0.47499   0.54696   0.00000  Uiso   1.00
C1105  C     0.16608   0.50050   0.97660   0.00000  Uiso   1.00
C1106  C     0.16725   0.49949   0.52339   0.00000  Uiso   1.00
C1107  C     0.19671   0.47652   0.95339   0.00000  Uiso   1.00
C1108  C     0.13661   0.52347   0.54661   0.00000  Uiso   1.00
C1109  C     0.10184   0.54565   0.97714   0.00000  Uiso   1.00
C1110  C     0.23148   0.45433   0.52286   0.00000  Uiso   1.00
Cu1111 Cu    0.16667   0.54689   0.75000   0.00000  Uiso   1.00
Cu1112 Cu    0.16667   0.45311   0.75000   0.00000  Uiso   1.00
H1113  H     0.21848   0.45692   0.88952   0.00000  Uiso   1.00
H1114  H     0.11485   0.54307   0.61048   0.00000  Uiso   1.00
H1115  H     0.08098   0.56445   0.54189   0.00000  Uiso   1.00
H1116  H     0.25234   0.43553   0.95811   0.00000  Uiso   1.00
N1117  N     0.16667   0.61736   0.75000   0.00000  Uiso   1.00
N1118  N     0.16667   0.38264   0.75000   0.00000  Uiso   1.00
O1119  O     0.10655   0.53958   0.75000   0.00000  Uiso   1.00
O1120  O     0.22679   0.46042   0.75000   0.00000  Uiso   1.00
O1121  O     0.22679   0.53958   0.75000   0.00000  Uiso   1.00
O1122  O     0.10655   0.46042   0.74999   0.00000  Uiso   1.00
O1123  O     0.16666   0.53960   0.68513   0.00000  Uiso   1.00
O1124  O     0.16668   0.46040   0.81487   0.00000  Uiso   1.00
O1125  O     0.16668   0.53960   0.81487   0.00000  Uiso   1.00
O1126  O     0.16666   0.46040   0.68513   0.00000  Uiso   1.00
O1127  O     0.10613   0.55234   0.88140   0.00000  Uiso   1.00
C1128  C     0.11653   0.59986   0.88138   0.00000  Uiso   1.00
H1129  H     0.08749   0.62038   0.87908   0.00000  Uiso   1.00
H1130  H     0.13440   0.60836   0.85157   0.00000  Uiso   1.00
H1131  H     0.13390   0.61148   0.91180   0.00000  Uiso   1.00
O1132  O     0.22719   0.44765   0.61860   0.00000  Uiso   1.00
C1133  C     0.21678   0.40014   0.61864   0.00000  Uiso   1.00
H1134  H     0.19929   0.38854   0.58829   0.00000  Uiso   1.00
H1135  H     0.19903   0.39162   0.64853   0.00000  Uiso   1.00
H1136  H     0.24582   0.37960   0.62079   0.00000  Uiso   1.00
O1137  O     0.06866   0.56705   0.95535   0.00000  Uiso   1.00
C1138  C     0.03193   0.54280   0.96422   0.00000  Uiso   1.00
H1139  H     0.03559   0.50477   0.95962   0.00000  Uiso   1.00
H1140  H     0.00736   0.55477   0.94042   0.00000  Uiso   1.00
H1141  H     0.02119   0.55034   0.99822   0.00000  Uiso   1.00
O1142  O     0.26465   0.43292   0.54465   0.00000  Uiso   1.00
C1143  C     0.30139   0.45717   0.53579   0.00000  Uiso   1.00
H1144  H     0.32596   0.44519   0.55958   0.00000  Uiso   1.00
H1145  H     0.29773   0.49520   0.54040   0.00000  Uiso   1.00
H1146  H     0.31212   0.44963   0.50178   0.00000  Uiso   1.00
C1147  C     0.04755   0.48086   0.83156   0.00000  Uiso   1.00
H1148  H     0.07715   0.46323   0.83037   0.00000  Uiso   1.00
O1149  O     0.03613   0.49498   0.86739   0.00000  Uiso   1.00
C1150  C     0.28578   0.51914   0.66844   0.00000  Uiso   1.00
H1151  H     0.25618   0.53677   0.66963   0.00000  Uiso   1.00
O1152  O     0.29720   0.50501   0.63261   0.00000  Uiso   1.00
C1153  C     0.28904   0.47922   0.83057   0.00000  Uiso   1.00
H1154  H     0.26121   0.49863   0.83765   0.00000  Uiso   1.00
O1155  O     0.29950   0.44745   0.85532   0.00000  Uiso   1.00
C1156  C     0.04429   0.52078   0.66943   0.00000  Uiso   1.00
H1157  H     0.07212   0.50138   0.66235   0.00000  Uiso   1.00
O1158  O     0.03383   0.55255   0.64468   0.00000  Uiso   1.00
C1159  C     0.11223   0.38344   0.69100   0.00000  Uiso   1.00
H1160  H     0.08367   0.39682   0.70400   0.00000  Uiso   1.00
O1161  O     0.11846   0.38701   0.65131   0.00000  Uiso   1.00
C1162  C     0.22112   0.61657   0.80898   0.00000  Uiso   1.00
H1163  H     0.24969   0.60320   0.79597   0.00000  Uiso   1.00
O1164  O     0.21490   0.61298   0.84867   0.00000  Uiso   1.00
C1165  C     0.21794   0.38181   0.81223   0.00000  Uiso   1.00
H1166  H     0.24445   0.40100   0.80150   0.00000  Uiso   1.00
O1167  O     0.21153   0.37826   0.85188   0.00000  Uiso   1.00
C1168  C     0.11539   0.61819   0.68778   0.00000  Uiso   1.00
H1169  H     0.08887   0.59901   0.69852   0.00000  Uiso   1.00
O1170  O     0.12180   0.62173   0.64813   0.00000  Uiso   1.00
C1171  C     0.42100   0.49995   0.75022   0.00000  Uiso   1.00
C1172  C     0.57900   0.50005   0.74978   0.00000  Uiso   1.00
C1173  C     0.43781   0.54627   0.52363   0.00000  Uiso   1.00
C1174  C     0.56218   0.45371   0.97637   0.00000  Uiso   1.00
C1175  C     0.35594   0.48947   0.78992   0.00000  Uiso   1.00
C1176  C     0.64406   0.51053   0.71008   0.00000  Uiso   1.00
C1177  C     0.64575   0.48996   0.78979   0.00000  Uiso   1.00
C1178  C     0.35425   0.51004   0.71021   0.00000  Uiso   1.00
C1179  C     0.62377   0.50063   0.74997   0.00000  Uiso   1.00
C1180  C     0.37623   0.49937   0.75003   0.00000  Uiso   1.00
C1181  C     0.47520   0.35844   0.72066   0.00000  Uiso   1.00
C1182  C     0.52481   0.64156   0.77933   0.00000  Uiso   1.00
C1183  C     0.52448   0.35770   0.77963   0.00000  Uiso   1.00
C1184  C     0.47552   0.64230   0.72037   0.00000  Uiso   1.00
C1185  C     0.50095   0.49990   0.66459   0.00000  Uiso   1.00
C1186  C     0.49905   0.50010   0.83541   0.00000  Uiso   1.00
C1187  C     0.52849   0.47576   0.90727   0.00000  Uiso   1.00
C1188  C     0.47150   0.52423   0.59273   0.00000  Uiso   1.00
C1189  C     0.49827   0.50072   0.88369   0.00000  Uiso   1.00
C1190  C     0.50173   0.49928   0.61631   0.00000  Uiso   1.00
C1191  C     0.46877   0.52739   0.90601   0.00000  Uiso   1.00
C1192  C     0.53122   0.47260   0.59399   0.00000  Uiso   1.00
C1193  C     0.46748   0.52500   0.95304   0.00000  Uiso   1.00
C1194  C     0.53251   0.47499   0.54696   0.00000  Uiso   1.00
C1195  C     0.49941   0.50050   0.97660   0.00000  Uiso   1.00
C1196  C     0.50058   0.49949   0.52339   0.00000  Uiso   1.00
C1197  C     0.53004   0.47652   0.95339   0.00000  Uiso   1.00
C1198  C     0.46995   0.52347   0.54661   0.00000  Uiso   1.00
C1199  C     0.43517   0.54565   0.97714   0.00000  Uiso   1.00
C1200  C     0.56481   0.45433   0.52286   0.00000  Uiso   1.00
Cu1201 Cu    0.50000   0.54689   0.75000   0.00000  Uiso   1.00
Cu1202 Cu    0.50000   0.45311   0.75000   0.00000  Uiso   1.00
H1203  H     0.55181   0.45692   0.88952   0.00000  Uiso   1.00
H1204  H     0.44818   0.54307   0.61048   0.00000  Uiso   1.00
H1205  H     0.41432   0.56445   0.54189   0.00000  Uiso   1.00
H1206  H     0.58567   0.43553   0.95811   0.00000  Uiso   1.00
N1207  N     0.50000   0.61736   0.75000   0.00000  Uiso   1.00
N1208  N     0.50000   0.38264   0.75000   0.00000  Uiso   1.00
O1209  O     0.43988   0.53958   0.75000   0.00000  Uiso   1.00
O1210  O     0.56012   0.46042   0.75000   0.00000  Uiso   1.00
O1211  O     0.56012   0.53958   0.75000   0.00000  Uiso   1.00
O1212  O     0.43988   0.46042   0.74999   0.00000  Uiso   1.00
O1213  O     0.49999   0.53960   0.68513   0.00000  Uiso   1.00
O1214  O     0.50001   0.46040   0.81487   0.00000  Uiso   1.00
O1215  O     0.50001   0.53960   0.81487   0.00000  Uiso   1.00
O1216  O     0.49999   0.46040   0.68513   0.00000  Uiso   1.00
O1217  O     0.43946   0.55234   0.88140   0.00000  Uiso   1.00
C1218  C     0.44986   0.59986   0.88138   0.00000  Uiso   1.00
H1219  H     0.42082   0.62038   0.87908   0.00000  Uiso   1.00
H1220  H     0.46773   0.60836   0.85157   0.00000  Uiso   1.00
H1221  H     0.46723   0.61148   0.91180   0.00000  Uiso   1.00
O1222  O     0.56053   0.44765   0.61860   0.00000  Uiso   1.00
C1223  C     0.55011   0.40014   0.61864   0.00000  Uiso   1.00
H1224  H     0.53262   0.38854   0.58829   0.00000  Uiso   1.00
H1225  H     0.53237   0.39162   0.64853   0.00000  Uiso   1.00
H1226  H     0.57915   0.37960   0.62079   0.00000  Uiso   1.00
O1227  O     0.40199   0.56705   0.95535   0.00000  Uiso   1.00
C1228  C     0.36526   0.54280   0.96422   0.00000  Uiso   1.00
H1229  H     0.36892   0.50477   0.95962   0.00000  Uiso   1.00
H1230  H     0.34069   0.55477   0.94042   0.00000  Uiso   1.00
H1231  H     0.35453   0.55034   0.99822   0.00000  Uiso   1.00
O1232  O     0.59799   0.43292   0.54465   0.00000  Uiso   1.00
C1233  C     0.63472   0.45717   0.53579   0.00000  Uiso   1.00
H1234  H     0.65929   0.44519   0.55958   0.00000  Uiso   1.00
H1235  H     0.63107   0.49520   0.54040   0.00000  Uiso   1.00
H1236  H     0.64546   0.44963   0.50178   0.00000  Uiso   1.00
C1237  C     0.38089   0.48086   0.83156   0.00000  Uiso   1.00
H1238  H     0.41048   0.46323   0.83037   0.00000  Uiso   1.00
O1239  O     0.36947   0.49498   0.86739   0.00000  Uiso   1.00
C1240  C     0.61911   0.51914   0.66844   0.00000  Uiso   1.00
H1241  H     0.58952   0.53677   0.66963   0.00000  Uiso   1.00
O1242  O     0.63053   0.50501   0.63261   0.00000  Uiso   1.00
C1243  C     0.62237   0.47922   0.83057   0.00000  Uiso   1.00
H1244  H     0.59455   0.49863   0.83765   0.00000  Uiso   1.00
O1245  O     0.63283   0.44745   0.85532   0.00000  Uiso   1.00
C1246  C     0.37763   0.52078   0.66943   0.00000  Uiso   1.00
H1247  H     0.40545   0.50138   0.66235   0.00000  Uiso   1.00
O1248  O     0.36717   0.55255   0.64468   0.00000  Uiso   1.00
C1249  C     0.44556   0.38344   0.69100   0.00000  Uiso   1.00
H1250  H     0.41700   0.39682   0.70400   0.00000  Uiso   1.00
O1251  O     0.45180   0.38701   0.65131   0.00000  Uiso   1.00
C1252  C     0.55445   0.61657   0.80898   0.00000  Uiso   1.00
H1253  H     0.58302   0.60320   0.79597   0.00000  Uiso   1.00
O1254  O     0.54824   0.61298   0.84867   0.00000  Uiso   1.00
C1255  C     0.55127   0.38181   0.81223   0.00000  Uiso   1.00
H1256  H     0.57778   0.40100   0.80150   0.00000  Uiso   1.00
O1257  O     0.54486   0.37826   0.85188   0.00000  Uiso   1.00
C1258  C     0.44872   0.61819   0.68778   0.00000  Uiso   1.00
H1259  H     0.42220   0.59901   0.69852   0.00000  Uiso   1.00
O1260  O     0.45513   0.62173   0.64813   0.00000  Uiso   1.00
C1261  C     0.75433   0.49995   0.75022   0.00000  Uiso   1.00
C1262  C     0.91233   0.50005   0.74978   0.00000  Uiso   1.00
C1263  C     0.77114   0.54627   0.52363   0.00000  Uiso   1.00
C1264  C     0.89551   0.45371   0.97637   0.00000  Uiso   1.00
C1265  C     0.68927   0.48947   0.78992   0.00000  Uiso   1.00
C1266  C     0.97739   0.51053   0.71008   0.00000  Uiso   1.00
C1267  C     0.97908   0.48996   0.78979   0.00000  Uiso   1.00
C1268  C     0.68759   0.51004   0.71021   0.00000  Uiso   1.00
C1269  C     0.95710   0.50063   0.74997   0.00000  Uiso   1.00
C1270  C     0.70956   0.49937   0.75003   0.00000  Uiso   1.00
C1271  C     0.80853   0.35844   0.72066   0.00000  Uiso   1.00
C1272  C     0.85814   0.64156   0.77933   0.00000  Uiso   1.00
C1273  C     0.85781   0.35770   0.77963   0.00000  Uiso   1.00
C1274  C     0.80886   0.64230   0.72037   0.00000  Uiso   1.00
C1275  C     0.83428   0.49990   0.66459   0.00000  Uiso   1.00
C1276  C     0.83238   0.50010   0.83541   0.00000  Uiso   1.00
C1277  C     0.86182   0.47576   0.90727   0.00000  Uiso   1.00
C1278  C     0.80484   0.52423   0.59273   0.00000  Uiso   1.00
C1279  C     0.83160   0.50072   0.88369   0.00000  Uiso   1.00
C1280  C     0.83506   0.49928   0.61631   0.00000  Uiso   1.00
C1281  C     0.80210   0.52739   0.90601   0.00000  Uiso   1.00
C1282  C     0.86456   0.47260   0.59399   0.00000  Uiso   1.00
C1283  C     0.80082   0.52500   0.95304   0.00000  Uiso   1.00
C1284  C     0.86584   0.47499   0.54696   0.00000  Uiso   1.00
C1285  C     0.83274   0.50050   0.97660   0.00000  Uiso   1.00
C1286  C     0.83391   0.49949   0.52339   0.00000  Uiso   1.00
C1287  C     0.86338   0.47652   0.95339   0.00000  Uiso   1.00
C1288  C     0.80328   0.52347   0.54661   0.00000  Uiso   1.00
C1289  C     0.76850   0.54565   0.97714   0.00000  Uiso   1.00
C1290  C     0.89815   0.45433   0.52286   0.00000  Uiso   1.00
Cu1291 Cu    0.83333   0.54689   0.75000   0.00000  Uiso   1.00
Cu1292 Cu    0.83333   0.45311   0.75000   0.00000  Uiso   1.00
H1293  H     0.88514   0.45692   0.88952   0.00000  Uiso   1.00
H1294  H     0.78152   0.54307   0.61048   0.00000  Uiso   1.00
H1295  H     0.74765   0.56445   0.54189   0.00000  Uiso   1.00
H1296  H     0.91900   0.43553   0.95811   0.00000  Uiso   1.00
N1297  N     0.83333   0.61736   0.75000   0.00000  Uiso   1.00
N1298  N     0.83333   0.38264   0.75000   0.00000  Uiso   1.00
O1299  O     0.77321   0.53958   0.75000   0.00000  Uiso   1.00
O1300  O     0.89345   0.46042   0.75000   0.00000  Uiso   1.00
O1301  O     0.89345   0.53958   0.75000   0.00000  Uiso   1.00
O1302  O     0.77321   0.46042   0.74999   0.00000  Uiso   1.00
O1303  O     0.83332   0.53960   0.68513   0.00000  Uiso   1.00
O1304  O     0.83334   0.46040   0.81487   0.00000  Uiso   1.00
O1305  O     0.83334   0.53960   0.81487   0.00000  Uiso   1.00
O1306  O     0.83332   0.46040   0.68513   0.00000  Uiso   1.00
O1307  O     0.77280   0.55234   0.88140   0.00000  Uiso   1.00
C1308  C     0.78320   0.59986   0.88138   0.00000  Uiso   1.00
H1309  H     0.75415   0.62038   0.87908   0.00000  Uiso   1.00
H1310  H     0.80106   0.60836   0.85157   0.00000  Uiso   1.00
H1311  H     0.80056   0.61148   0.91180   0.00000  Uiso   1.00
O1312  O     0.89386   0.44765   0.61860   0.00000  Uiso   1.00
C1313  C     0.88345   0.40014   0.61864   0.00000  Uiso   1.00
H1314  H     0.86595   0.38854   0.58829   0.00000  Uiso   1.00
H1315  H     0.86570   0.39162   0.64853   0.00000  Uiso   1.00
H1316  H     0.91249   0.37960   0.62079   0.00000  Uiso   1.00
O1317  O     0.73533   0.56705   0.95535   0.00000  Uiso   1.00
C1318  C     0.69860   0.54280   0.96422   0.00000  Uiso   1.00
H1319  H     0.70225   0.50477   0.95962   0.00000  Uiso   1.00
H1320  H     0.67402   0.55477   0.94042   0.00000  Uiso   1.00
H1321  H     0.68786   0.55034   0.99822   0.00000  Uiso   1.00
O1322  O     0.93132   0.43292   0.54465   0.00000  Uiso   1.00
C1323  C     0.96805   0.45717   0.53579   0.00000  Uiso   1.00
H1324  H     0.99262   0.44519   0.55958   0.00000  Uiso   1.00
H1325  H     0.96440   0.49520   0.54040   0.00000  Uiso   1.00
H1326  H     0.97879   0.44963   0.50178   0.00000  Uiso   1.00
C1327  C     0.71422   0.48086   0.83156   0.00000  Uiso   1.00
H1328  H     0.74382   0.46323   0.83037   0.00000  Uiso   1.00
O1329  O     0.70280   0.49498   0.86739   0.00000  Uiso   1.00
C1330  C     0.95245   0.51914   0.66844   0.00000  Uiso   1.00
H1331  H     0.92285   0.53677   0.66963   0.00000  Uiso   1.00
O1332  O     0.96386   0.50501   0.63261   0.00000  Uiso   1.00
C1333  C     0.95571   0.47922   0.83057   0.00000  Uiso   1.00
H1334  H     0.92788   0.49863   0.83765   0.00000  Uiso   1.00
O1335  O     0.96616   0.44745   0.85532   0.00000  Uiso   1.00
C1336  C     0.71096   0.52078   0.66943   0.00000  Uiso   1.00
H1337  H     0.73879   0.50138   0.66235   0.00000  Uiso   1.00
O1338  O     0.70050   0.55255   0.64468   0.00000  Uiso   1.00
C1339  C     0.77890   0.38344   0.69100   0.00000  Uiso   1.00
H1340  H     0.75033   0.39682   0.70400   0.00000  Uiso   1.00
O1341  O     0.78513   0.38701   0.65131   0.00000  Uiso   1.00
C1342  C     0.88779   0.61657   0.80898   0.00000  Uiso   1.00
H1343  H     0.91635   0.60320   0.79597   0.00000  Uiso   1.00
O1344  O     0.88157   0.61298   0.84867   0.00000  Uiso   1.00
C1345  C     0.88461   0.38181   0.81223   0.00000  Uiso   1.00
H1346  H     0.91112   0.40100   0.80150   0.00000  Uiso   1.00
O1347  O     0.87819   0.37826   0.85188   0.00000  Uiso   1.00
C1348  C     0.78205   0.61819   0.68778   0.00000  Uiso   1.00
H1349  H     0.75553   0.59901   0.69852   0.00000  Uiso   1.00
O1350  O     0.78847   0.62173   0.64813   0.00000  Uiso   1.00
C1351  C     0.08767   0.83328   0.75022   0.00000  Uiso   1.00
C1352  C     0.24567   0.83338   0.74978   0.00000  Uiso   1.00
C1353  C     0.10447   0.87960   0.52363   0.00000  Uiso   1.00
C1354  C     0.22885   0.78705   0.97637   0.00000  Uiso   1.00
C1355  C     0.02261   0.82280   0.78992   0.00000  Uiso   1.00
C1356  C     0.31072   0.84386   0.71008   0.00000  Uiso   1.00
C1357  C     0.31241   0.82330   0.78979   0.00000  Uiso   1.00
C1358  C     0.02092   0.84337   0.71021   0.00000  Uiso   1.00
C1359  C     0.29044   0.83397   0.74997   0.00000  Uiso   1.00
C1360  C     0.04290   0.83270   0.75003   0.00000  Uiso   1.00
C1361  C     0.14186   0.69177   0.72066   0.00000  Uiso   1.00
C1362  C     0.19147   0.97490   0.77933   0.00000  Uiso   1.00
C1363  C     0.19114   0.69103   0.77963   0.00000  Uiso   1.00
C1364  C     0.14219   0.97564   0.72037   0.00000  Uiso   1.00
C1365  C     0.16762   0.83323   0.66459   0.00000  Uiso   1.00
C1366  C     0.16571   0.83343   0.83541   0.00000  Uiso   1.00
C1367  C     0.19516   0.80910   0.90727   0.00000  Uiso   1.00
C1368  C     0.13817   0.85756   0.59273   0.00000  Uiso   1.00
C1369  C     0.16493   0.83405   0.88369   0.00000  Uiso   1.00
C1370  C     0.16840   0.83261   0.61631   0.00000  Uiso   1.00
C1371  C     0.13544   0.86073   0.90601   0.00000  Uiso   1.00
C1372  C     0.19789   0.80594   0.59399   0.00000  Uiso   1.00
C1373  C     0.13415   0.85833   0.95304   0.00000  Uiso   1.00
C1374  C     0.19917   0.80833   0.54696   0.00000  Uiso   1.00
C1375  C     0.16608   0.83383   0.97660   0.00000  Uiso   1.00
C1376  C     0.16725   0.83283   0.52339   0.00000  Uiso   1.00
C1377  C     0.19671   0.80985   0.95339   0.00000  Uiso   1.00
C1378  C     0.13661   0.85680   0.54661   0.00000  Uiso   1.00
C1379  C     0.10184   0.87898   0.97714   0.00000  Uiso   1.00
C1380  C     0.23148   0.78767   0.52286   0.00000  Uiso   1.00
Cu1381 Cu    0.16667   0.88022   0.75000   0.00000  Uiso   1.00
Cu1382 Cu    0.16667   0.78645   0.75000   0.00000  Uiso   1.00
H1383  H     0.21848   0.79026   0.88952   0.00000  Uiso   1.00
H1384  H     0.11485   0.87641   0.61048   0.00000  Uiso   1.00
H1385  H     0.08098   0.89778   0.54189   0.00000  Uiso   1.00
H1386  H     0.25234   0.76887   0.95811   0.00000  Uiso   1.00
N1387  N     0.16667   0.95069   0.75000   0.00000  Uiso   1.00
N1388  N     0.16667   0.71598   0.75000   0.00000  Uiso   1.00
O1389  O     0.10655   0.87291   0.75000   0.00000  Uiso   1.00
O1390  O     0.22679   0.79375   0.75000   0.00000  Uiso   1.00
O1391  O     0.22679   0.87291   0.75000   0.00000  Uiso   1.00
O1392  O     0.10655   0.79375   0.74999   0.00000  Uiso   1.00
O1393  O     0.16666   0.87293   0.68513   0.00000  Uiso   1.00
O1394  O     0.16668   0.79373   0.81487   0.00000  Uiso   1.00
O1395  O     0.16668   0.87293   0.81487   0.00000  Uiso   1.00
O1396  O     0.16666   0.79373   0.68513   0.00000  Uiso   1.00
O1397  O     0.10613   0.88567   0.88140   0.00000  Uiso   1.00
C1398  C     0.11653   0.93319   0.88138   0.00000  Uiso   1.00
H1399  H     0.08749   0.95371   0.87908   0.00000  Uiso   1.00
H1400  H     0.13440   0.94169   0.85157   0.00000  Uiso   1.00
H1401  H     0.13390   0.94481   0.91180   0.00000  Uiso   1.00
O1402  O     0.22719   0.78098   0.61860   0.00000  Uiso   1.00
C1403  C     0.21678   0.73347   0.61864   0.00000  Uiso   1.00
H1404  H     0.19929   0.72187   0.58829   0.00000  Uiso   1.00
H1405  H     0.19903   0.72496   0.64853   0.00000  Uiso   1.00
H1406  H     0.24582   0.71293   0.62079   0.00000  Uiso   1.00
O1407  O     0.06866   0.90039   0.95535   0.00000  Uiso   1.00
C1408  C     0.03193   0.87613   0.96422   0.00000  Uiso   1.00
H1409  H     0.03559   0.83810   0.95962   0.00000  Uiso   1.00
H1410  H     0.00736   0.88810   0.94042   0.00000  Uiso   1.00
H1411  H     0.02119   0.88367   0.99822   0.00000  Uiso   1.00
O1412  O     0.26465   0.76625   0.54465   0.00000  Uiso   1.00
C1413  C     0.30139   0.79050   0.53579   0.00000  Uiso   1.00
H1414  H     0.32596   0.77852   0.55958   0.00000  Uiso   1.00
H1415  H     0.29773   0.82853   0.54040   0.00000  Uiso   1.00
H1416  H     0.31212   0.78297   0.50178   0.00000  Uiso   1.00
C1417  C     0.04755   0.81419   0.83156   0.00000  Uiso   1.00
H1418  H     0.07715   0.79656   0.83037   0.00000  Uiso   1.00
O1419  O     0.03613   0.82831   0.86739   0.00000  Uiso   1.00
C1420  C     0.28578   0.85247   0.66844   0.00000  Uiso   1.00
H1421  H     0.25618   0.87010   0.66963   0.00000  Uiso   1.00
O1422  O     0.29720   0.83835   0.63261   0.00000  Uiso   1.00
C1423  C     0.28904   0.81256   0.83057   0.00000  Uiso   1.00
H1424  H     0.26121   0.83196   0.83765   0.00000  Uiso   1.00
O1425  O     0.29950   0.78079   0.85532   0.00000  Uiso   1.00
C1426  C     0.04429   0.85411   0.66943   0.00000  Uiso   1.00
H1427  H     0.07212   0.83471   0.66235   0.00000  Uiso   1.00
O1428  O     0.03383   0.88588   0.64468   0.00000  Uiso   1.00
C1429  C     0.11223   0.71677   0.69100   0.00000  Uiso   1.00
H1430  H     0.08367   0.73015   0.70400   0.00000  Uiso   1.00
O1431  O     0.11846   0.72034   0.65131   0.00000  Uiso   1.00
C1432  C     0.22112   0.94990   0.80898   0.00000  Uiso   1.00
H1433  H     0.24969   0.93653   0.79597   0.00000  Uiso   1.00
O1434  O     0.21490   0.94631   0.84867   0.00000  Uiso   1.00
C1435  C     0.21794   0.71514   0.81223   0.00000  Uiso   1.00
H1436  H     0.24445   0.73434   0.80150   0.00000  Uiso   1.00
O1437  O     0.21153   0.71159   0.85188   0.00000  Uiso   1.00
C1438  C     0.11539   0.95153   0.68778   0.00000  Uiso   1.00
H1439  H     0.08887   0.93235   0.69852   0.00000  Uiso   1.00
O1440  O     0.12180   0.95506   0.64813   0.00000  Uiso   1.00
C1441  C     0.42100   0.83328   0.75022   0.00000  Uiso   1.00
C1442  C     0.57900   0.83338   0.74978   0.00000  Uiso   1.00
C1443  C     0.43781   0.87960   0.52363   0.00000  Uiso   1.00
C1444  C     0.56218   0.78705   0.97637   0.00000  Uiso   1.00
C1445  C     0.35594   0.82280   0.78992   0.00000  Uiso   1.00
C1446  C     0.64406   0.84386   0.71008   0.00000  Uiso   1.00
C1447  C     0.64575   0.82330   0.78979   0.00000  Uiso   1.00
C1448  C     0.35425   0.84337   0.71021   0.00000  Uiso   1.00
C1449  C     0.62377   0.83397   0.74997   0.00000  Uiso   1.00
C1450  C     0.37623   0.83270   0.75003   0.00000  Uiso   1.00
C1451  C     0.47520   0.69177   0.72066   0.00000  Uiso   1.00
C1452  C     0.52481   0.97490   0.77933   0.00000  Uiso   1.00
C1453  C     0.52448   0.69103   0.77963   0.00000  Uiso   1.00
C1454  C     0.47552   0.97564   0.72037   0.00000  Uiso   1.00
C1455  C     0.50095   0.83323   0.66459   0.00000  Uiso   1.00
C1456  C     0.49905   0.83343   0.83541   0.00000  Uiso   1.00
C1457  C     0.52849   0.80910   0.90727   0.00000  Uiso   1.00
C1458  C     0.47150   0.85756   0.59273   0.00000  Uiso   1.00
C1459  C     0.49827   0.83405   0.88369   0.00000  Uiso   1.00
C1460  C     0.50173   0.83261   0.61631   0.00000  Uiso   1.00
C1461  C     0.46877   0.86073   0.90601   0.00000  Uiso   1.00
C1462  C     0.53122   0.80594   0.59399   0.00000  Uiso   1.00
C1463  C     0.46748   0.85833   0.95304   0.00000  Uiso   1.00
C1464  C     0.53251   0.80833   0.54696   0.00000  Uiso   1.00
C1465  C     0.49941   0.83383   0.97660   0.00000  Uiso   1.00
C1466  C     0.50058   0.83283   0.52339   0.00000  Uiso   1.00
C1467  C     0.53004   0.80985   0.95339   0.00000  Uiso   1.00
C1468  C     0.46995   0.85680   0.54661   0.00000  Uiso   1.00
C1469  C     0.43517   0.87898   0.97714   0.00000  Uiso   1.00
C1470  C     0.56481   0.78767   0.52286   0.00000  Uiso   1.00
Cu1471 Cu    0.50000   0.88022   0.75000   0.00000  Uiso   1.00
Cu1472 Cu    0.50000   0.78645   0.75000   0.00000  Uiso   1.00
H1473  H     0.55181   0.79026   0.88952   0.00000  Uiso   1.00
H1474  H     0.44818   0.87641   0.61048   0.00000  Uiso   1.00
H1475  H     0.41432   0.89778   0.54189   0.00000  Uiso   1.00
H1476  H     0.58567   0.76887   0.95811   0.00000  Uiso   1.00
N1477  N     0.50000   0.95069   0.75000   0.00000  Uiso   1.00
N1478  N     0.50000   0.71598   0.75000   0.00000  Uiso   1.00
O1479  O     0.43988   0.87291   0.75000   0.00000  Uiso   1.00
O1480  O     0.56012   0.79375   0.75000   0.00000  Uiso   1.00
O1481  O     0.56012   0.87291   0.75000   0.00000  Uiso   1.00
O1482  O     0.43988   0.79375   0.74999   0.00000  Uiso   1.00
O1483  O     0.49999   0.87293   0.68513   0.00000  Uiso   1.00
O1484  O     0.50001   0.79373   0.81487   0.00000  Uiso   1.00
O1485  O     0.50001   0.87293   0.81487   0.00000  Uiso   1.00
O1486  O     0.49999   0.79373   0.68513   0.00000  Uiso   1.00
O1487  O     0.43946   0.88567   0.88140   0.00000  Uiso   1.00
C1488  C     0.44986   0.93319   0.88138   0.00000  Uiso   1.00
H1489  H     0.42082   0.95371   0.87908   0.00000  Uiso   1.00
H1490  H     0.46773   0.94169   0.85157   0.00000  Uiso   1.00
H1491  H     0.46723   0.94481   0.91180   0.00000  Uiso   1.00
O1492  O     0.56053   0.78098   0.61860   0.00000  Uiso   1.00
C1493  C     0.55011   0.73347   0.61864   0.00000  Uiso   1.00
H1494  H     0.53262   0.72187   0.58829   0.00000  Uiso   1.00
H1495  H     0.53237   0.72496   0.64853   0.00000  Uiso   1.00
H1496  H     0.57915   0.71293   0.62079   0.00000  Uiso   1.00
O1497  O     0.40199   0.90039   0.95535   0.00000  Uiso   1.00
C1498  C     0.36526   0.87613   0.96422   0.00000  Uiso   1.00
H1499  H     0.36892   0.83810   0.95962   0.00000  Uiso   1.00
H1500  H     0.34069   0.88810   0.94042   0.00000  Uiso   1.00
H1501  H     0.35453   0.88367   0.99822   0.00000  Uiso   1.00
O1502  O     0.59799   0.76625   0.54465   0.00000  Uiso   1.00
C1503  C     0.63472   0.79050   0.53579   0.00000  Uiso   1.00
H1504  H     0.65929   0.77852   0.55958   0.00000  Uiso   1.00
H1505  H     0.63107   0.82853   0.54040   0.00000  Uiso   1.00
H1506  H     0.64546   0.78297   0.50178   0.00000  Uiso   1.00
C1507  C     0.38089   0.81419   0.83156   0.00000  Uiso   1.00
H1508  H     0.41048   0.79656   0.83037   0.00000  Uiso   1.00
O1509  O     0.36947   0.82831   0.86739   0.00000  Uiso   1.00
C1510  C     0.61911   0.85247   0.66844   0.00000  Uiso   1.00
H1511  H     0.58952   0.87010   0.66963   0.00000  Uiso   1.00
O1512  O     0.63053   0.83835   0.63261   0.00000  Uiso   1.00
C1513  C     0.62237   0.81256   0.83057   0.00000  Uiso   1.00
H1514  H     0.59455   0.83196   0.83765   0.00000  Uiso   1.00
O1515  O     0.63283   0.78079   0.85532   0.00000  Uiso   1.00
C1516  C     0.37763   0.85411   0.66943   0.00000  Uiso   1.00
H1517  H     0.40545   0.83471   0.66235   0.00000  Uiso   1.00
O1518  O     0.36717   0.88588   0.64468   0.00000  Uiso   1.00
C1519  C     0.44556   0.71677   0.69100   0.00000  Uiso   1.00
H1520  H     0.41700   0.73015   0.70400   0.00000  Uiso   1.00
O1521  O     0.45180   0.72034   0.65131   0.00000  Uiso   1.00
C1522  C     0.55445   0.94990   0.80898   0.00000  Uiso   1.00
H1523  H     0.58302   0.93653   0.79597   0.00000  Uiso   1.00
O1524  O     0.54824   0.94631   0.84867   0.00000  Uiso   1.00
C1525  C     0.55127   0.71514   0.81223   0.00000  Uiso   1.00
H1526  H     0.57778   0.73434   0.80150   0.00000  Uiso   1.00
O1527  O     0.54486   0.71159   0.85188   0.00000  Uiso   1.00
C1528  C     0.44872   0.95153   0.68778   0.00000  Uiso   1.00
H1529  H     0.42220   0.93235   0.69852   0.00000  Uiso   1.00
O1530  O     0.45513   0.95506   0.64813   0.00000  Uiso   1.00
C1531  C     0.75433   0.83328   0.75022   0.00000  Uiso   1.00
C1532  C     0.91233   0.83338   0.74978   0.00000  Uiso   1.00
C1533  C     0.77114   0.87960   0.52363   0.00000  Uiso   1.00
C1534  C     0.89551   0.78705   0.97637   0.00000  Uiso   1.00
C1535  C     0.68927   0.82280   0.78992   0.00000  Uiso   1.00
C1536  C     0.97739   0.84386   0.71008   0.00000  Uiso   1.00
C1537  C     0.97908   0.82330   0.78979   0.00000  Uiso   1.00
C1538  C     0.68759   0.84337   0.71021   0.00000  Uiso   1.00
C1539  C     0.95710   0.83397   0.74997   0.00000  Uiso   1.00
C1540  C     0.70956   0.83270   0.75003   0.00000  Uiso   1.00
C1541  C     0.80853   0.69177   0.72066   0.00000  Uiso   1.00
C1542  C     0.85814   0.97490   0.77933   0.00000  Uiso   1.00
C1543  C     0.85781   0.69103   0.77963   0.00000  Uiso   1.00
C1544  C     0.80886   0.97564   0.72037   0.00000  Uiso   1.00
C1545  C     0.83428   0.83323   0.66459   0.00000  Uiso   1.00
C1546  C     0.83238   0.83343   0.83541   0.00000  Uiso   1.00
C1547  C     0.86182   0.80910   0.90727   0.00000  Uiso   1.00
C1548  C     0.80484   0.85756   0.59273   0.00000  Uiso   1.00
C1549  C     0.83160   0.83405   0.88369   0.00000  Uiso   1.00
C1550  C     0.83506   0.83261   0.61631   0.00000  Uiso   1.00
C1551  C     0.80210   0.86073   0.90601   0.00000  Uiso   1.00
C1552  C     0.86456   0.80594   0.59399   0.00000  Uiso   1.00
C1553  C     0.80082   0.85833   0.95304   0.00000  Uiso   1.00
C1554  C     0.86584   0.80833   0.54696   0.00000  Uiso   1.00
C1555  C     0.83274   0.83383   0.97660   0.00000  Uiso   1.00
C1556  C     0.83391   0.83283   0.52339   0.00000  Uiso   1.00
C1557  C     0.86338   0.80985   0.95339   0.00000  Uiso   1.00
C1558  C     0.80328   0.85680   0.54661   0.00000  Uiso   1.00
C1559  C     0.76850   0.87898   0.97714   0.00000  Uiso   1.00
C1560  C     0.89815   0.78767   0.52286   0.00000  Uiso   1.00
Cu1561 Cu    0.83333   0.88022   0.75000   0.00000  Uiso   1.00
Cu1562 Cu    0.83333   0.78645   0.75000   0.00000  Uiso   1.00
H1563  H     0.88514   0.79026   0.88952   0.00000  Uiso   1.00
H1564  H     0.78152   0.87641   0.61048   0.00000  Uiso   1.00
H1565  H     0.74765   0.89778   0.54189   0.00000  Uiso   1.00
H1566  H     0.91900   0.76887   0.95811   0.00000  Uiso   1.00
N1567  N     0.83333   0.95069   0.75000   0.00000  Uiso   1.00
N1568  N     0.83333   0.71598   0.75000   0.00000  Uiso   1.00
O1569  O     0.77321   0.87291   0.75000   0.00000  Uiso   1.00
O1570  O     0.89345   0.79375   0.75000   0.00000  Uiso   1.00
O1571  O     0.89345   0.87291   0.75000   0.00000  Uiso   1.00
O1572  O     0.77321   0.79375   0.74999   0.00000  Uiso   1.00
O1573  O     0.83332   0.87293   0.68513   0.00000  Uiso   1.00
O1574  O     0.83334   0.79373   0.81487   0.00000  Uiso   1.00
O1575  O     0.83334   0.87293   0.81487   0.00000  Uiso   1.00
O1576  O     0.83332   0.79373   0.68513   0.00000  Uiso   1.00
O1577  O     0.77280   0.88567   0.88140   0.00000  Uiso   1.00
C1578  C     0.78320   0.93319   0.88138   0.00000  Uiso   1.00
H1579  H     0.75415   0.95371   0.87908   0.00000  Uiso   1.00
H1580  H     0.80106   0.94169   0.85157   0.00000  Uiso   1.00
H1581  H     0.80056   0.94481   0.91180   0.00000  Uiso   1.00
O1582  O     0.89386   0.78098   0.61860   0.00000  Uiso   1.00
C1583  C     0.88345   0.73347   0.61864   0.00000  Uiso   1.00
H1584  H     0.86595   0.72187   0.58829   0.00000  Uiso   1.00
H1585  H     0.86570   0.72496   0.64853   0.00000  Uiso   1.00
H1586  H     0.91249   0.71293   0.62079   0.00000  Uiso   1.00
O1587  O     0.73533   0.90039   0.95535   0.00000  Uiso   1.00
C1588  C     0.69860   0.87613   0.96422   0.00000  Uiso   1.00
H1589  H     0.70225   0.83810   0.95962   0.00000  Uiso   1.00
H1590  H     0.67402   0.88810   0.94042   0.00000  Uiso   1.00
H1591  H     0.68786   0.88367   0.99822   0.00000  Uiso   1.00
O1592  O     0.93132   0.76625   0.54465   0.00000  Uiso   1.00
C1593  C     0.96805   0.79050   0.53579   0.00000  Uiso   1.00
H1594  H     0.99262   0.77852   0.55958   0.00000  Uiso   1.00
H1595  H     0.96440   0.82853   0.54040   0.00000  Uiso   1.00
H1596  H     0.97879   0.78297   0.50178   0.00000  Uiso   1.00
C1597  C     0.71422   0.81419   0.83156   0.00000  Uiso   1.00
H1598  H     0.74382   0.79656   0.83037   0.00000  Uiso   1.00
O1599  O     0.70280   0.82831   0.86739   0.00000  Uiso   1.00
C1600  C     0.95245   0.85247   0.66844   0.00000  Uiso   1.00
H1601  H     0.92285   0.87010   0.66963   0.00000  Uiso   1.00
O1602  O     0.96386   0.83835   0.63261   0.00000  Uiso   1.00
C1603  C     0.95571   0.81256   0.83057   0.00000  Uiso   1.00
H1604  H     0.92788   0.83196   0.83765   0.00000  Uiso   1.00
O1605  O     0.96616   0.78079   0.85532   0.00000  Uiso   1.00
C1606  C     0.71096   0.85411   0.66943   0.00000  Uiso   1.00
H1607  H     0.73879   0.83471   0.66235   0.00000  Uiso   1.00
O1608  O     0.70050   0.88588   0.64468   0.00000  Uiso   1.00
C1609  C     0.77890   0.71677   0.69100   0.00000  Uiso   1.00
H1610  H     0.75033   0.73015   0.70400   0.00000  Uiso   1.00
O1611  O     0.78513   0.72034   0.65131   0.00000  Uiso   1.00
C1612  C     0.88779   0.94990   0.80898   0.00000  Uiso   1.00
H1613  H     0.91635   0.93653   0.79597   0.00000  Uiso   1.00
O1614  O     0.88157   0.94631   0.84867   0.00000  Uiso   1.00
C1615  C     0.88461   0.71514   0.81223   0.00000  Uiso   1.00
H1616  H     0.91112   0.73434   0.80150   0.00000  Uiso   1.00
O1617  O     0.87819   0.71159   0.85188   0.00000  Uiso   1.00
C1618  C     0.78205   0.95153   0.68778   0.00000  Uiso   1.00
H1619  H     0.75553   0.93235   0.69852   0.00000  Uiso   1.00
O1620  O     0.78847   0.95506   0.64813   0.00000  Uiso   1.00
loop_
_geom_bond_atom_site_label_1
_geom_bond_atom_site_label_2
_geom_bond_distance
_geom_bond_site_symmetry_2
_ccdc_geom_bond_type
C1     C10     1.448   .     S
C1     O39     1.300   .     A
C1     O42     1.293   .     A
C2     O41     1.293   .     A
C2     O40     1.300   .     A
C2     C9      1.448   .     S
C3     C28     1.395   .     A
C3     H35     1.084   .     S
C3     C839    1.400   1_554 S
C4     H36     1.084   .     S
C4     C27     1.395   .     A
C4     C840    1.400   .     S
C5     C67     1.492   .     S
C5     C10     1.411   .     A
C5     C187    1.407   1_455 S
C6     C9      1.411   .     A
C6     C70     1.492   .     S
C6     C98     1.407   .     S
C7     C73     1.490   .     S
C7     C9      1.410   .     A
C7     C95     1.407   .     S
C8     C76     1.490   .     S
C8     C10     1.410   .     A
C8     C186    1.407   1_455 S
C11    N38     1.373   .     A
C11    C79     1.477   .     S
C11    C554    1.430   1_545 S
C12    N37     1.373   .     A
C12    C82     1.477   .     S
C12    C283    1.430   .     S
C13    N38     1.377   .     A
C13    C85     1.472   .     S
C13    C552    1.430   1_545 S
C14    N37     1.377   .     A
C14    C88     1.472   .     S
C14    C281    1.430   .     S
C15    C20     1.454   .     S
C15    O43     1.306   .     A
C15    O46     1.297   .     A
C16    O44     1.306   .     A
C16    O45     1.297   .     A
C16    C19     1.454   .     S
C17    H33     1.082   .     S
C17    C27     1.388   .     A
C17    C19     1.391   .     A
C18    C28     1.388   .     A
C18    H34     1.082   .     S
C18    C20     1.391   .     A
C19    C21     1.409   .     A
C20    C22     1.409   .     A
C21    C23     1.418   .     A
C21    O47     1.386   .     S
C22    C24     1.418   .     A
C22    O52     1.386   .     S
C23    C29     1.418   .     A
C23    C25     1.422   .     A
C24    C26     1.422   .     A
C24    C30     1.418   .     A
C25    C27     1.408   .     A
C25    C836    1.408   .     S
C26    C28     1.408   .     A
C26    C835    1.408   1_554 S
C29    O57     1.385   .     S
C29    C813    1.400   .     S
C30    O62     1.385   .     S
C30    C814    1.400   1_554 S
Cu31   O43     1.964   .     S
Cu31   N37     2.037   .     S
Cu31   Cu32    2.710   .     S
Cu31   O41     1.955   .     S
Cu31   O39     1.956   .     S
Cu31   O45     1.962   .     S
Cu32   N38     2.037   .     S
Cu32   O44     1.964   .     S
Cu32   O46     1.962   .     S
Cu32   O40     1.956   .     S
Cu32   O42     1.955   .     S
O47    C48     1.415   .     S
C48    H51     1.115   .     S
C48    H50     1.106   .     S
C48    H49     1.109   .     S
O52    C53     1.415   .     S
C53    H54     1.115   .     S
C53    H55     1.107   .     S
C53    H56     1.109   .     S
O57    C58     1.412   .     S
C58    H60     1.109   .     S
C58    H61     1.111   .     S
C58    H59     1.115   .     S
O62    C63     1.412   .     S
C63    H65     1.115   .     S
C63    H66     1.111   .     S
C63    H64     1.109   .     S
C67    H68     1.084   .     S
C67    O69     1.220   .     D
C70    H71     1.084   .     S
C70    O72     1.220   .     D
C73    H74     1.085   .     S
C73    O75     1.221   .     D
C76    H77     1.085   .     S
C76    O78     1.221   .     D
C79    O81     1.220   .     D
C79    H80     1.083   .     S
C82    O84     1.220   .     D
C82    H83     1.083   .     S
C85    O87     1.220   .     D
C85    H86     1.079   .     S
C88    O90     1.220   .     D
C88    H89     1.079   .     S
C91    C100    1.448   .     S
C91    O129    1.300   .     A
C91    O132    1.293   .     A
C92    O131    1.293   .     A
C92    O130    1.300   .     A
C92    C99     1.448   .     S
C93    C118    1.395   .     A
C93    H125    1.084   .     S
C93    C929    1.400   1_554 S
C94    H126    1.084   .     S
C94    C117    1.395   .     A
C94    C930    1.400   .     S
C95    C157    1.492   .     S
C95    C100    1.411   .     A
C96    C99     1.411   .     A
C96    C160    1.492   .     S
C96    C188    1.407   .     S
C97    C163    1.490   .     S
C97    C99     1.410   .     A
C97    C185    1.407   .     S
C98    C166    1.490   .     S
C98    C100    1.410   .     A
C101   N128    1.373   .     A
C101   C169    1.477   .     S
C101   C644    1.430   1_545 S
C102   N127    1.373   .     A
C102   C172    1.477   .     S
C102   C373    1.430   .     S
C103   N128    1.377   .     A
C103   C175    1.472   .     S
C103   C642    1.430   1_545 S
C104   N127    1.377   .     A
C104   C178    1.472   .     S
C104   C371    1.430   .     S
C105   C110    1.454   .     S
C105   O133    1.306   .     A
C105   O136    1.297   .     A
C106   O134    1.306   .     A
C106   O135    1.297   .     A
C106   C109    1.454   .     S
C107   H123    1.082   .     S
C107   C117    1.388   .     A
C107   C109    1.391   .     A
C108   C118    1.388   .     A
C108   H124    1.082   .     S
C108   C110    1.391   .     A
C109   C111    1.409   .     A
C110   C112    1.409   .     A
C111   C113    1.418   .     A
C111   O137    1.386   .     S
C112   C114    1.418   .     A
C112   O142    1.386   .     S
C113   C119    1.418   .     A
C113   C115    1.422   .     A
C114   C116    1.422   .     A
C114   C120    1.418   .     A
C115   C117    1.408   .     A
C115   C926    1.408   .     S
C116   C118    1.408   .     A
C116   C925    1.408   1_554 S
C119   O147    1.385   .     S
C119   C903    1.400   .     S
C120   O152    1.385   .     S
C120   C904    1.400   1_554 S
Cu121  O133    1.964   .     S
Cu121  N127    2.037   .     S
Cu121  Cu122   2.710   .     S
Cu121  O131    1.955   .     S
Cu121  O129    1.956   .     S
Cu121  O135    1.962   .     S
Cu122  N128    2.037   .     S
Cu122  O134    1.964   .     S
Cu122  O136    1.962   .     S
Cu122  O130    1.956   .     S
Cu122  O132    1.955   .     S
O137   C138    1.415   .     S
C138   H141    1.115   .     S
C138   H140    1.106   .     S
C138   H139    1.109   .     S
O142   C143    1.415   .     S
C143   H144    1.115   .     S
C143   H145    1.107   .     S
C143   H146    1.109   .     S
O147   C148    1.412   .     S
C148   H150    1.109   .     S
C148   H151    1.111   .     S
C148   H149    1.115   .     S
O152   C153    1.412   .     S
C153   H155    1.115   .     S
C153   H156    1.111   .     S
C153   H154    1.109   .     S
C157   H158    1.084   .     S
C157   O159    1.220   .     D
C160   H161    1.084   .     S
C160   O162    1.220   .     D
C163   H164    1.085   .     S
C163   O165    1.221   .     D
C166   H167    1.085   .     S
C166   O168    1.221   .     D
C169   O171    1.220   .     D
C169   H170    1.083   .     S
C172   O174    1.220   .     D
C172   H173    1.083   .     S
C175   O177    1.220   .     D
C175   H176    1.079   .     S
C178   O180    1.220   .     D
C178   H179    1.079   .     S
C181   C190    1.448   .     S
C181   O219    1.300   .     A
C181   O222    1.293   .     A
C182   O221    1.293   .     A
C182   O220    1.300   .     A
C182   C189    1.448   .     S
C183   C208    1.395   .     A
C183   H215    1.084   .     S
C183   C1019   1.400   1_554 S
C184   H216    1.084   .     S
C184   C207    1.395   .     A
C184   C1020   1.400   .     S
C185   C247    1.492   .     S
C185   C190    1.411   .     A
C186   C189    1.411   .     A
C186   C250    1.492   .     S
C186   C8      1.407   1_655 S
C187   C253    1.490   .     S
C187   C189    1.410   .     A
C187   C5      1.407   1_655 S
C188   C256    1.490   .     S
C188   C190    1.410   .     A
C191   N218    1.373   .     A
C191   C259    1.477   .     S
C191   C734    1.430   1_545 S
C192   N217    1.373   .     A
C192   C262    1.477   .     S
C192   C463    1.430   .     S
C193   N218    1.377   .     A
C193   C265    1.472   .     S
C193   C732    1.430   1_545 S
C194   N217    1.377   .     A
C194   C268    1.472   .     S
C194   C461    1.430   .     S
C195   C200    1.454   .     S
C195   O223    1.306   .     A
C195   O226    1.297   .     A
C196   O224    1.306   .     A
C196   O225    1.297   .     A
C196   C199    1.454   .     S
C197   H213    1.082   .     S
C197   C207    1.388   .     A
C197   C199    1.391   .     A
C198   C208    1.388   .     A
C198   H214    1.082   .     S
C198   C200    1.391   .     A
C199   C201    1.409   .     A
C200   C202    1.409   .     A
C201   C203    1.418   .     A
C201   O227    1.386   .     S
C202   C204    1.418   .     A
C202   O232    1.386   .     S
C203   C209    1.418   .     A
C203   C205    1.422   .     A
C204   C206    1.422   .     A
C204   C210    1.418   .     A
C205   C207    1.408   .     A
C205   C1016   1.408   .     S
C206   C208    1.408   .     A
C206   C1015   1.408   1_554 S
C209   O237    1.385   .     S
C209   C993    1.400   .     S
C210   O242    1.385   .     S
C210   C994    1.400   1_554 S
Cu211  O223    1.964   .     S
Cu211  N217    2.037   .     S
Cu211  Cu212   2.710   .     S
Cu211  O221    1.955   .     S
Cu211  O219    1.956   .     S
Cu211  O225    1.962   .     S
Cu212  N218    2.037   .     S
Cu212  O224    1.964   .     S
Cu212  O226    1.962   .     S
Cu212  O220    1.956   .     S
Cu212  O222    1.955   .     S
O227   C228    1.415   .     S
C228   H231    1.115   .     S
C228   H230    1.106   .     S
C228   H229    1.109   .     S
O232   C233    1.415   .     S
C233   H234    1.115   .     S
C233   H235    1.107   .     S
C233   H236    1.109   .     S
O237   C238    1.412   .     S
C238   H240    1.109   .     S
C238   H241    1.111   .     S
C238   H239    1.115   .     S
O242   C243    1.412   .     S
C243   H245    1.115   .     S
C243   H246    1.111   .     S
C243   H244    1.109   .     S
C247   H248    1.084   .     S
C247   O249    1.220   .     D
C250   H251    1.084   .     S
C250   O252    1.220   .     D
C253   H254    1.085   .     S
C253   O255    1.221   .     D
C256   H257    1.085   .     S
C256   O258    1.221   .     D
C259   O261    1.220   .     D
C259   H260    1.083   .     S
C262   O264    1.220   .     D
C262   H263    1.083   .     S
C265   O267    1.220   .     D
C265   H266    1.079   .     S
C268   O270    1.220   .     D
C268   H269    1.079   .     S
C271   C280    1.448   .     S
C271   O309    1.300   .     A
C271   O312    1.293   .     A
C272   O311    1.293   .     A
C272   O310    1.300   .     A
C272   C279    1.448   .     S
C273   C298    1.395   .     A
C273   H305    1.084   .     S
C273   C1109   1.400   1_554 S
C274   H306    1.084   .     S
C274   C297    1.395   .     A
C274   C1110   1.400   .     S
C275   C337    1.492   .     S
C275   C280    1.411   .     A
C275   C457    1.407   1_455 S
C276   C279    1.411   .     A
C276   C340    1.492   .     S
C276   C368    1.407   .     S
C277   C343    1.490   .     S
C277   C279    1.410   .     A
C277   C365    1.407   .     S
C278   C346    1.490   .     S
C278   C280    1.410   .     A
C278   C456    1.407   1_455 S
C281   N308    1.373   .     A
C281   C349    1.477   .     S
C282   N307    1.373   .     A
C282   C352    1.477   .     S
C282   C553    1.430   .     S
C283   N308    1.377   .     A
C283   C355    1.472   .     S
C284   N307    1.377   .     A
C284   C358    1.472   .     S
C284   C551    1.430   .     S
C285   C290    1.454   .     S
C285   O313    1.306   .     A
C285   O316    1.297   .     A
C286   O314    1.306   .     A
C286   O315    1.297   .     A
C286   C289    1.454   .     S
C287   H303    1.082   .     S
C287   C297    1.388   .     A
C287   C289    1.391   .     A
C288   C298    1.388   .     A
C288   H304    1.082   .     S
C288   C290    1.391   .     A
C289   C291    1.409   .     A
C290   C292    1.409   .     A
C291   C293    1.418   .     A
C291   O317    1.386   .     S
C292   C294    1.418   .     A
C292   O322    1.386   .     S
C293   C299    1.418   .     A
C293   C295    1.422   .     A
C294   C296    1.422   .     A
C294   C300    1.418   .     A
C295   C297    1.408   .     A
C295   C1106   1.408   .     S
C296   C298    1.408   .     A
C296   C1105   1.408   1_554 S
C299   O327    1.385   .     S
C299   C1083   1.400   .     S
C300   O332    1.385   .     S
C300   C1084   1.400   1_554 S
Cu301  O313    1.964   .     S
Cu301  N307    2.037   .     S
Cu301  Cu302   2.710   .     S
Cu301  O311    1.955   .     S
Cu301  O309    1.956   .     S
Cu301  O315    1.962   .     S
Cu302  N308    2.037   .     S
Cu302  O314    1.964   .     S
Cu302  O316    1.962   .     S
Cu302  O310    1.956   .     S
Cu302  O312    1.955   .     S
O317   C318    1.415   .     S
C318   H321    1.115   .     S
C318   H320    1.106   .     S
C318   H319    1.109   .     S
O322   C323    1.415   .     S
C323   H324    1.115   .     S
C323   H325    1.107   .     S
C323   H326    1.109   .     S
O327   C328    1.412   .     S
C328   H330    1.109   .     S
C328   H331    1.111   .     S
C328   H329    1.115   .     S
O332   C333    1.412   .     S
C333   H335    1.115   .     S
C333   H336    1.111   .     S
C333   H334    1.109   .     S
C337   H338    1.084   .     S
C337   O339    1.220   .     D
C340   H341    1.084   .     S
C340   O342    1.220   .     D
C343   H344    1.085   .     S
C343   O345    1.221   .     D
C346   H347    1.085   .     S
C346   O348    1.221   .     D
C349   O351    1.220   .     D
C349   H350    1.083   .     S
C352   O354    1.220   .     D
C352   H353    1.083   .     S
C355   O357    1.220   .     D
C355   H356    1.079   .     S
C358   O360    1.220   .     D
C358   H359    1.079   .     S
C361   C370    1.448   .     S
C361   O399    1.300   .     A
C361   O402    1.293   .     A
C362   O401    1.293   .     A
C362   O400    1.300   .     A
C362   C369    1.448   .     S
C363   C388    1.395   .     A
C363   H395    1.084   .     S
C363   C1199   1.400   1_554 S
C364   H396    1.084   .     S
C364   C387    1.395   .     A
C364   C1200   1.400   .     S
C365   C427    1.492   .     S
C365   C370    1.411   .     A
C366   C369    1.411   .     A
C366   C430    1.492   .     S
C366   C458    1.407   .     S
C367   C433    1.490   .     S
C367   C369    1.410   .     A
C367   C455    1.407   .     S
C368   C436    1.490   .     S
C368   C370    1.410   .     A
C371   N398    1.373   .     A
C371   C439    1.477   .     S
C372   N397    1.373   .     A
C372   C442    1.477   .     S
C372   C643    1.430   .     S
C373   N398    1.377   .     A
C373   C445    1.472   .     S
C374   N397    1.377   .     A
C374   C448    1.472   .     S
C374   C641    1.430   .     S
C375   C380    1.454   .     S
C375   O403    1.306   .     A
C375   O406    1.297   .     A
C376   O404    1.306   .     A
C376   O405    1.297   .     A
C376   C379    1.454   .     S
C377   H393    1.082   .     S
C377   C387    1.388   .     A
C377   C379    1.391   .     A
C378   C388    1.388   .     A
C378   H394    1.082   .     S
C378   C380    1.391   .     A
C379   C381    1.409   .     A
C380   C382    1.409   .     A
C381   C383    1.418   .     A
C381   O407    1.386   .     S
C382   C384    1.418   .     A
C382   O412    1.386   .     S
C383   C389    1.418   .     A
C383   C385    1.422   .     A
C384   C386    1.422   .     A
C384   C390    1.418   .     A
C385   C387    1.408   .     A
C385   C1196   1.408   .     S
C386   C388    1.408   .     A
C386   C1195   1.408   1_554 S
C389   O417    1.385   .     S
C389   C1173   1.400   .     S
C390   O422    1.385   .     S
C390   C1174   1.400   1_554 S
Cu391  O403    1.964   .     S
Cu391  N397    2.037   .     S
Cu391  Cu392   2.710   .     S
Cu391  O401    1.955   .     S
Cu391  O399    1.956   .     S
Cu391  O405    1.962   .     S
Cu392  N398    2.037   .     S
Cu392  O404    1.964   .     S
Cu392  O406    1.962   .     S
Cu392  O400    1.956   .     S
Cu392  O402    1.955   .     S
O407   C408    1.415   .     S
C408   H411    1.115   .     S
C408   H410    1.106   .     S
C408   H409    1.109   .     S
O412   C413    1.415   .     S
C413   H414    1.115   .     S
C413   H415    1.107   .     S
C413   H416    1.109   .     S
O417   C418    1.412   .     S
C418   H420    1.109   .     S
C418   H421    1.111   .     S
C418   H419    1.115   .     S
O422   C423    1.412   .     S
C423   H425    1.115   .     S
C423   H426    1.111   .     S
C423   H424    1.109   .     S
C427   H428    1.084   .     S
C427   O429    1.220   .     D
C430   H431    1.084   .     S
C430   O432    1.220   .     D
C433   H434    1.085   .     S
C433   O435    1.221   .     D
C436   H437    1.085   .     S
C436   O438    1.221   .     D
C439   O441    1.220   .     D
C439   H440    1.083   .     S
C442   O444    1.220   .     D
C442   H443    1.083   .     S
C445   O447    1.220   .     D
C445   H446    1.079   .     S
C448   O450    1.220   .     D
C448   H449    1.079   .     S
C451   C460    1.448   .     S
C451   O489    1.300   .     A
C451   O492    1.293   .     A
C452   O491    1.293   .     A
C452   O490    1.300   .     A
C452   C459    1.448   .     S
C453   C478    1.395   .     A
C453   H485    1.084   .     S
C453   C1289   1.400   1_554 S
C454   H486    1.084   .     S
C454   C477    1.395   .     A
C454   C1290   1.400   .     S
C455   C517    1.492   .     S
C455   C460    1.411   .     A
C456   C459    1.411   .     A
C456   C520    1.492   .     S
C456   C278    1.407   1_655 S
C457   C523    1.490   .     S
C457   C459    1.410   .     A
C457   C275    1.407   1_655 S
C458   C526    1.490   .     S
C458   C460    1.410   .     A
C461   N488    1.373   .     A
C461   C529    1.477   .     S
C462   N487    1.373   .     A
C462   C532    1.477   .     S
C462   C733    1.430   .     S
C463   N488    1.377   .     A
C463   C535    1.472   .     S
C464   N487    1.377   .     A
C464   C538    1.472   .     S
C464   C731    1.430   .     S
C465   C470    1.454   .     S
C465   O493    1.306   .     A
C465   O496    1.297   .     A
C466   O494    1.306   .     A
C466   O495    1.297   .     A
C466   C469    1.454   .     S
C467   H483    1.082   .     S
C467   C477    1.388   .     A
C467   C469    1.391   .     A
C468   C478    1.388   .     A
C468   H484    1.082   .     S
C468   C470    1.391   .     A
C469   C471    1.409   .     A
C470   C472    1.409   .     A
C471   C473    1.418   .     A
C471   O497    1.386   .     S
C472   C474    1.418   .     A
C472   O502    1.386   .     S
C473   C479    1.418   .     A
C473   C475    1.422   .     A
C474   C476    1.422   .     A
C474   C480    1.418   .     A
C475   C477    1.408   .     A
C475   C1286   1.408   .     S
C476   C478    1.408   .     A
C476   C1285   1.408   1_554 S
C479   O507    1.385   .     S
C479   C1263   1.400   .     S
C480   O512    1.385   .     S
C480   C1264   1.400   1_554 S
Cu481  O493    1.964   .     S
Cu481  N487    2.037   .     S
Cu481  Cu482   2.710   .     S
Cu481  O491    1.955   .     S
Cu481  O489    1.956   .     S
Cu481  O495    1.962   .     S
Cu482  N488    2.037   .     S
Cu482  O494    1.964   .     S
Cu482  O496    1.962   .     S
Cu482  O490    1.956   .     S
Cu482  O492    1.955   .     S
O497   C498    1.415   .     S
C498   H501    1.115   .     S
C498   H500    1.106   .     S
C498   H499    1.109   .     S
O502   C503    1.415   .     S
C503   H504    1.115   .     S
C503   H505    1.107   .     S
C503   H506    1.109   .     S
O507   C508    1.412   .     S
C508   H510    1.109   .     S
C508   H511    1.111   .     S
C508   H509    1.115   .     S
O512   C513    1.412   .     S
C513   H515    1.115   .     S
C513   H516    1.111   .     S
C513   H514    1.109   .     S
C517   H518    1.084   .     S
C517   O519    1.220   .     D
C520   H521    1.084   .     S
C520   O522    1.220   .     D
C523   H524    1.085   .     S
C523   O525    1.221   .     D
C526   H527    1.085   .     S
C526   O528    1.221   .     D
C529   O531    1.220   .     D
C529   H530    1.083   .     S
C532   O534    1.220   .     D
C532   H533    1.083   .     S
C535   O537    1.220   .     D
C535   H536    1.079   .     S
C538   O540    1.220   .     D
C538   H539    1.079   .     S
C541   C550    1.448   .     S
C541   O579    1.300   .     A
C541   O582    1.293   .     A
C542   O581    1.293   .     A
C542   O580    1.300   .     A
C542   C549    1.448   .     S
C543   C568    1.395   .     A
C543   H575    1.084   .     S
C543   C1379   1.400   1_554 S
C544   H576    1.084   .     S
C544   C567    1.395   .     A
C544   C1380   1.400   .     S
C545   C607    1.492   .     S
C545   C550    1.411   .     A
C545   C727    1.407   1_455 S
C546   C549    1.411   .     A
C546   C610    1.492   .     S
C546   C638    1.407   .     S
C547   C613    1.490   .     S
C547   C549    1.410   .     A
C547   C635    1.407   .     S
C548   C616    1.490   .     S
C548   C550    1.410   .     A
C548   C726    1.407   1_455 S
C551   N578    1.373   .     A
C551   C619    1.477   .     S
C552   N577    1.373   .     A
C552   C622    1.477   .     S
C552   C13     1.430   1_565 S
C553   N578    1.377   .     A
C553   C625    1.472   .     S
C554   N577    1.377   .     A
C554   C628    1.472   .     S
C554   C11     1.430   1_565 S
C555   C560    1.454   .     S
C555   O583    1.306   .     A
C555   O586    1.297   .     A
C556   O584    1.306   .     A
C556   O585    1.297   .     A
C556   C559    1.454   .     S
C557   H573    1.082   .     S
C557   C567    1.388   .     A
C557   C559    1.391   .     A
C558   C568    1.388   .     A
C558   H574    1.082   .     S
C558   C560    1.391   .     A
C559   C561    1.409   .     A
C560   C562    1.409   .     A
C561   C563    1.418   .     A
C561   O587    1.386   .     S
C562   C564    1.418   .     A
C562   O592    1.386   .     S
C563   C569    1.418   .     A
C563   C565    1.422   .     A
C564   C566    1.422   .     A
C564   C570    1.418   .     A
C565   C567    1.408   .     A
C565   C1376   1.408   .     S
C566   C568    1.408   .     A
C566   C1375   1.408   1_554 S
C569   O597    1.385   .     S
C569   C1353   1.400   .     S
C570   O602    1.385   .     S
C570   C1354   1.400   1_554 S
Cu571  O583    1.964   .     S
Cu571  N577    2.037   .     S
Cu571  Cu572   2.710   .     S
Cu571  O581    1.955   .     S
Cu571  O579    1.956   .     S
Cu571  O585    1.962   .     S
Cu572  N578    2.037   .     S
Cu572  O584    1.964   .     S
Cu572  O586    1.962   .     S
Cu572  O580    1.956   .     S
Cu572  O582    1.955   .     S
O587   C588    1.415   .     S
C588   H591    1.115   .     S
C588   H590    1.106   .     S
C588   H589    1.109   .     S
O592   C593    1.415   .     S
C593   H594    1.115   .     S
C593   H595    1.107   .     S
C593   H596    1.109   .     S
O597   C598    1.412   .     S
C598   H600    1.109   .     S
C598   H601    1.111   .     S
C598   H599    1.115   .     S
O602   C603    1.412   .     S
C603   H605    1.115   .     S
C603   H606    1.111   .     S
C603   H604    1.109   .     S
C607   H608    1.084   .     S
C607   O609    1.220   .     D
C610   H611    1.084   .     S
C610   O612    1.220   .     D
C613   H614    1.085   .     S
C613   O615    1.221   .     D
C616   H617    1.085   .     S
C616   O618    1.221   .     D
C619   O621    1.220   .     D
C619   H620    1.083   .     S
C622   O624    1.220   .     D
C622   H623    1.083   .     S
C625   O627    1.220   .     D
C625   H626    1.079   .     S
C628   O630    1.220   .     D
C628   H629    1.079   .     S
C631   C640    1.448   .     S
C631   O669    1.300   .     A
C631   O672    1.293   .     A
C632   O671    1.293   .     A
C632   O670    1.300   .     A
C632   C639    1.448   .     S
C633   C658    1.395   .     A
C633   H665    1.084   .     S
C633   C1469   1.400   1_554 S
C634   H666    1.084   .     S
C634   C657    1.395   .     A
C634   C1470   1.400   .     S
C635   C697    1.492   .     S
C635   C640    1.411   .     A
C636   C639    1.411   .     A
C636   C700    1.492   .     S
C636   C728    1.407   .     S
C637   C703    1.490   .     S
C637   C639    1.410   .     A
C637   C725    1.407   .     S
C638   C706    1.490   .     S
C638   C640    1.410   .     A
C641   N668    1.373   .     A
C641   C709    1.477   .     S
C642   N667    1.373   .     A
C642   C712    1.477   .     S
C642   C103    1.430   1_565 S
C643   N668    1.377   .     A
C643   C715    1.472   .     S
C644   N667    1.377   .     A
C644   C718    1.472   .     S
C644   C101    1.430   1_565 S
C645   C650    1.454   .     S
C645   O673    1.306   .     A
C645   O676    1.297   .     A
C646   O674    1.306   .     A
C646   O675    1.297   .     A
C646   C649    1.454   .     S
C647   H663    1.082   .     S
C647   C657    1.388   .     A
C647   C649    1.391   .     A
C648   C658    1.388   .     A
C648   H664    1.082   .     S
C648   C650    1.391   .     A
C649   C651    1.409   .     A
C650   C652    1.409   .     A
C651   C653    1.418   .     A
C651   O677    1.386   .     S
C652   C654    1.418   .     A
C652   O682    1.386   .     S
C653   C659    1.418   .     A
C653   C655    1.422   .     A
C654   C656    1.422   .     A
C654   C660    1.418   .     A
C655   C657    1.408   .     A
C655   C1466   1.408   .     S
C656   C658    1.408   .     A
C656   C1465   1.408   1_554 S
C659   O687    1.385   .     S
C659   C1443   1.400   .     S
C660   O692    1.385   .     S
C660   C1444   1.400   1_554 S
Cu661  O673    1.964   .     S
Cu661  N667    2.037   .     S
Cu661  Cu662   2.710   .     S
Cu661  O671    1.955   .     S
Cu661  O669    1.956   .     S
Cu661  O675    1.962   .     S
Cu662  N668    2.037   .     S
Cu662  O674    1.964   .     S
Cu662  O676    1.962   .     S
Cu662  O670    1.956   .     S
Cu662  O672    1.955   .     S
O677   C678    1.415   .     S
C678   H681    1.115   .     S
C678   H680    1.106   .     S
C678   H679    1.109   .     S
O682   C683    1.415   .     S
C683   H684    1.115   .     S
C683   H685    1.107   .     S
C683   H686    1.109   .     S
O687   C688    1.412   .     S
C688   H690    1.109   .     S
C688   H691    1.111   .     S
C688   H689    1.115   .     S
O692   C693    1.412   .     S
C693   H695    1.115   .     S
C693   H696    1.111   .     S
C693   H694    1.109   .     S
C697   H698    1.084   .     S
C697   O699    1.220   .     D
C700   H701    1.084   .     S
C700   O702    1.220   .     D
C703   H704    1.085   .     S
C703   O705    1.221   .     D
C706   H707    1.085   .     S
C706   O708    1.221   .     D
C709   O711    1.220   .     D
C709   H710    1.083   .     S
C712   O714    1.220   .     D
C712   H713    1.083   .     S
C715   O717    1.220   .     D
C715   H716    1.079   .     S
C718   O720    1.220   .     D
C718   H719    1.079   .     S
C721   C730    1.448   .     S
C721   O759    1.300   .     A
C721   O762    1.293   .     A
C722   O761    1.293   .     A
C722   O760    1.300   .     A
C722   C729    1.448   .     S
C723   C748    1.395   .     A
C723   H755    1.084   .     S
C723   C1559   1.400   1_554 S
C724   H756    1.084   .     S
C724   C747    1.395   .     A
C724   C1560   1.400   .     S
C725   C787    1.492   .     S
C725   C730    1.411   .     A
C726   C729    1.411   .     A
C726   C790    1.492   .     S
C726   C548    1.407   1_655 S
C727   C793    1.490   .     S
C727   C729    1.410   .     A
C727   C545    1.407   1_655 S
C728   C796    1.490   .     S
C728   C730    1.410   .     A
C731   N758    1.373   .     A
C731   C799    1.477   .     S
C732   N757    1.373   .     A
C732   C802    1.477   .     S
C732   C193    1.430   1_565 S
C733   N758    1.377   .     A
C733   C805    1.472   .     S
C734   N757    1.377   .     A
C734   C808    1.472   .     S
C734   C191    1.430   1_565 S
C735   C740    1.454   .     S
C735   O763    1.306   .     A
C735   O766    1.297   .     A
C736   O764    1.306   .     A
C736   O765    1.297   .     A
C736   C739    1.454   .     S
C737   H753    1.082   .     S
C737   C747    1.388   .     A
C737   C739    1.391   .     A
C738   C748    1.388   .     A
C738   H754    1.082   .     S
C738   C740    1.391   .     A
C739   C741    1.409   .     A
C740   C742    1.409   .     A
C741   C743    1.418   .     A
C741   O767    1.386   .     S
C742   C744    1.418   .     A
C742   O772    1.386   .     S
C743   C749    1.418   .     A
C743   C745    1.422   .     A
C744   C746    1.422   .     A
C744   C750    1.418   .     A
C745   C747    1.408   .     A
C745   C1556   1.408   .     S
C746   C748    1.408   .     A
C746   C1555   1.408   1_554 S
C749   O777    1.385   .     S
C749   C1533   1.400   .     S
C750   O782    1.385   .     S
C750   C1534   1.400   1_554 S
Cu751  O763    1.964   .     S
Cu751  N757    2.037   .     S
Cu751  Cu752   2.710   .     S
Cu751  O761    1.955   .     S
Cu751  O759    1.956   .     S
Cu751  O765    1.962   .     S
Cu752  N758    2.037   .     S
Cu752  O764    1.964   .     S
Cu752  O766    1.962   .     S
Cu752  O760    1.956   .     S
Cu752  O762    1.955   .     S
O767   C768    1.415   .     S
C768   H771    1.115   .     S
C768   H770    1.106   .     S
C768   H769    1.109   .     S
O772   C773    1.415   .     S
C773   H774    1.115   .     S
C773   H775    1.107   .     S
C773   H776    1.109   .     S
O777   C778    1.412   .     S
C778   H780    1.109   .     S
C778   H781    1.111   .     S
C778   H779    1.115   .     S
O782   C783    1.412   .     S
C783   H785    1.115   .     S
C783   H786    1.111   .     S
C783   H784    1.109   .     S
C787   H788    1.084   .     S
C787   O789    1.220   .     D
C790   H791    1.084   .     S
C790   O792    1.220   .     D
C793   H794    1.085   .     S
C793   O795    1.221   .     D
C796   H797    1.085   .     S
C796   O798    1.221   .     D
C799   O801    1.220   .     D
C799   H800    1.083   .     S
C802   O804    1.220   .     D
C802   H803    1.083   .     S
C805   O807    1.220   .     D
C805   H806    1.079   .     S
C808   O810    1.220   .     D
C808   H809    1.079   .     S
C811   C820    1.448   .     S
C811   O849    1.300   .     A
C811   O852    1.293   .     A
C812   O851    1.293   .     A
C812   O850    1.300   .     A
C812   C819    1.448   .     S
C813   C838    1.395   .     A
C813   H845    1.084   .     S
C814   H846    1.084   .     S
C814   C837    1.395   .     A
C814   C30     1.400   1_556 S
C815   C877    1.492   .     S
C815   C820    1.411   .     A
C815   C997    1.407   1_455 S
C816   C819    1.411   .     A
C816   C880    1.492   .     S
C816   C908    1.407   .     S
C817   C883    1.490   .     S
C817   C819    1.410   .     A
C817   C905    1.407   .     S
C818   C886    1.490   .     S
C818   C820    1.410   .     A
C818   C996    1.407   1_455 S
C821   N848    1.373   .     A
C821   C889    1.477   .     S
C821   C1364   1.430   1_545 S
C822   N847    1.373   .     A
C822   C892    1.477   .     S
C822   C1093   1.430   .     S
C823   N848    1.377   .     A
C823   C895    1.472   .     S
C823   C1362   1.430   1_545 S
C824   N847    1.377   .     A
C824   C898    1.472   .     S
C824   C1091   1.430   .     S
C825   C830    1.454   .     S
C825   O853    1.306   .     A
C825   O856    1.297   .     A
C826   O854    1.306   .     A
C826   O855    1.297   .     A
C826   C829    1.454   .     S
C827   H843    1.082   .     S
C827   C837    1.388   .     A
C827   C829    1.391   .     A
C828   C838    1.388   .     A
C828   H844    1.082   .     S
C828   C830    1.391   .     A
C829   C831    1.409   .     A
C830   C832    1.409   .     A
C831   C833    1.418   .     A
C831   O857    1.386   .     S
C832   C834    1.418   .     A
C832   O862    1.386   .     S
C833   C839    1.418   .     A
C833   C835    1.422   .     A
C834   C836    1.422   .     A
C834   C840    1.418   .     A
C835   C837    1.408   .     A
C835   C26     1.408   1_556 S
C836   C838    1.408   .     A
C839   O867    1.385   .     S
C839   C3      1.400   1_556 S
C840   O872    1.385   .     S
Cu841  O853    1.964   .     S
Cu841  N847    2.037   .     S
Cu841  Cu842   2.710   .     S
Cu841  O851    1.955   .     S
Cu841  O849    1.956   .     S
Cu841  O855    1.962   .     S
Cu842  N848    2.037   .     S
Cu842  O854    1.964   .     S
Cu842  O856    1.962   .     S
Cu842  O850    1.956   .     S
Cu842  O852    1.955   .     S
O857   C858    1.415   .     S
C858   H861    1.115   .     S
C858   H860    1.106   .     S
C858   H859    1.109   .     S
O862   C863    1.415   .     S
C863   H864    1.115   .     S
C863   H865    1.107   .     S
C863   H866    1.109   .     S
O867   C868    1.412   .     S
C868   H870    1.109   .     S
C868   H871    1.111   .     S
C868   H869    1.115   .     S
O872   C873    1.412   .     S
C873   H875    1.115   .     S
C873   H876    1.111   .     S
C873   H874    1.109   .     S
C877   H878    1.084   .     S
C877   O879    1.220   .     D
C880   H881    1.084   .     S
C880   O882    1.220   .     D
C883   H884    1.085   .     S
C883   O885    1.221   .     D
C886   H887    1.085   .     S
C886   O888    1.221   .     D
C889   O891    1.220   .     D
C889   H890    1.083   .     S
C892   O894    1.220   .     D
C892   H893    1.083   .     S
C895   O897    1.220   .     D
C895   H896    1.079   .     S
C898   O900    1.220   .     D
C898   H899    1.079   .     S
C901   C910    1.448   .     S
C901   O939    1.300   .     A
C901   O942    1.293   .     A
C902   O941    1.293   .     A
C902   O940    1.300   .     A
C902   C909    1.448   .     S
C903   C928    1.395   .     A
C903   H935    1.084   .     S
C904   H936    1.084   .     S
C904   C927    1.395   .     A
C904   C120    1.400   1_556 S
C905   C967    1.492   .     S
C905   C910    1.411   .     A
C906   C909    1.411   .     A
C906   C970    1.492   .     S
C906   C998    1.407   .     S
C907   C973    1.490   .     S
C907   C909    1.410   .     A
C907   C995    1.407   .     S
C908   C976    1.490   .     S
C908   C910    1.410   .     A
C911   N938    1.373   .     A
C911   C979    1.477   .     S
C911   C1454   1.430   1_545 S
C912   N937    1.373   .     A
C912   C982    1.477   .     S
C912   C1183   1.430   .     S
C913   N938    1.377   .     A
C913   C985    1.472   .     S
C913   C1452   1.430   1_545 S
C914   N937    1.377   .     A
C914   C988    1.472   .     S
C914   C1181   1.430   .     S
C915   C920    1.454   .     S
C915   O943    1.306   .     A
C915   O946    1.297   .     A
C916   O944    1.306   .     A
C916   O945    1.297   .     A
C916   C919    1.454   .     S
C917   H933    1.082   .     S
C917   C927    1.388   .     A
C917   C919    1.391   .     A
C918   C928    1.388   .     A
C918   H934    1.082   .     S
C918   C920    1.391   .     A
C919   C921    1.409   .     A
C920   C922    1.409   .     A
C921   C923    1.418   .     A
C921   O947    1.386   .     S
C922   C924    1.418   .     A
C922   O952    1.386   .     S
C923   C929    1.418   .     A
C923   C925    1.422   .     A
C924   C926    1.422   .     A
C924   C930    1.418   .     A
C925   C927    1.408   .     A
C925   C116    1.408   1_556 S
C926   C928    1.408   .     A
C929   O957    1.385   .     S
C929   C93     1.400   1_556 S
C930   O962    1.385   .     S
Cu931  O943    1.964   .     S
Cu931  N937    2.037   .     S
Cu931  Cu932   2.710   .     S
Cu931  O941    1.955   .     S
Cu931  O939    1.956   .     S
Cu931  O945    1.962   .     S
Cu932  N938    2.037   .     S
Cu932  O944    1.964   .     S
Cu932  O946    1.962   .     S
Cu932  O940    1.956   .     S
Cu932  O942    1.955   .     S
O947   C948    1.415   .     S
C948   H951    1.115   .     S
C948   H950    1.106   .     S
C948   H949    1.109   .     S
O952   C953    1.415   .     S
C953   H954    1.115   .     S
C953   H955    1.107   .     S
C953   H956    1.109   .     S
O957   C958    1.412   .     S
C958   H960    1.109   .     S
C958   H961    1.111   .     S
C958   H959    1.115   .     S
O962   C963    1.412   .     S
C963   H965    1.115   .     S
C963   H966    1.111   .     S
C963   H964    1.109   .     S
C967   H968    1.084   .     S
C967   O969    1.220   .     D
C970   H971    1.084   .     S
C970   O972    1.220   .     D
C973   H974    1.085   .     S
C973   O975    1.221   .     D
C976   H977    1.085   .     S
C976   O978    1.221   .     D
C979   O981    1.220   .     D
C979   H980    1.083   .     S
C982   O984    1.220   .     D
C982   H983    1.083   .     S
C985   O987    1.220   .     D
C985   H986    1.079   .     S
C988   O990    1.220   .     D
C988   H989    1.079   .     S
C991   C1000   1.448   .     S
C991   O1029   1.300   .     A
C991   O1032   1.293   .     A
C992   O1031   1.293   .     A
C992   O1030   1.300   .     A
C992   C999    1.448   .     S
C993   C1018   1.395   .     A
C993   H1025   1.084   .     S
C994   H1026   1.084   .     S
C994   C1017   1.395   .     A
C994   C210    1.400   1_556 S
C995   C1057   1.492   .     S
C995   C1000   1.411   .     A
C996   C999    1.411   .     A
C996   C1060   1.492   .     S
C996   C818    1.407   1_655 S
C997   C1063   1.490   .     S
C997   C999    1.410   .     A
C997   C815    1.407   1_655 S
C998   C1066   1.490   .     S
C998   C1000   1.410   .     A
C1001  N1028   1.373   .     A
C1001  C1069   1.477   .     S
C1001  C1544   1.430   1_545 S
C1002  N1027   1.373   .     A
C1002  C1072   1.477   .     S
C1002  C1273   1.430   .     S
C1003  N1028   1.377   .     A
C1003  C1075   1.472   .     S
C1003  C1542   1.430   1_545 S
C1004  N1027   1.377   .     A
C1004  C1078   1.472   .     S
C1004  C1271   1.430   .     S
C1005  C1010   1.454   .     S
C1005  O1033   1.306   .     A
C1005  O1036   1.297   .     A
C1006  O1034   1.306   .     A
C1006  O1035   1.297   .     A
C1006  C1009   1.454   .     S
C1007  H1023   1.082   .     S
C1007  C1017   1.388   .     A
C1007  C1009   1.391   .     A
C1008  C1018   1.388   .     A
C1008  H1024   1.082   .     S
C1008  C1010   1.391   .     A
C1009  C1011   1.409   .     A
C1010  C1012   1.409   .     A
C1011  C1013   1.418   .     A
C1011  O1037   1.386   .     S
C1012  C1014   1.418   .     A
C1012  O1042   1.386   .     S
C1013  C1019   1.418   .     A
C1013  C1015   1.422   .     A
C1014  C1016   1.422   .     A
C1014  C1020   1.418   .     A
C1015  C1017   1.408   .     A
C1015  C206    1.408   1_556 S
C1016  C1018   1.408   .     A
C1019  O1047   1.385   .     S
C1019  C183    1.400   1_556 S
C1020  O1052   1.385   .     S
Cu1021 O1033   1.964   .     S
Cu1021 N1027   2.037   .     S
Cu1021 Cu1022  2.710   .     S
Cu1021 O1031   1.955   .     S
Cu1021 O1029   1.956   .     S
Cu1021 O1035   1.962   .     S
Cu1022 N1028   2.037   .     S
Cu1022 O1034   1.964   .     S
Cu1022 O1036   1.962   .     S
Cu1022 O1030   1.956   .     S
Cu1022 O1032   1.955   .     S
O1037  C1038   1.415   .     S
C1038  H1041   1.115   .     S
C1038  H1040   1.106   .     S
C1038  H1039   1.109   .     S
O1042  C1043   1.415   .     S
C1043  H1044   1.115   .     S
C1043  H1045   1.107   .     S
C1043  H1046   1.109   .     S
O1047  C1048   1.412   .     S
C1048  H1050   1.109   .     S
C1048  H1051   1.111   .     S
C1048  H1049   1.115   .     S
O1052  C1053   1.412   .     S
C1053  H1055   1.115   .     S
C1053  H1056   1.111   .     S
C1053  H1054   1.109   .     S
C1057  H1058   1.084   .     S
C1057  O1059   1.220   .     D
C1060  H1061   1.084   .     S
C1060  O1062   1.220   .     D
C1063  H1064   1.085   .     S
C1063  O1065   1.221   .     D
C1066  H1067   1.085   .     S
C1066  O1068   1.221   .     D
C1069  O1071   1.220   .     D
C1069  H1070   1.083   .     S
C1072  O1074   1.220   .     D
C1072  H1073   1.083   .     S
C1075  O1077   1.220   .     D
C1075  H1076   1.079   .     S
C1078  O1080   1.220   .     D
C1078  H1079   1.079   .     S
C1081  C1090   1.448   .     S
C1081  O1119   1.300   .     A
C1081  O1122   1.293   .     A
C1082  O1121   1.293   .     A
C1082  O1120   1.300   .     A
C1082  C1089   1.448   .     S
C1083  C1108   1.395   .     A
C1083  H1115   1.084   .     S
C1084  H1116   1.084   .     S
C1084  C1107   1.395   .     A
C1084  C300    1.400   1_556 S
C1085  C1147   1.492   .     S
C1085  C1090   1.411   .     A
C1085  C1267   1.407   1_455 S
C1086  C1089   1.411   .     A
C1086  C1150   1.492   .     S
C1086  C1178   1.407   .     S
C1087  C1153   1.490   .     S
C1087  C1089   1.410   .     A
C1087  C1175   1.407   .     S
C1088  C1156   1.490   .     S
C1088  C1090   1.410   .     A
C1088  C1266   1.407   1_455 S
C1091  N1118   1.373   .     A
C1091  C1159   1.477   .     S
C1092  N1117   1.373   .     A
C1092  C1162   1.477   .     S
C1092  C1363   1.430   .     S
C1093  N1118   1.377   .     A
C1093  C1165   1.472   .     S
C1094  N1117   1.377   .     A
C1094  C1168   1.472   .     S
C1094  C1361   1.430   .     S
C1095  C1100   1.454   .     S
C1095  O1123   1.306   .     A
C1095  O1126   1.297   .     A
C1096  O1124   1.306   .     A
C1096  O1125   1.297   .     A
C1096  C1099   1.454   .     S
C1097  H1113   1.082   .     S
C1097  C1107   1.388   .     A
C1097  C1099   1.391   .     A
C1098  C1108   1.388   .     A
C1098  H1114   1.082   .     S
C1098  C1100   1.391   .     A
C1099  C1101   1.409   .     A
C1100  C1102   1.409   .     A
C1101  C1103   1.418   .     A
C1101  O1127   1.386   .     S
C1102  C1104   1.418   .     A
C1102  O1132   1.386   .     S
C1103  C1109   1.418   .     A
C1103  C1105   1.422   .     A
C1104  C1106   1.422   .     A
C1104  C1110   1.418   .     A
C1105  C1107   1.408   .     A
C1105  C296    1.408   1_556 S
C1106  C1108   1.408   .     A
C1109  O1137   1.385   .     S
C1109  C273    1.400   1_556 S
C1110  O1142   1.385   .     S
Cu1111 O1123   1.964   .     S
Cu1111 N1117   2.037   .     S
Cu1111 Cu1112  2.710   .     S
Cu1111 O1121   1.955   .     S
Cu1111 O1119   1.956   .     S
Cu1111 O1125   1.962   .     S
Cu1112 N1118   2.037   .     S
Cu1112 O1124   1.964   .     S
Cu1112 O1126   1.962   .     S
Cu1112 O1120   1.956   .     S
Cu1112 O1122   1.955   .     S
O1127  C1128   1.415   .     S
C1128  H1131   1.115   .     S
C1128  H1130   1.106   .     S
C1128  H1129   1.109   .     S
O1132  C1133   1.415   .     S
C1133  H1134   1.115   .     S
C1133  H1135   1.107   .     S
C1133  H1136   1.109   .     S
O1137  C1138   1.412   .     S
C1138  H1140   1.109   .     S
C1138  H1141   1.111   .     S
C1138  H1139   1.115   .     S
O1142  C1143   1.412   .     S
C1143  H1145   1.115   .     S
C1143  H1146   1.111   .     S
C1143  H1144   1.109   .     S
C1147  H1148   1.084   .     S
C1147  O1149   1.220   .     D
C1150  H1151   1.084   .     S
C1150  O1152   1.220   .     D
C1153  H1154   1.085   .     S
C1153  O1155   1.221   .     D
C1156  H1157   1.085   .     S
C1156  O1158   1.221   .     D
C1159  O1161   1.220   .     D
C1159  H1160   1.083   .     S
C1162  O1164   1.220   .     D
C1162  H1163   1.083   .     S
C1165  O1167   1.220   .     D
C1165  H1166   1.079   .     S
C1168  O1170   1.220   .     D
C1168  H1169   1.079   .     S
C1171  C1180   1.448   .     S
C1171  O1209   1.300   .     A
C1171  O1212   1.293   .     A
C1172  O1211   1.293   .     A
C1172  O1210   1.300   .     A
C1172  C1179   1.448   .     S
C1173  C1198   1.395   .     A
C1173  H1205   1.084   .     S
C1174  H1206   1.084   .     S
C1174  C1197   1.395   .     A
C1174  C390    1.400   1_556 S
C1175  C1237   1.492   .     S
C1175  C1180   1.411   .     A
C1176  C1179   1.411   .     A
C1176  C1240   1.492   .     S
C1176  C1268   1.407   .     S
C1177  C1243   1.490   .     S
C1177  C1179   1.410   .     A
C1177  C1265   1.407   .     S
C1178  C1246   1.490   .     S
C1178  C1180   1.410   .     A
C1181  N1208   1.373   .     A
C1181  C1249   1.477   .     S
C1182  N1207   1.373   .     A
C1182  C1252   1.477   .     S
C1182  C1453   1.430   .     S
C1183  N1208   1.377   .     A
C1183  C1255   1.472   .     S
C1184  N1207   1.377   .     A
C1184  C1258   1.472   .     S
C1184  C1451   1.430   .     S
C1185  C1190   1.454   .     S
C1185  O1213   1.306   .     A
C1185  O1216   1.297   .     A
C1186  O1214   1.306   .     A
C1186  O1215   1.297   .     A
C1186  C1189   1.454   .     S
C1187  H1203   1.082   .     S
C1187  C1197   1.388   .     A
C1187  C1189   1.391   .     A
C1188  C1198   1.388   .     A
C1188  H1204   1.082   .     S
C1188  C1190   1.391   .     A
C1189  C1191   1.409   .     A
C1190  C1192   1.409   .     A
C1191  C1193   1.418   .     A
C1191  O1217   1.386   .     S
C1192  C1194   1.418   .     A
C1192  O1222   1.386   .     S
C1193  C1199   1.418   .     A
C1193  C1195   1.422   .     A
C1194  C1196   1.422   .     A
C1194  C1200   1.418   .     A
C1195  C1197   1.408   .     A
C1195  C386    1.408   1_556 S
C1196  C1198   1.408   .     A
C1199  O1227   1.385   .     S
C1199  C363    1.400   1_556 S
C1200  O1232   1.385   .     S
Cu1201 O1213   1.964   .     S
Cu1201 N1207   2.037   .     S
Cu1201 Cu1202  2.710   .     S
Cu1201 O1211   1.955   .     S
Cu1201 O1209   1.956   .     S
Cu1201 O1215   1.962   .     S
Cu1202 N1208   2.037   .     S
Cu1202 O1214   1.964   .     S
Cu1202 O1216   1.962   .     S
Cu1202 O1210   1.956   .     S
Cu1202 O1212   1.955   .     S
O1217  C1218   1.415   .     S
C1218  H1221   1.115   .     S
C1218  H1220   1.106   .     S
C1218  H1219   1.109   .     S
O1222  C1223   1.415   .     S
C1223  H1224   1.115   .     S
C1223  H1225   1.107   .     S
C1223  H1226   1.109   .     S
O1227  C1228   1.412   .     S
C1228  H1230   1.109   .     S
C1228  H1231   1.111   .     S
C1228  H1229   1.115   .     S
O1232  C1233   1.412   .     S
C1233  H1235   1.115   .     S
C1233  H1236   1.111   .     S
C1233  H1234   1.109   .     S
C1237  H1238   1.084   .     S
C1237  O1239   1.220   .     D
C1240  H1241   1.084   .     S
C1240  O1242   1.220   .     D
C1243  H1244   1.085   .     S
C1243  O1245   1.221   .     D
C1246  H1247   1.085   .     S
C1246  O1248   1.221   .     D
C1249  O1251   1.220   .     D
C1249  H1250   1.083   .     S
C1252  O1254   1.220   .     D
C1252  H1253   1.083   .     S
C1255  O1257   1.220   .     D
C1255  H1256   1.079   .     S
C1258  O1260   1.220   .     D
C1258  H1259   1.079   .     S
C1261  C1270   1.448   .     S
C1261  O1299   1.300   .     A
C1261  O1302   1.293   .     A
C1262  O1301   1.293   .     A
C1262  O1300   1.300   .     A
C1262  C1269   1.448   .     S
C1263  C1288   1.395   .     A
C1263  H1295   1.084   .     S
C1264  H1296   1.084   .     S
C1264  C1287   1.395   .     A
C1264  C480    1.400   1_556 S
C1265  C1327   1.492   .     S
C1265  C1270   1.411   .     A
C1266  C1269   1.411   .     A
C1266  C1330   1.492   .     S
C1266  C1088   1.407   1_655 S
C1267  C1333   1.490   .     S
C1267  C1269   1.410   .     A
C1267  C1085   1.407   1_655 S
C1268  C1336   1.490   .     S
C1268  C1270   1.410   .     A
C1271  N1298   1.373   .     A
C1271  C1339   1.477   .     S
C1272  N1297   1.373   .     A
C1272  C1342   1.477   .     S
C1272  C1543   1.430   .     S
C1273  N1298   1.377   .     A
C1273  C1345   1.472   .     S
C1274  N1297   1.377   .     A
C1274  C1348   1.472   .     S
C1274  C1541   1.430   .     S
C1275  C1280   1.454   .     S
C1275  O1303   1.306   .     A
C1275  O1306   1.297   .     A
C1276  O1304   1.306   .     A
C1276  O1305   1.297   .     A
C1276  C1279   1.454   .     S
C1277  H1293   1.082   .     S
C1277  C1287   1.388   .     A
C1277  C1279   1.391   .     A
C1278  C1288   1.388   .     A
C1278  H1294   1.082   .     S
C1278  C1280   1.391   .     A
C1279  C1281   1.409   .     A
C1280  C1282   1.409   .     A
C1281  C1283   1.418   .     A
C1281  O1307   1.386   .     S
C1282  C1284   1.418   .     A
C1282  O1312   1.386   .     S
C1283  C1289   1.418   .     A
C1283  C1285   1.422   .     A
C1284  C1286   1.422   .     A
C1284  C1290   1.418   .     A
C1285  C1287   1.408   .     A
C1285  C476    1.408   1_556 S
C1286  C1288   1.408   .     A
C1289  O1317   1.385   .     S
C1289  C453    1.400   1_556 S
C1290  O1322   1.385   .     S
Cu1291 O1303   1.964   .     S
Cu1291 N1297   2.037   .     S
Cu1291 Cu1292  2.710   .     S
Cu1291 O1301   1.955   .     S
Cu1291 O1299   1.956   .     S
Cu1291 O1305   1.962   .     S
Cu1292 N1298   2.037   .     S
Cu1292 O1304   1.964   .     S
Cu1292 O1306   1.962   .     S
Cu1292 O1300   1.956   .     S
Cu1292 O1302   1.955   .     S
O1307  C1308   1.415   .     S
C1308  H1311   1.115   .     S
C1308  H1310   1.106   .     S
C1308  H1309   1.109   .     S
O1312  C1313   1.415   .     S
C1313  H1314   1.115   .     S
C1313  H1315   1.107   .     S
C1313  H1316   1.109   .     S
O1317  C1318   1.412   .     S
C1318  H1320   1.109   .     S
C1318  H1321   1.111   .     S
C1318  H1319   1.115   .     S
O1322  C1323   1.412   .     S
C1323  H1325   1.115   .     S
C1323  H1326   1.111   .     S
C1323  H1324   1.109   .     S
C1327  H1328   1.084   .     S
C1327  O1329   1.220   .     D
C1330  H1331   1.084   .     S
C1330  O1332   1.220   .     D
C1333  H1334   1.085   .     S
C1333  O1335   1.221   .     D
C1336  H1337   1.085   .     S
C1336  O1338   1.221   .     D
C1339  O1341   1.220   .     D
C1339  H1340   1.083   .     S
C1342  O1344   1.220   .     D
C1342  H1343   1.083   .     S
C1345  O1347   1.220   .     D
C1345  H1346   1.079   .     S
C1348  O1350   1.220   .     D
C1348  H1349   1.079   .     S
C1351  C1360   1.448   .     S
C1351  O1389   1.300   .     A
C1351  O1392   1.293   .     A
C1352  O1391   1.293   .     A
C1352  O1390   1.300   .     A
C1352  C1359   1.448   .     S
C1353  C1378   1.395   .     A
C1353  H1385   1.084   .     S
C1354  H1386   1.084   .     S
C1354  C1377   1.395   .     A
C1354  C570    1.400   1_556 S
C1355  C1417   1.492   .     S
C1355  C1360   1.411   .     A
C1355  C1537   1.407   1_455 S
C1356  C1359   1.411   .     A
C1356  C1420   1.492   .     S
C1356  C1448   1.407   .     S
C1357  C1423   1.490   .     S
C1357  C1359   1.410   .     A
C1357  C1445   1.407   .     S
C1358  C1426   1.490   .     S
C1358  C1360   1.410   .     A
C1358  C1536   1.407   1_455 S
C1361  N1388   1.373   .     A
C1361  C1429   1.477   .     S
C1362  N1387   1.373   .     A
C1362  C1432   1.477   .     S
C1362  C823    1.430   1_565 S
C1363  N1388   1.377   .     A
C1363  C1435   1.472   .     S
C1364  N1387   1.377   .     A
C1364  C1438   1.472   .     S
C1364  C821    1.430   1_565 S
C1365  C1370   1.454   .     S
C1365  O1393   1.306   .     A
C1365  O1396   1.297   .     A
C1366  O1394   1.306   .     A
C1366  O1395   1.297   .     A
C1366  C1369   1.454   .     S
C1367  H1383   1.082   .     S
C1367  C1377   1.388   .     A
C1367  C1369   1.391   .     A
C1368  C1378   1.388   .     A
C1368  H1384   1.082   .     S
C1368  C1370   1.391   .     A
C1369  C1371   1.409   .     A
C1370  C1372   1.409   .     A
C1371  C1373   1.418   .     A
C1371  O1397   1.386   .     S
C1372  C1374   1.418   .     A
C1372  O1402   1.386   .     S
C1373  C1379   1.418   .     A
C1373  C1375   1.422   .     A
C1374  C1376   1.422   .     A
C1374  C1380   1.418   .     A
C1375  C1377   1.408   .     A
C1375  C566    1.408   1_556 S
C1376  C1378   1.408   .     A
C1379  O1407   1.385   .     S
C1379  C543    1.400   1_556 S
C1380  O1412   1.385   .     S
Cu1381 O1393   1.964   .     S
Cu1381 N1387   2.037   .     S
Cu1381 Cu1382  2.710   .     S
Cu1381 O1391   1.955   .     S
Cu1381 O1389   1.956   .     S
Cu1381 O1395   1.962   .     S
Cu1382 N1388   2.037   .     S
Cu1382 O1394   1.964   .     S
Cu1382 O1396   1.962   .     S
Cu1382 O1390   1.956   .     S
Cu1382 O1392   1.955   .     S
O1397  C1398   1.415   .     S
C1398  H1401   1.115   .     S
C1398  H1400   1.106   .     S
C1398  H1399   1.109   .     S
O1402  C1403   1.415   .     S
C1403  H1404   1.115   .     S
C1403  H1405   1.107   .     S
C1403  H1406   1.109   .     S
O1407  C1408   1.412   .     S
C1408  H1410   1.109   .     S
C1408  H1411   1.111   .     S
C1408  H1409   1.115   .     S
O1412  C1413   1.412   .     S
C1413  H1415   1.115   .     S
C1413  H1416   1.111   .     S
C1413  H1414   1.109   .     S
C1417  H1418   1.084   .     S
C1417  O1419   1.220   .     D
C1420  H1421   1.084   .     S
C1420  O1422   1.220   .     D
C1423  H1424   1.085   .     S
C1423  O1425   1.221   .     D
C1426  H1427   1.085   .     S
C1426  O1428   1.221   .     D
C1429  O1431   1.220   .     D
C1429  H1430   1.083   .     S
C1432  O1434   1.220   .     D
C1432  H1433   1.083   .     S
C1435  O1437   1.220   .     D
C1435  H1436   1.079   .     S
C1438  O1440   1.220   .     D
C1438  H1439   1.079   .     S
C1441  C1450   1.448   .     S
C1441  O1479   1.300   .     A
C1441  O1482   1.293   .     A
C1442  O1481   1.293   .     A
C1442  O1480   1.300   .     A
C1442  C1449   1.448   .     S
C1443  C1468   1.395   .     A
C1443  H1475   1.084   .     S
C1444  H1476   1.084   .     S
C1444  C1467   1.395   .     A
C1444  C660    1.400   1_556 S
C1445  C1507   1.492   .     S
C1445  C1450   1.411   .     A
C1446  C1449   1.411   .     A
C1446  C1510   1.492   .     S
C1446  C1538   1.407   .     S
C1447  C1513   1.490   .     S
C1447  C1449   1.410   .     A
C1447  C1535   1.407   .     S
C1448  C1516   1.490   .     S
C1448  C1450   1.410   .     A
C1451  N1478   1.373   .     A
C1451  C1519   1.477   .     S
C1452  N1477   1.373   .     A
C1452  C1522   1.477   .     S
C1452  C913    1.430   1_565 S
C1453  N1478   1.377   .     A
C1453  C1525   1.472   .     S
C1454  N1477   1.377   .     A
C1454  C1528   1.472   .     S
C1454  C911    1.430   1_565 S
C1455  C1460   1.454   .     S
C1455  O1483   1.306   .     A
C1455  O1486   1.297   .     A
C1456  O1484   1.306   .     A
C1456  O1485   1.297   .     A
C1456  C1459   1.454   .     S
C1457  H1473   1.082   .     S
C1457  C1467   1.388   .     A
C1457  C1459   1.391   .     A
C1458  C1468   1.388   .     A
C1458  H1474   1.082   .     S
C1458  C1460   1.391   .     A
C1459  C1461   1.409   .     A
C1460  C1462   1.409   .     A
C1461  C1463   1.418   .     A
C1461  O1487   1.386   .     S
C1462  C1464   1.418   .     A
C1462  O1492   1.386   .     S
C1463  C1469   1.418   .     A
C1463  C1465   1.422   .     A
C1464  C1466   1.422   .     A
C1464  C1470   1.418   .     A
C1465  C1467   1.408   .     A
C1465  C656    1.408   1_556 S
C1466  C1468   1.408   .     A
C1469  O1497   1.385   .     S
C1469  C633    1.400   1_556 S
C1470  O1502   1.385   .     S
Cu1471 O1483   1.964   .     S
Cu1471 N1477   2.037   .     S
Cu1471 Cu1472  2.710   .     S
Cu1471 O1481   1.955   .     S
Cu1471 O1479   1.956   .     S
Cu1471 O1485   1.962   .     S
Cu1472 N1478   2.037   .     S
Cu1472 O1484   1.964   .     S
Cu1472 O1486   1.962   .     S
Cu1472 O1480   1.956   .     S
Cu1472 O1482   1.955   .     S
O1487  C1488   1.415   .     S
C1488  H1491   1.115   .     S
C1488  H1490   1.106   .     S
C1488  H1489   1.109   .     S
O1492  C1493   1.415   .     S
C1493  H1494   1.115   .     S
C1493  H1495   1.107   .     S
C1493  H1496   1.109   .     S
O1497  C1498   1.412   .     S
C1498  H1500   1.109   .     S
C1498  H1501   1.111   .     S
C1498  H1499   1.115   .     S
O1502  C1503   1.412   .     S
C1503  H1505   1.115   .     S
C1503  H1506   1.111   .     S
C1503  H1504   1.109   .     S
C1507  H1508   1.084   .     S
C1507  O1509   1.220   .     D
C1510  H1511   1.084   .     S
C1510  O1512   1.220   .     D
C1513  H1514   1.085   .     S
C1513  O1515   1.221   .     D
C1516  H1517   1.085   .     S
C1516  O1518   1.221   .     D
C1519  O1521   1.220   .     D
C1519  H1520   1.083   .     S
C1522  O1524   1.220   .     D
C1522  H1523   1.083   .     S
C1525  O1527   1.220   .     D
C1525  H1526   1.079   .     S
C1528  O1530   1.220   .     D
C1528  H1529   1.079   .     S
C1531  C1540   1.448   .     S
C1531  O1569   1.300   .     A
C1531  O1572   1.293   .     A
C1532  O1571   1.293   .     A
C1532  O1570   1.300   .     A
C1532  C1539   1.448   .     S
C1533  C1558   1.395   .     A
C1533  H1565   1.084   .     S
C1534  H1566   1.084   .     S
C1534  C1557   1.395   .     A
C1534  C750    1.400   1_556 S
C1535  C1597   1.492   .     S
C1535  C1540   1.411   .     A
C1536  C1539   1.411   .     A
C1536  C1600   1.492   .     S
C1536  C1358   1.407   1_655 S
C1537  C1603   1.490   .     S
C1537  C1539   1.410   .     A
C1537  C1355   1.407   1_655 S
C1538  C1606   1.490   .     S
C1538  C1540   1.410   .     A
C1541  N1568   1.373   .     A
C1541  C1609   1.477   .     S
C1542  N1567   1.373   .     A
C1542  C1612   1.477   .     S
C1542  C1003   1.430   1_565 S
C1543  N1568   1.377   .     A
C1543  C1615   1.472   .     S
C1544  N1567   1.377   .     A
C1544  C1618   1.472   .     S
C1544  C1001   1.430   1_565 S
C1545  C1550   1.454   .     S
C1545  O1573   1.306   .     A
C1545  O1576   1.297   .     A
C1546  O1574   1.306   .     A
C1546  O1575   1.297   .     A
C1546  C1549   1.454   .     S
C1547  H1563   1.082   .     S
C1547  C1557   1.388   .     A
C1547  C1549   1.391   .     A
C1548  C1558   1.388   .     A
C1548  H1564   1.082   .     S
C1548  C1550   1.391   .     A
C1549  C1551   1.409   .     A
C1550  C1552   1.409   .     A
C1551  C1553   1.418   .     A
C1551  O1577   1.386   .     S
C1552  C1554   1.418   .     A
C1552  O1582   1.386   .     S
C1553  C1559   1.418   .     A
C1553  C1555   1.422   .     A
C1554  C1556   1.422   .     A
C1554  C1560   1.418   .     A
C1555  C1557   1.408   .     A
C1555  C746    1.408   1_556 S
C1556  C1558   1.408   .     A
C1559  O1587   1.385   .     S
C1559  C723    1.400   1_556 S
C1560  O1592   1.385   .     S
Cu1561 O1573   1.964   .     S
Cu1561 N1567   2.037   .     S
Cu1561 Cu1562  2.710   .     S
Cu1561 O1571   1.955   .     S
Cu1561 O1569   1.956   .     S
Cu1561 O1575   1.962   .     S
Cu1562 N1568   2.037   .     S
Cu1562 O1574   1.964   .     S
Cu1562 O1576   1.962   .     S
Cu1562 O1570   1.956   .     S
Cu1562 O1572   1.955   .     S
O1577  C1578   1.415   .     S
C1578  H1581   1.115   .     S
C1578  H1580   1.106   .     S
C1578  H1579   1.109   .     S
O1582  C1583   1.415   .     S
C1583  H1584   1.115   .     S
C1583  H1585   1.107   .     S
C1583  H1586   1.109   .     S
O1587  C1588   1.412   .     S
C1588  H1590   1.109   .     S
C1588  H1591   1.111   .     S
C1588  H1589   1.115   .     S
O1592  C1593   1.412   .     S
C1593  H1595   1.115   .     S
C1593  H1596   1.111   .     S
C1593  H1594   1.109   .     S
C1597  H1598   1.084   .     S
C1597  O1599   1.220   .     D
C1600  H1601   1.084   .     S
C1600  O1602   1.220   .     D
C1603  H1604   1.085   .     S
C1603  O1605   1.221   .     D
C1606  H1607   1.085   .     S
C1606  O1608   1.221   .     D
C1609  O1611   1.220   .     D
C1609  H1610   1.083   .     S
C1612  O1614   1.220   .     D
C1612  H1613   1.083   .     S
C1615  O1617   1.220   .     D
C1615  H1616   1.079   .     S
C1618  O1620   1.220   .     D
C1618  H1619   1.079   .     S
