data_str_m2_o10_o17_pcu_sym.173
_audit_creation_date              2020-01-03
_audit_creation_method            'Materials Studio'
_symmetry_space_group_name_H-M    'P1'
_symmetry_Int_Tables_number       1
_symmetry_cell_setting            triclinic
loop_
_symmetry_equiv_pos_as_xyz
  x,y,z
_cell_length_a                    29.8873
_cell_length_b                    25.9969
_cell_length_c                    22.6592
_cell_angle_alpha                 103.6014
_cell_angle_beta                  94.0275
_cell_angle_gamma                 92.8328
loop_
_atom_site_label
_atom_site_type_symbol
_atom_site_fract_x
_atom_site_fract_y
_atom_site_fract_z
_atom_site_U_iso_or_equiv
_atom_site_adp_type
_atom_site_occupancy
O1     O     0.25325   0.09538   0.20659   0.00000  Uiso   1.00
O2     O     0.24674   0.23796   0.12674   0.00000  Uiso   1.00
O3     O     0.24480   0.08559   0.10279   0.00000  Uiso   1.00
O4     O     0.25520   0.24774   0.23055   0.00000  Uiso   1.00
C5     C     0.24842   0.06663   0.15100   0.00000  Uiso   1.00
C6     C     0.25160   0.26670   0.18233   0.00000  Uiso   1.00
O7     O     0.18935   0.17155   0.21857   0.00000  Uiso   1.00
O8     O     0.31064   0.16179   0.11476   0.00000  Uiso   1.00
O9     O     0.18090   0.16176   0.11477   0.00000  Uiso   1.00
O10    O     0.31910   0.17157   0.21857   0.00000  Uiso   1.00
C11    C     0.16478   0.16603   0.16729   0.00000  Uiso   1.00
C12    C     0.33522   0.16731   0.16604   0.00000  Uiso   1.00
Cu13   Cu    0.25500   0.17246   0.22813   0.00000  Uiso   1.00
Cu14   Cu    0.24499   0.16087   0.10521   0.00000  Uiso   1.00
C15    C     0.40988   0.21662   0.19188   0.00000  Uiso   1.00
C16    C     0.09012   0.11672   0.14145   0.00000  Uiso   1.00
C17    C     0.38342   0.16935   0.16519   0.00000  Uiso   1.00
C18    C     0.11658   0.16399   0.16815   0.00000  Uiso   1.00
C19    C     0.40264   0.12216   0.14099   0.00000  Uiso   1.00
C20    C     0.09736   0.21117   0.19236   0.00000  Uiso   1.00
C21    C     0.44897   0.12069   0.14238   0.00000  Uiso   1.00
C22    C     0.05103   0.21265   0.19097   0.00000  Uiso   1.00
C23    C     0.47651   0.16755   0.16682   0.00000  Uiso   1.00
C24    C     0.02349   0.16579   0.16653   0.00000  Uiso   1.00
C25    C     0.45715   0.21609   0.19125   0.00000  Uiso   1.00
C26    C     0.04285   0.11725   0.14208   0.00000  Uiso   1.00
C27    C     0.46801   0.07271   0.12009   0.00000  Uiso   1.00
C28    C     0.03199   0.26063   0.21327   0.00000  Uiso   1.00
C29    C     0.01437   0.07077   0.12064   0.00000  Uiso   1.00
C30    C     0.48563   0.26257   0.21271   0.00000  Uiso   1.00
H31    H     0.38125   0.08624   0.12204   0.00000  Uiso   1.00
H32    H     0.11875   0.24709   0.21133   0.00000  Uiso   1.00
H33    H     0.44698   0.03638   0.10254   0.00000  Uiso   1.00
H34    H     0.05302   0.29696   0.23082   0.00000  Uiso   1.00
H35    H     0.02721   0.03229   0.10480   0.00000  Uiso   1.00
H36    H     0.47279   0.30104   0.22855   0.00000  Uiso   1.00
C37    C     0.24672   0.01036   0.14258   0.00000  Uiso   1.00
C38    C     0.25333   0.32297   0.19074   0.00000  Uiso   1.00
H39    H     0.23961   0.31926   0.09653   0.00000  Uiso   1.00
H40    H     0.26046   0.01407   0.23680   0.00000  Uiso   1.00
N41    N     0.23744   0.15214   0.01284   0.00000  Uiso   1.00
N42    N     0.26255   0.18119   0.32049   0.00000  Uiso   1.00
C43    C     0.38706   0.26531   0.21893   0.00000  Uiso   1.00
H44    H     0.35577   0.27363   0.19680   0.00000  Uiso   1.00
O45    O     0.40143   0.29476   0.26757   0.00000  Uiso   1.00
C46    C     0.11293   0.06804   0.11437   0.00000  Uiso   1.00
H47    H     0.14423   0.05972   0.13647   0.00000  Uiso   1.00
O48    O     0.09855   0.03859   0.06573   0.00000  Uiso   1.00
C49    C     0.19208   0.14113   0.32226   0.00000  Uiso   1.00
C50    C     0.17601   0.08855   0.29608   0.00000  Uiso   1.00
C51    C     0.13003   0.07601   0.28011   0.00000  Uiso   1.00
C52    C     0.09966   0.11564   0.29209   0.00000  Uiso   1.00
C53    C     0.11529   0.16803   0.31928   0.00000  Uiso   1.00
C54    C     0.16134   0.18090   0.00087   0.00000  Uiso   1.00
H55    H     0.19899   0.05723   0.28916   0.00000  Uiso   1.00
H56    H     0.11789   0.03540   0.25949   0.00000  Uiso   1.00
H57    H     0.06403   0.10576   0.28031   0.00000  Uiso   1.00
H58    H     0.09171   0.19863   0.32886   0.00000  Uiso   1.00
H59    H     0.17311   0.22139   0.02301   0.00000  Uiso   1.00
C60    C     0.30795   0.19200   0.01097   0.00000  Uiso   1.00
C61    C     0.33853   0.15206   0.33231   0.00000  Uiso   1.00
C62    C     0.38462   0.16470   0.01378   0.00000  Uiso   1.00
C63    C     0.40044   0.21703   0.04093   0.00000  Uiso   1.00
C64    C     0.37022   0.25682   0.05298   0.00000  Uiso   1.00
C65    C     0.32421   0.24452   0.03713   0.00000  Uiso   1.00
H66    H     0.32661   0.11162   0.31020   0.00000  Uiso   1.00
H67    H     0.40806   0.13397   0.00416   0.00000  Uiso   1.00
H68    H     0.43609   0.22673   0.05262   0.00000  Uiso   1.00
H69    H     0.38252   0.29738   0.07359   0.00000  Uiso   1.00
H70    H     0.30134   0.27596   0.04413   0.00000  Uiso   1.00
O71    O     0.75325   0.09538   0.20659   0.00000  Uiso   1.00
O72    O     0.74674   0.23796   0.12674   0.00000  Uiso   1.00
O73    O     0.74480   0.08559   0.10279   0.00000  Uiso   1.00
O74    O     0.75520   0.24774   0.23055   0.00000  Uiso   1.00
C75    C     0.74842   0.06663   0.15100   0.00000  Uiso   1.00
C76    C     0.75160   0.26670   0.18233   0.00000  Uiso   1.00
O77    O     0.68935   0.17155   0.21857   0.00000  Uiso   1.00
O78    O     0.81064   0.16179   0.11476   0.00000  Uiso   1.00
O79    O     0.68090   0.16176   0.11477   0.00000  Uiso   1.00
O80    O     0.81910   0.17157   0.21857   0.00000  Uiso   1.00
C81    C     0.66478   0.16603   0.16729   0.00000  Uiso   1.00
C82    C     0.83522   0.16731   0.16604   0.00000  Uiso   1.00
Cu83   Cu    0.75500   0.17246   0.22813   0.00000  Uiso   1.00
Cu84   Cu    0.74499   0.16087   0.10521   0.00000  Uiso   1.00
C85    C     0.90988   0.21662   0.19188   0.00000  Uiso   1.00
C86    C     0.59012   0.11672   0.14145   0.00000  Uiso   1.00
C87    C     0.88342   0.16935   0.16519   0.00000  Uiso   1.00
C88    C     0.61658   0.16399   0.16815   0.00000  Uiso   1.00
C89    C     0.90264   0.12216   0.14099   0.00000  Uiso   1.00
C90    C     0.59736   0.21117   0.19236   0.00000  Uiso   1.00
C91    C     0.94897   0.12069   0.14238   0.00000  Uiso   1.00
C92    C     0.55103   0.21265   0.19097   0.00000  Uiso   1.00
C93    C     0.97651   0.16755   0.16682   0.00000  Uiso   1.00
C94    C     0.52349   0.16579   0.16653   0.00000  Uiso   1.00
C95    C     0.95715   0.21609   0.19125   0.00000  Uiso   1.00
C96    C     0.54285   0.11725   0.14208   0.00000  Uiso   1.00
C97    C     0.96801   0.07271   0.12009   0.00000  Uiso   1.00
C98    C     0.53199   0.26063   0.21327   0.00000  Uiso   1.00
C99    C     0.51437   0.07077   0.12064   0.00000  Uiso   1.00
C100   C     0.98563   0.26257   0.21271   0.00000  Uiso   1.00
H101   H     0.88125   0.08624   0.12204   0.00000  Uiso   1.00
H102   H     0.61875   0.24709   0.21133   0.00000  Uiso   1.00
H103   H     0.94698   0.03638   0.10254   0.00000  Uiso   1.00
H104   H     0.55302   0.29696   0.23082   0.00000  Uiso   1.00
H105   H     0.52721   0.03229   0.10480   0.00000  Uiso   1.00
H106   H     0.97279   0.30104   0.22855   0.00000  Uiso   1.00
C107   C     0.74672   0.01036   0.14258   0.00000  Uiso   1.00
C108   C     0.75333   0.32297   0.19074   0.00000  Uiso   1.00
H109   H     0.73961   0.31926   0.09653   0.00000  Uiso   1.00
H110   H     0.76046   0.01407   0.23680   0.00000  Uiso   1.00
N111   N     0.73744   0.15214   0.01284   0.00000  Uiso   1.00
N112   N     0.76255   0.18119   0.32049   0.00000  Uiso   1.00
C113   C     0.88706   0.26531   0.21893   0.00000  Uiso   1.00
H114   H     0.85577   0.27363   0.19680   0.00000  Uiso   1.00
O115   O     0.90143   0.29476   0.26757   0.00000  Uiso   1.00
C116   C     0.61293   0.06804   0.11437   0.00000  Uiso   1.00
H117   H     0.64423   0.05972   0.13647   0.00000  Uiso   1.00
O118   O     0.59855   0.03859   0.06573   0.00000  Uiso   1.00
C119   C     0.69208   0.14113   0.32226   0.00000  Uiso   1.00
C120   C     0.67601   0.08855   0.29608   0.00000  Uiso   1.00
C121   C     0.63003   0.07601   0.28011   0.00000  Uiso   1.00
C122   C     0.59966   0.11564   0.29209   0.00000  Uiso   1.00
C123   C     0.61529   0.16803   0.31928   0.00000  Uiso   1.00
C124   C     0.66134   0.18090   0.00087   0.00000  Uiso   1.00
H125   H     0.69899   0.05723   0.28916   0.00000  Uiso   1.00
H126   H     0.61789   0.03540   0.25949   0.00000  Uiso   1.00
H127   H     0.56403   0.10576   0.28031   0.00000  Uiso   1.00
H128   H     0.59171   0.19863   0.32886   0.00000  Uiso   1.00
H129   H     0.67311   0.22139   0.02301   0.00000  Uiso   1.00
C130   C     0.80795   0.19200   0.01097   0.00000  Uiso   1.00
C131   C     0.83853   0.15206   0.33231   0.00000  Uiso   1.00
C132   C     0.88462   0.16470   0.01378   0.00000  Uiso   1.00
C133   C     0.90044   0.21703   0.04093   0.00000  Uiso   1.00
C134   C     0.87022   0.25682   0.05298   0.00000  Uiso   1.00
C135   C     0.82421   0.24452   0.03713   0.00000  Uiso   1.00
H136   H     0.82661   0.11162   0.31020   0.00000  Uiso   1.00
H137   H     0.90806   0.13397   0.00416   0.00000  Uiso   1.00
H138   H     0.93609   0.22673   0.05262   0.00000  Uiso   1.00
H139   H     0.88252   0.29738   0.07359   0.00000  Uiso   1.00
H140   H     0.80134   0.27596   0.04413   0.00000  Uiso   1.00
O141   O     0.25325   0.42871   0.20659   0.00000  Uiso   1.00
O142   O     0.24674   0.57129   0.12674   0.00000  Uiso   1.00
O143   O     0.24480   0.41892   0.10279   0.00000  Uiso   1.00
O144   O     0.25520   0.58108   0.23055   0.00000  Uiso   1.00
C145   C     0.24842   0.39997   0.15100   0.00000  Uiso   1.00
C146   C     0.25160   0.60004   0.18233   0.00000  Uiso   1.00
O147   O     0.18935   0.50488   0.21857   0.00000  Uiso   1.00
O148   O     0.31064   0.49512   0.11476   0.00000  Uiso   1.00
O149   O     0.18090   0.49510   0.11477   0.00000  Uiso   1.00
O150   O     0.31910   0.50490   0.21857   0.00000  Uiso   1.00
C151   C     0.16478   0.49936   0.16729   0.00000  Uiso   1.00
C152   C     0.33522   0.50064   0.16604   0.00000  Uiso   1.00
Cu153  Cu    0.25500   0.50579   0.22813   0.00000  Uiso   1.00
Cu154  Cu    0.24499   0.49421   0.10521   0.00000  Uiso   1.00
C155   C     0.40988   0.54995   0.19188   0.00000  Uiso   1.00
C156   C     0.09012   0.45005   0.14145   0.00000  Uiso   1.00
C157   C     0.38342   0.50268   0.16519   0.00000  Uiso   1.00
C158   C     0.11658   0.49732   0.16815   0.00000  Uiso   1.00
C159   C     0.40264   0.45550   0.14099   0.00000  Uiso   1.00
C160   C     0.09736   0.54450   0.19236   0.00000  Uiso   1.00
C161   C     0.44897   0.45402   0.14238   0.00000  Uiso   1.00
C162   C     0.05103   0.54598   0.19097   0.00000  Uiso   1.00
C163   C     0.47651   0.50088   0.16682   0.00000  Uiso   1.00
C164   C     0.02349   0.49912   0.16653   0.00000  Uiso   1.00
C165   C     0.45715   0.54942   0.19125   0.00000  Uiso   1.00
C166   C     0.04285   0.45058   0.14208   0.00000  Uiso   1.00
C167   C     0.46801   0.40604   0.12009   0.00000  Uiso   1.00
C168   C     0.03199   0.59396   0.21327   0.00000  Uiso   1.00
C169   C     0.01437   0.40410   0.12064   0.00000  Uiso   1.00
C170   C     0.48563   0.59590   0.21271   0.00000  Uiso   1.00
H171   H     0.38125   0.41957   0.12204   0.00000  Uiso   1.00
H172   H     0.11875   0.58042   0.21133   0.00000  Uiso   1.00
H173   H     0.44698   0.36971   0.10254   0.00000  Uiso   1.00
H174   H     0.05302   0.63029   0.23082   0.00000  Uiso   1.00
H175   H     0.02721   0.36563   0.10480   0.00000  Uiso   1.00
H176   H     0.47279   0.63438   0.22855   0.00000  Uiso   1.00
C177   C     0.24672   0.34369   0.14258   0.00000  Uiso   1.00
C178   C     0.25333   0.65631   0.19074   0.00000  Uiso   1.00
H179   H     0.23961   0.65260   0.09653   0.00000  Uiso   1.00
H180   H     0.26046   0.34740   0.23680   0.00000  Uiso   1.00
N181   N     0.23744   0.48547   0.01284   0.00000  Uiso   1.00
N182   N     0.26255   0.51453   0.32049   0.00000  Uiso   1.00
C183   C     0.38706   0.59864   0.21893   0.00000  Uiso   1.00
H184   H     0.35577   0.60696   0.19680   0.00000  Uiso   1.00
O185   O     0.40143   0.62809   0.26757   0.00000  Uiso   1.00
C186   C     0.11293   0.40137   0.11437   0.00000  Uiso   1.00
H187   H     0.14423   0.39305   0.13647   0.00000  Uiso   1.00
O188   O     0.09855   0.37192   0.06573   0.00000  Uiso   1.00
C189   C     0.19208   0.47447   0.32226   0.00000  Uiso   1.00
C190   C     0.17601   0.42188   0.29608   0.00000  Uiso   1.00
C191   C     0.13003   0.40935   0.28011   0.00000  Uiso   1.00
C192   C     0.09966   0.44898   0.29209   0.00000  Uiso   1.00
C193   C     0.11529   0.50136   0.31928   0.00000  Uiso   1.00
C194   C     0.16134   0.51424   0.00087   0.00000  Uiso   1.00
H195   H     0.19899   0.39056   0.28916   0.00000  Uiso   1.00
H196   H     0.11789   0.36874   0.25949   0.00000  Uiso   1.00
H197   H     0.06403   0.43909   0.28031   0.00000  Uiso   1.00
H198   H     0.09171   0.53196   0.32886   0.00000  Uiso   1.00
H199   H     0.17311   0.55472   0.02301   0.00000  Uiso   1.00
C200   C     0.30795   0.52533   0.01097   0.00000  Uiso   1.00
C201   C     0.33853   0.48539   0.33231   0.00000  Uiso   1.00
C202   C     0.38462   0.49804   0.01378   0.00000  Uiso   1.00
C203   C     0.40044   0.55036   0.04093   0.00000  Uiso   1.00
C204   C     0.37022   0.59016   0.05298   0.00000  Uiso   1.00
C205   C     0.32421   0.57786   0.03713   0.00000  Uiso   1.00
H206   H     0.32661   0.44496   0.31020   0.00000  Uiso   1.00
H207   H     0.40806   0.46731   0.00416   0.00000  Uiso   1.00
H208   H     0.43609   0.56006   0.05262   0.00000  Uiso   1.00
H209   H     0.38252   0.63071   0.07359   0.00000  Uiso   1.00
H210   H     0.30134   0.60930   0.04413   0.00000  Uiso   1.00
O211   O     0.75325   0.42871   0.20659   0.00000  Uiso   1.00
O212   O     0.74674   0.57129   0.12674   0.00000  Uiso   1.00
O213   O     0.74480   0.41892   0.10279   0.00000  Uiso   1.00
O214   O     0.75520   0.58108   0.23055   0.00000  Uiso   1.00
C215   C     0.74842   0.39997   0.15100   0.00000  Uiso   1.00
C216   C     0.75160   0.60004   0.18233   0.00000  Uiso   1.00
O217   O     0.68935   0.50488   0.21857   0.00000  Uiso   1.00
O218   O     0.81064   0.49512   0.11476   0.00000  Uiso   1.00
O219   O     0.68090   0.49510   0.11477   0.00000  Uiso   1.00
O220   O     0.81910   0.50490   0.21857   0.00000  Uiso   1.00
C221   C     0.66478   0.49936   0.16729   0.00000  Uiso   1.00
C222   C     0.83522   0.50064   0.16604   0.00000  Uiso   1.00
Cu223  Cu    0.75500   0.50579   0.22813   0.00000  Uiso   1.00
Cu224  Cu    0.74499   0.49421   0.10521   0.00000  Uiso   1.00
C225   C     0.90988   0.54995   0.19188   0.00000  Uiso   1.00
C226   C     0.59012   0.45005   0.14145   0.00000  Uiso   1.00
C227   C     0.88342   0.50268   0.16519   0.00000  Uiso   1.00
C228   C     0.61658   0.49732   0.16815   0.00000  Uiso   1.00
C229   C     0.90264   0.45550   0.14099   0.00000  Uiso   1.00
C230   C     0.59736   0.54450   0.19236   0.00000  Uiso   1.00
C231   C     0.94897   0.45402   0.14238   0.00000  Uiso   1.00
C232   C     0.55103   0.54598   0.19097   0.00000  Uiso   1.00
C233   C     0.97651   0.50088   0.16682   0.00000  Uiso   1.00
C234   C     0.52349   0.49912   0.16653   0.00000  Uiso   1.00
C235   C     0.95715   0.54942   0.19125   0.00000  Uiso   1.00
C236   C     0.54285   0.45058   0.14208   0.00000  Uiso   1.00
C237   C     0.96801   0.40604   0.12009   0.00000  Uiso   1.00
C238   C     0.53199   0.59396   0.21327   0.00000  Uiso   1.00
C239   C     0.51437   0.40410   0.12064   0.00000  Uiso   1.00
C240   C     0.98563   0.59590   0.21271   0.00000  Uiso   1.00
H241   H     0.88125   0.41957   0.12204   0.00000  Uiso   1.00
H242   H     0.61875   0.58042   0.21133   0.00000  Uiso   1.00
H243   H     0.94698   0.36971   0.10254   0.00000  Uiso   1.00
H244   H     0.55302   0.63029   0.23082   0.00000  Uiso   1.00
H245   H     0.52721   0.36563   0.10480   0.00000  Uiso   1.00
H246   H     0.97279   0.63438   0.22855   0.00000  Uiso   1.00
C247   C     0.74672   0.34369   0.14258   0.00000  Uiso   1.00
C248   C     0.75333   0.65631   0.19074   0.00000  Uiso   1.00
H249   H     0.73961   0.65260   0.09653   0.00000  Uiso   1.00
H250   H     0.76046   0.34740   0.23680   0.00000  Uiso   1.00
N251   N     0.73744   0.48547   0.01284   0.00000  Uiso   1.00
N252   N     0.76255   0.51453   0.32049   0.00000  Uiso   1.00
C253   C     0.88706   0.59864   0.21893   0.00000  Uiso   1.00
H254   H     0.85577   0.60696   0.19680   0.00000  Uiso   1.00
O255   O     0.90143   0.62809   0.26757   0.00000  Uiso   1.00
C256   C     0.61293   0.40137   0.11437   0.00000  Uiso   1.00
H257   H     0.64423   0.39305   0.13647   0.00000  Uiso   1.00
O258   O     0.59855   0.37192   0.06573   0.00000  Uiso   1.00
C259   C     0.69208   0.47447   0.32226   0.00000  Uiso   1.00
C260   C     0.67601   0.42188   0.29608   0.00000  Uiso   1.00
C261   C     0.63003   0.40935   0.28011   0.00000  Uiso   1.00
C262   C     0.59966   0.44898   0.29209   0.00000  Uiso   1.00
C263   C     0.61529   0.50136   0.31928   0.00000  Uiso   1.00
C264   C     0.66134   0.51424   0.00087   0.00000  Uiso   1.00
H265   H     0.69899   0.39056   0.28916   0.00000  Uiso   1.00
H266   H     0.61789   0.36874   0.25949   0.00000  Uiso   1.00
H267   H     0.56403   0.43909   0.28031   0.00000  Uiso   1.00
H268   H     0.59171   0.53196   0.32886   0.00000  Uiso   1.00
H269   H     0.67311   0.55472   0.02301   0.00000  Uiso   1.00
C270   C     0.80795   0.52533   0.01097   0.00000  Uiso   1.00
C271   C     0.83853   0.48539   0.33231   0.00000  Uiso   1.00
C272   C     0.88462   0.49804   0.01378   0.00000  Uiso   1.00
C273   C     0.90044   0.55036   0.04093   0.00000  Uiso   1.00
C274   C     0.87022   0.59016   0.05298   0.00000  Uiso   1.00
C275   C     0.82421   0.57786   0.03713   0.00000  Uiso   1.00
H276   H     0.82661   0.44496   0.31020   0.00000  Uiso   1.00
H277   H     0.90806   0.46731   0.00416   0.00000  Uiso   1.00
H278   H     0.93609   0.56006   0.05262   0.00000  Uiso   1.00
H279   H     0.88252   0.63071   0.07359   0.00000  Uiso   1.00
H280   H     0.80134   0.60930   0.04413   0.00000  Uiso   1.00
O281   O     0.25325   0.76204   0.20659   0.00000  Uiso   1.00
O282   O     0.24674   0.90462   0.12674   0.00000  Uiso   1.00
O283   O     0.24480   0.75226   0.10279   0.00000  Uiso   1.00
O284   O     0.25520   0.91441   0.23055   0.00000  Uiso   1.00
C285   C     0.24842   0.73330   0.15100   0.00000  Uiso   1.00
C286   C     0.25160   0.93337   0.18233   0.00000  Uiso   1.00
O287   O     0.18935   0.83821   0.21857   0.00000  Uiso   1.00
O288   O     0.31064   0.82845   0.11476   0.00000  Uiso   1.00
O289   O     0.18090   0.82843   0.11477   0.00000  Uiso   1.00
O290   O     0.31910   0.83824   0.21857   0.00000  Uiso   1.00
C291   C     0.16478   0.83270   0.16729   0.00000  Uiso   1.00
C292   C     0.33522   0.83397   0.16604   0.00000  Uiso   1.00
Cu293  Cu    0.25500   0.83913   0.22813   0.00000  Uiso   1.00
Cu294  Cu    0.24499   0.82754   0.10521   0.00000  Uiso   1.00
C295   C     0.40988   0.88328   0.19188   0.00000  Uiso   1.00
C296   C     0.09012   0.78339   0.14145   0.00000  Uiso   1.00
C297   C     0.38342   0.83601   0.16519   0.00000  Uiso   1.00
C298   C     0.11658   0.83066   0.16815   0.00000  Uiso   1.00
C299   C     0.40264   0.78883   0.14099   0.00000  Uiso   1.00
C300   C     0.09736   0.87783   0.19236   0.00000  Uiso   1.00
C301   C     0.44897   0.78735   0.14238   0.00000  Uiso   1.00
C302   C     0.05103   0.87931   0.19097   0.00000  Uiso   1.00
C303   C     0.47651   0.83421   0.16682   0.00000  Uiso   1.00
C304   C     0.02349   0.83245   0.16653   0.00000  Uiso   1.00
C305   C     0.45715   0.88275   0.19125   0.00000  Uiso   1.00
C306   C     0.04285   0.78392   0.14208   0.00000  Uiso   1.00
C307   C     0.46801   0.73937   0.12009   0.00000  Uiso   1.00
C308   C     0.03199   0.92729   0.21327   0.00000  Uiso   1.00
C309   C     0.01437   0.73743   0.12064   0.00000  Uiso   1.00
C310   C     0.48563   0.92923   0.21271   0.00000  Uiso   1.00
H311   H     0.38125   0.75291   0.12204   0.00000  Uiso   1.00
H312   H     0.11875   0.91376   0.21133   0.00000  Uiso   1.00
H313   H     0.44698   0.70304   0.10254   0.00000  Uiso   1.00
H314   H     0.05302   0.96362   0.23082   0.00000  Uiso   1.00
H315   H     0.02721   0.69896   0.10480   0.00000  Uiso   1.00
H316   H     0.47279   0.96771   0.22855   0.00000  Uiso   1.00
C317   C     0.24672   0.67703   0.14258   0.00000  Uiso   1.00
C318   C     0.25333   0.98964   0.19074   0.00000  Uiso   1.00
H319   H     0.23961   0.98593   0.09653   0.00000  Uiso   1.00
H320   H     0.26046   0.68074   0.23680   0.00000  Uiso   1.00
N321   N     0.23744   0.81881   0.01284   0.00000  Uiso   1.00
N322   N     0.26255   0.84786   0.32049   0.00000  Uiso   1.00
C323   C     0.38706   0.93197   0.21893   0.00000  Uiso   1.00
H324   H     0.35577   0.94029   0.19680   0.00000  Uiso   1.00
O325   O     0.40143   0.96143   0.26757   0.00000  Uiso   1.00
C326   C     0.11293   0.73470   0.11437   0.00000  Uiso   1.00
H327   H     0.14423   0.72638   0.13647   0.00000  Uiso   1.00
O328   O     0.09855   0.70525   0.06573   0.00000  Uiso   1.00
C329   C     0.19208   0.80780   0.32226   0.00000  Uiso   1.00
C330   C     0.17601   0.75521   0.29608   0.00000  Uiso   1.00
C331   C     0.13003   0.74268   0.28011   0.00000  Uiso   1.00
C332   C     0.09966   0.78231   0.29209   0.00000  Uiso   1.00
C333   C     0.11529   0.83470   0.31928   0.00000  Uiso   1.00
C334   C     0.16134   0.84757   0.00087   0.00000  Uiso   1.00
H335   H     0.19899   0.72390   0.28916   0.00000  Uiso   1.00
H336   H     0.11789   0.70207   0.25949   0.00000  Uiso   1.00
H337   H     0.06403   0.77243   0.28031   0.00000  Uiso   1.00
H338   H     0.09171   0.86530   0.32886   0.00000  Uiso   1.00
H339   H     0.17311   0.88805   0.02301   0.00000  Uiso   1.00
C340   C     0.30795   0.85867   0.01097   0.00000  Uiso   1.00
C341   C     0.33853   0.81873   0.33231   0.00000  Uiso   1.00
C342   C     0.38462   0.83137   0.01378   0.00000  Uiso   1.00
C343   C     0.40044   0.88369   0.04093   0.00000  Uiso   1.00
C344   C     0.37022   0.92349   0.05298   0.00000  Uiso   1.00
C345   C     0.32421   0.91119   0.03713   0.00000  Uiso   1.00
H346   H     0.32661   0.77829   0.31020   0.00000  Uiso   1.00
H347   H     0.40806   0.80064   0.00416   0.00000  Uiso   1.00
H348   H     0.43609   0.89340   0.05262   0.00000  Uiso   1.00
H349   H     0.38252   0.96405   0.07359   0.00000  Uiso   1.00
H350   H     0.30134   0.94263   0.04413   0.00000  Uiso   1.00
O351   O     0.75325   0.76204   0.20659   0.00000  Uiso   1.00
O352   O     0.74674   0.90462   0.12674   0.00000  Uiso   1.00
O353   O     0.74480   0.75226   0.10279   0.00000  Uiso   1.00
O354   O     0.75520   0.91441   0.23055   0.00000  Uiso   1.00
C355   C     0.74842   0.73330   0.15100   0.00000  Uiso   1.00
C356   C     0.75160   0.93337   0.18233   0.00000  Uiso   1.00
O357   O     0.68935   0.83821   0.21857   0.00000  Uiso   1.00
O358   O     0.81064   0.82845   0.11476   0.00000  Uiso   1.00
O359   O     0.68090   0.82843   0.11477   0.00000  Uiso   1.00
O360   O     0.81910   0.83824   0.21857   0.00000  Uiso   1.00
C361   C     0.66478   0.83270   0.16729   0.00000  Uiso   1.00
C362   C     0.83522   0.83397   0.16604   0.00000  Uiso   1.00
Cu363  Cu    0.75500   0.83913   0.22813   0.00000  Uiso   1.00
Cu364  Cu    0.74499   0.82754   0.10521   0.00000  Uiso   1.00
C365   C     0.90988   0.88328   0.19188   0.00000  Uiso   1.00
C366   C     0.59012   0.78339   0.14145   0.00000  Uiso   1.00
C367   C     0.88342   0.83601   0.16519   0.00000  Uiso   1.00
C368   C     0.61658   0.83066   0.16815   0.00000  Uiso   1.00
C369   C     0.90264   0.78883   0.14099   0.00000  Uiso   1.00
C370   C     0.59736   0.87783   0.19236   0.00000  Uiso   1.00
C371   C     0.94897   0.78735   0.14238   0.00000  Uiso   1.00
C372   C     0.55103   0.87931   0.19097   0.00000  Uiso   1.00
C373   C     0.97651   0.83421   0.16682   0.00000  Uiso   1.00
C374   C     0.52349   0.83245   0.16653   0.00000  Uiso   1.00
C375   C     0.95715   0.88275   0.19125   0.00000  Uiso   1.00
C376   C     0.54285   0.78392   0.14208   0.00000  Uiso   1.00
C377   C     0.96801   0.73937   0.12009   0.00000  Uiso   1.00
C378   C     0.53199   0.92729   0.21327   0.00000  Uiso   1.00
C379   C     0.51437   0.73743   0.12064   0.00000  Uiso   1.00
C380   C     0.98563   0.92923   0.21271   0.00000  Uiso   1.00
H381   H     0.88125   0.75291   0.12204   0.00000  Uiso   1.00
H382   H     0.61875   0.91376   0.21133   0.00000  Uiso   1.00
H383   H     0.94698   0.70304   0.10254   0.00000  Uiso   1.00
H384   H     0.55302   0.96362   0.23082   0.00000  Uiso   1.00
H385   H     0.52721   0.69896   0.10480   0.00000  Uiso   1.00
H386   H     0.97279   0.96771   0.22855   0.00000  Uiso   1.00
C387   C     0.74672   0.67703   0.14258   0.00000  Uiso   1.00
C388   C     0.75333   0.98964   0.19074   0.00000  Uiso   1.00
H389   H     0.73961   0.98593   0.09653   0.00000  Uiso   1.00
H390   H     0.76046   0.68074   0.23680   0.00000  Uiso   1.00
N391   N     0.73744   0.81881   0.01284   0.00000  Uiso   1.00
N392   N     0.76255   0.84786   0.32049   0.00000  Uiso   1.00
C393   C     0.88706   0.93197   0.21893   0.00000  Uiso   1.00
H394   H     0.85577   0.94029   0.19680   0.00000  Uiso   1.00
O395   O     0.90143   0.96143   0.26757   0.00000  Uiso   1.00
C396   C     0.61293   0.73470   0.11437   0.00000  Uiso   1.00
H397   H     0.64423   0.72638   0.13647   0.00000  Uiso   1.00
O398   O     0.59855   0.70525   0.06573   0.00000  Uiso   1.00
C399   C     0.69208   0.80780   0.32226   0.00000  Uiso   1.00
C400   C     0.67601   0.75521   0.29608   0.00000  Uiso   1.00
C401   C     0.63003   0.74268   0.28011   0.00000  Uiso   1.00
C402   C     0.59966   0.78231   0.29209   0.00000  Uiso   1.00
C403   C     0.61529   0.83470   0.31928   0.00000  Uiso   1.00
C404   C     0.66134   0.84757   0.00087   0.00000  Uiso   1.00
H405   H     0.69899   0.72390   0.28916   0.00000  Uiso   1.00
H406   H     0.61789   0.70207   0.25949   0.00000  Uiso   1.00
H407   H     0.56403   0.77243   0.28031   0.00000  Uiso   1.00
H408   H     0.59171   0.86530   0.32886   0.00000  Uiso   1.00
H409   H     0.67311   0.88805   0.02301   0.00000  Uiso   1.00
C410   C     0.80795   0.85867   0.01097   0.00000  Uiso   1.00
C411   C     0.83853   0.81873   0.33231   0.00000  Uiso   1.00
C412   C     0.88462   0.83137   0.01378   0.00000  Uiso   1.00
C413   C     0.90044   0.88369   0.04093   0.00000  Uiso   1.00
C414   C     0.87022   0.92349   0.05298   0.00000  Uiso   1.00
C415   C     0.82421   0.91119   0.03713   0.00000  Uiso   1.00
H416   H     0.82661   0.77829   0.31020   0.00000  Uiso   1.00
H417   H     0.90806   0.80064   0.00416   0.00000  Uiso   1.00
H418   H     0.93609   0.89340   0.05262   0.00000  Uiso   1.00
H419   H     0.88252   0.96405   0.07359   0.00000  Uiso   1.00
H420   H     0.80134   0.94263   0.04413   0.00000  Uiso   1.00
O421   O     0.25325   0.09538   0.53992   0.00000  Uiso   1.00
O422   O     0.24674   0.23796   0.46008   0.00000  Uiso   1.00
O423   O     0.24480   0.08559   0.43612   0.00000  Uiso   1.00
O424   O     0.25520   0.24774   0.56388   0.00000  Uiso   1.00
C425   C     0.24842   0.06663   0.48433   0.00000  Uiso   1.00
C426   C     0.25160   0.26670   0.51567   0.00000  Uiso   1.00
O427   O     0.18935   0.17155   0.55191   0.00000  Uiso   1.00
O428   O     0.31064   0.16179   0.44809   0.00000  Uiso   1.00
O429   O     0.18090   0.16176   0.44810   0.00000  Uiso   1.00
O430   O     0.31910   0.17157   0.55190   0.00000  Uiso   1.00
C431   C     0.16478   0.16603   0.50062   0.00000  Uiso   1.00
C432   C     0.33522   0.16731   0.49938   0.00000  Uiso   1.00
Cu433  Cu    0.25500   0.17246   0.56146   0.00000  Uiso   1.00
Cu434  Cu    0.24499   0.16087   0.43854   0.00000  Uiso   1.00
C435   C     0.40988   0.21662   0.52521   0.00000  Uiso   1.00
C436   C     0.09012   0.11672   0.47478   0.00000  Uiso   1.00
C437   C     0.38342   0.16935   0.49852   0.00000  Uiso   1.00
C438   C     0.11658   0.16399   0.50148   0.00000  Uiso   1.00
C439   C     0.40264   0.12216   0.47433   0.00000  Uiso   1.00
C440   C     0.09736   0.21117   0.52570   0.00000  Uiso   1.00
C441   C     0.44897   0.12069   0.47572   0.00000  Uiso   1.00
C442   C     0.05103   0.21265   0.52430   0.00000  Uiso   1.00
C443   C     0.47651   0.16755   0.50015   0.00000  Uiso   1.00
C444   C     0.02349   0.16579   0.49986   0.00000  Uiso   1.00
C445   C     0.45715   0.21609   0.52459   0.00000  Uiso   1.00
C446   C     0.04285   0.11725   0.47542   0.00000  Uiso   1.00
C447   C     0.46801   0.07271   0.45342   0.00000  Uiso   1.00
C448   C     0.03199   0.26063   0.54660   0.00000  Uiso   1.00
C449   C     0.01437   0.07077   0.45397   0.00000  Uiso   1.00
C450   C     0.48563   0.26257   0.54604   0.00000  Uiso   1.00
H451   H     0.38125   0.08624   0.45537   0.00000  Uiso   1.00
H452   H     0.11875   0.24709   0.54466   0.00000  Uiso   1.00
H453   H     0.44698   0.03638   0.43587   0.00000  Uiso   1.00
H454   H     0.05302   0.29696   0.56416   0.00000  Uiso   1.00
H455   H     0.02721   0.03229   0.43813   0.00000  Uiso   1.00
H456   H     0.47279   0.30104   0.56188   0.00000  Uiso   1.00
C457   C     0.24672   0.01036   0.47592   0.00000  Uiso   1.00
C458   C     0.25333   0.32297   0.52408   0.00000  Uiso   1.00
H459   H     0.23961   0.31926   0.42986   0.00000  Uiso   1.00
H460   H     0.26046   0.01407   0.57013   0.00000  Uiso   1.00
N461   N     0.23744   0.15214   0.34617   0.00000  Uiso   1.00
N462   N     0.26255   0.18119   0.65383   0.00000  Uiso   1.00
C463   C     0.38706   0.26531   0.55226   0.00000  Uiso   1.00
H464   H     0.35577   0.27363   0.53013   0.00000  Uiso   1.00
O465   O     0.40143   0.29476   0.60091   0.00000  Uiso   1.00
C466   C     0.11293   0.06804   0.44770   0.00000  Uiso   1.00
H467   H     0.14423   0.05972   0.46981   0.00000  Uiso   1.00
O468   O     0.09855   0.03859   0.39906   0.00000  Uiso   1.00
C469   C     0.19208   0.14113   0.65559   0.00000  Uiso   1.00
C470   C     0.17601   0.08855   0.62941   0.00000  Uiso   1.00
C471   C     0.13003   0.07601   0.61344   0.00000  Uiso   1.00
C472   C     0.09966   0.11564   0.62542   0.00000  Uiso   1.00
C473   C     0.11529   0.16803   0.65261   0.00000  Uiso   1.00
C474   C     0.16134   0.18090   0.33420   0.00000  Uiso   1.00
H475   H     0.19899   0.05723   0.62249   0.00000  Uiso   1.00
H476   H     0.11789   0.03540   0.59282   0.00000  Uiso   1.00
H477   H     0.06403   0.10576   0.61365   0.00000  Uiso   1.00
H478   H     0.09171   0.19863   0.66219   0.00000  Uiso   1.00
H479   H     0.17311   0.22139   0.35634   0.00000  Uiso   1.00
C480   C     0.30795   0.19200   0.34431   0.00000  Uiso   1.00
C481   C     0.33853   0.15206   0.66565   0.00000  Uiso   1.00
C482   C     0.38462   0.16470   0.34712   0.00000  Uiso   1.00
C483   C     0.40044   0.21703   0.37426   0.00000  Uiso   1.00
C484   C     0.37022   0.25682   0.38632   0.00000  Uiso   1.00
C485   C     0.32421   0.24452   0.37046   0.00000  Uiso   1.00
H486   H     0.32661   0.11162   0.64353   0.00000  Uiso   1.00
H487   H     0.40806   0.13397   0.33749   0.00000  Uiso   1.00
H488   H     0.43609   0.22673   0.38595   0.00000  Uiso   1.00
H489   H     0.38252   0.29738   0.40692   0.00000  Uiso   1.00
H490   H     0.30134   0.27596   0.37747   0.00000  Uiso   1.00
O491   O     0.75325   0.09538   0.53992   0.00000  Uiso   1.00
O492   O     0.74674   0.23796   0.46008   0.00000  Uiso   1.00
O493   O     0.74480   0.08559   0.43612   0.00000  Uiso   1.00
O494   O     0.75520   0.24774   0.56388   0.00000  Uiso   1.00
C495   C     0.74842   0.06663   0.48433   0.00000  Uiso   1.00
C496   C     0.75160   0.26670   0.51567   0.00000  Uiso   1.00
O497   O     0.68935   0.17155   0.55191   0.00000  Uiso   1.00
O498   O     0.81064   0.16179   0.44809   0.00000  Uiso   1.00
O499   O     0.68090   0.16176   0.44810   0.00000  Uiso   1.00
O500   O     0.81910   0.17157   0.55190   0.00000  Uiso   1.00
C501   C     0.66478   0.16603   0.50062   0.00000  Uiso   1.00
C502   C     0.83522   0.16731   0.49938   0.00000  Uiso   1.00
Cu503  Cu    0.75500   0.17246   0.56146   0.00000  Uiso   1.00
Cu504  Cu    0.74499   0.16087   0.43854   0.00000  Uiso   1.00
C505   C     0.90988   0.21662   0.52521   0.00000  Uiso   1.00
C506   C     0.59012   0.11672   0.47478   0.00000  Uiso   1.00
C507   C     0.88342   0.16935   0.49852   0.00000  Uiso   1.00
C508   C     0.61658   0.16399   0.50148   0.00000  Uiso   1.00
C509   C     0.90264   0.12216   0.47433   0.00000  Uiso   1.00
C510   C     0.59736   0.21117   0.52570   0.00000  Uiso   1.00
C511   C     0.94897   0.12069   0.47572   0.00000  Uiso   1.00
C512   C     0.55103   0.21265   0.52430   0.00000  Uiso   1.00
C513   C     0.97651   0.16755   0.50015   0.00000  Uiso   1.00
C514   C     0.52349   0.16579   0.49986   0.00000  Uiso   1.00
C515   C     0.95715   0.21609   0.52459   0.00000  Uiso   1.00
C516   C     0.54285   0.11725   0.47542   0.00000  Uiso   1.00
C517   C     0.96801   0.07271   0.45342   0.00000  Uiso   1.00
C518   C     0.53199   0.26063   0.54660   0.00000  Uiso   1.00
C519   C     0.51437   0.07077   0.45397   0.00000  Uiso   1.00
C520   C     0.98563   0.26257   0.54604   0.00000  Uiso   1.00
H521   H     0.88125   0.08624   0.45537   0.00000  Uiso   1.00
H522   H     0.61875   0.24709   0.54466   0.00000  Uiso   1.00
H523   H     0.94698   0.03638   0.43587   0.00000  Uiso   1.00
H524   H     0.55302   0.29696   0.56416   0.00000  Uiso   1.00
H525   H     0.52721   0.03229   0.43813   0.00000  Uiso   1.00
H526   H     0.97279   0.30104   0.56188   0.00000  Uiso   1.00
C527   C     0.74672   0.01036   0.47592   0.00000  Uiso   1.00
C528   C     0.75333   0.32297   0.52408   0.00000  Uiso   1.00
H529   H     0.73961   0.31926   0.42986   0.00000  Uiso   1.00
H530   H     0.76046   0.01407   0.57013   0.00000  Uiso   1.00
N531   N     0.73744   0.15214   0.34617   0.00000  Uiso   1.00
N532   N     0.76255   0.18119   0.65383   0.00000  Uiso   1.00
C533   C     0.88706   0.26531   0.55226   0.00000  Uiso   1.00
H534   H     0.85577   0.27363   0.53013   0.00000  Uiso   1.00
O535   O     0.90143   0.29476   0.60091   0.00000  Uiso   1.00
C536   C     0.61293   0.06804   0.44770   0.00000  Uiso   1.00
H537   H     0.64423   0.05972   0.46981   0.00000  Uiso   1.00
O538   O     0.59855   0.03859   0.39906   0.00000  Uiso   1.00
C539   C     0.69208   0.14113   0.65559   0.00000  Uiso   1.00
C540   C     0.67601   0.08855   0.62941   0.00000  Uiso   1.00
C541   C     0.63003   0.07601   0.61344   0.00000  Uiso   1.00
C542   C     0.59966   0.11564   0.62542   0.00000  Uiso   1.00
C543   C     0.61529   0.16803   0.65261   0.00000  Uiso   1.00
C544   C     0.66134   0.18090   0.33420   0.00000  Uiso   1.00
H545   H     0.69899   0.05723   0.62249   0.00000  Uiso   1.00
H546   H     0.61789   0.03540   0.59282   0.00000  Uiso   1.00
H547   H     0.56403   0.10576   0.61365   0.00000  Uiso   1.00
H548   H     0.59171   0.19863   0.66219   0.00000  Uiso   1.00
H549   H     0.67311   0.22139   0.35634   0.00000  Uiso   1.00
C550   C     0.80795   0.19200   0.34431   0.00000  Uiso   1.00
C551   C     0.83853   0.15206   0.66565   0.00000  Uiso   1.00
C552   C     0.88462   0.16470   0.34712   0.00000  Uiso   1.00
C553   C     0.90044   0.21703   0.37426   0.00000  Uiso   1.00
C554   C     0.87022   0.25682   0.38632   0.00000  Uiso   1.00
C555   C     0.82421   0.24452   0.37046   0.00000  Uiso   1.00
H556   H     0.82661   0.11162   0.64353   0.00000  Uiso   1.00
H557   H     0.90806   0.13397   0.33749   0.00000  Uiso   1.00
H558   H     0.93609   0.22673   0.38595   0.00000  Uiso   1.00
H559   H     0.88252   0.29738   0.40692   0.00000  Uiso   1.00
H560   H     0.80134   0.27596   0.37747   0.00000  Uiso   1.00
O561   O     0.25325   0.42871   0.53992   0.00000  Uiso   1.00
O562   O     0.24674   0.57129   0.46008   0.00000  Uiso   1.00
O563   O     0.24480   0.41892   0.43612   0.00000  Uiso   1.00
O564   O     0.25520   0.58108   0.56388   0.00000  Uiso   1.00
C565   C     0.24842   0.39997   0.48433   0.00000  Uiso   1.00
C566   C     0.25160   0.60004   0.51567   0.00000  Uiso   1.00
O567   O     0.18935   0.50488   0.55191   0.00000  Uiso   1.00
O568   O     0.31064   0.49512   0.44809   0.00000  Uiso   1.00
O569   O     0.18090   0.49510   0.44810   0.00000  Uiso   1.00
O570   O     0.31910   0.50490   0.55190   0.00000  Uiso   1.00
C571   C     0.16478   0.49936   0.50062   0.00000  Uiso   1.00
C572   C     0.33522   0.50064   0.49938   0.00000  Uiso   1.00
Cu573  Cu    0.25500   0.50579   0.56146   0.00000  Uiso   1.00
Cu574  Cu    0.24499   0.49421   0.43854   0.00000  Uiso   1.00
C575   C     0.40988   0.54995   0.52521   0.00000  Uiso   1.00
C576   C     0.09012   0.45005   0.47478   0.00000  Uiso   1.00
C577   C     0.38342   0.50268   0.49852   0.00000  Uiso   1.00
C578   C     0.11658   0.49732   0.50148   0.00000  Uiso   1.00
C579   C     0.40264   0.45550   0.47433   0.00000  Uiso   1.00
C580   C     0.09736   0.54450   0.52570   0.00000  Uiso   1.00
C581   C     0.44897   0.45402   0.47572   0.00000  Uiso   1.00
C582   C     0.05103   0.54598   0.52430   0.00000  Uiso   1.00
C583   C     0.47651   0.50088   0.50015   0.00000  Uiso   1.00
C584   C     0.02349   0.49912   0.49986   0.00000  Uiso   1.00
C585   C     0.45715   0.54942   0.52459   0.00000  Uiso   1.00
C586   C     0.04285   0.45058   0.47542   0.00000  Uiso   1.00
C587   C     0.46801   0.40604   0.45342   0.00000  Uiso   1.00
C588   C     0.03199   0.59396   0.54660   0.00000  Uiso   1.00
C589   C     0.01437   0.40410   0.45397   0.00000  Uiso   1.00
C590   C     0.48563   0.59590   0.54604   0.00000  Uiso   1.00
H591   H     0.38125   0.41957   0.45537   0.00000  Uiso   1.00
H592   H     0.11875   0.58042   0.54466   0.00000  Uiso   1.00
H593   H     0.44698   0.36971   0.43587   0.00000  Uiso   1.00
H594   H     0.05302   0.63029   0.56416   0.00000  Uiso   1.00
H595   H     0.02721   0.36563   0.43813   0.00000  Uiso   1.00
H596   H     0.47279   0.63438   0.56188   0.00000  Uiso   1.00
C597   C     0.24672   0.34369   0.47592   0.00000  Uiso   1.00
C598   C     0.25333   0.65631   0.52408   0.00000  Uiso   1.00
H599   H     0.23961   0.65260   0.42986   0.00000  Uiso   1.00
H600   H     0.26046   0.34740   0.57013   0.00000  Uiso   1.00
N601   N     0.23744   0.48547   0.34617   0.00000  Uiso   1.00
N602   N     0.26255   0.51453   0.65383   0.00000  Uiso   1.00
C603   C     0.38706   0.59864   0.55226   0.00000  Uiso   1.00
H604   H     0.35577   0.60696   0.53013   0.00000  Uiso   1.00
O605   O     0.40143   0.62809   0.60091   0.00000  Uiso   1.00
C606   C     0.11293   0.40137   0.44770   0.00000  Uiso   1.00
H607   H     0.14423   0.39305   0.46981   0.00000  Uiso   1.00
O608   O     0.09855   0.37192   0.39906   0.00000  Uiso   1.00
C609   C     0.19208   0.47447   0.65559   0.00000  Uiso   1.00
C610   C     0.17601   0.42188   0.62941   0.00000  Uiso   1.00
C611   C     0.13003   0.40935   0.61344   0.00000  Uiso   1.00
C612   C     0.09966   0.44898   0.62542   0.00000  Uiso   1.00
C613   C     0.11529   0.50136   0.65261   0.00000  Uiso   1.00
C614   C     0.16134   0.51424   0.33420   0.00000  Uiso   1.00
H615   H     0.19899   0.39056   0.62249   0.00000  Uiso   1.00
H616   H     0.11789   0.36874   0.59282   0.00000  Uiso   1.00
H617   H     0.06403   0.43909   0.61365   0.00000  Uiso   1.00
H618   H     0.09171   0.53196   0.66219   0.00000  Uiso   1.00
H619   H     0.17311   0.55472   0.35634   0.00000  Uiso   1.00
C620   C     0.30795   0.52533   0.34431   0.00000  Uiso   1.00
C621   C     0.33853   0.48539   0.66565   0.00000  Uiso   1.00
C622   C     0.38462   0.49804   0.34712   0.00000  Uiso   1.00
C623   C     0.40044   0.55036   0.37426   0.00000  Uiso   1.00
C624   C     0.37022   0.59016   0.38632   0.00000  Uiso   1.00
C625   C     0.32421   0.57786   0.37046   0.00000  Uiso   1.00
H626   H     0.32661   0.44496   0.64353   0.00000  Uiso   1.00
H627   H     0.40806   0.46731   0.33749   0.00000  Uiso   1.00
H628   H     0.43609   0.56006   0.38595   0.00000  Uiso   1.00
H629   H     0.38252   0.63071   0.40692   0.00000  Uiso   1.00
H630   H     0.30134   0.60930   0.37747   0.00000  Uiso   1.00
O631   O     0.75325   0.42871   0.53992   0.00000  Uiso   1.00
O632   O     0.74674   0.57129   0.46008   0.00000  Uiso   1.00
O633   O     0.74480   0.41892   0.43612   0.00000  Uiso   1.00
O634   O     0.75520   0.58108   0.56388   0.00000  Uiso   1.00
C635   C     0.74842   0.39997   0.48433   0.00000  Uiso   1.00
C636   C     0.75160   0.60004   0.51567   0.00000  Uiso   1.00
O637   O     0.68935   0.50488   0.55191   0.00000  Uiso   1.00
O638   O     0.81064   0.49512   0.44809   0.00000  Uiso   1.00
O639   O     0.68090   0.49510   0.44810   0.00000  Uiso   1.00
O640   O     0.81910   0.50490   0.55190   0.00000  Uiso   1.00
C641   C     0.66478   0.49936   0.50062   0.00000  Uiso   1.00
C642   C     0.83522   0.50064   0.49938   0.00000  Uiso   1.00
Cu643  Cu    0.75500   0.50579   0.56146   0.00000  Uiso   1.00
Cu644  Cu    0.74499   0.49421   0.43854   0.00000  Uiso   1.00
C645   C     0.90988   0.54995   0.52521   0.00000  Uiso   1.00
C646   C     0.59012   0.45005   0.47478   0.00000  Uiso   1.00
C647   C     0.88342   0.50268   0.49852   0.00000  Uiso   1.00
C648   C     0.61658   0.49732   0.50148   0.00000  Uiso   1.00
C649   C     0.90264   0.45550   0.47433   0.00000  Uiso   1.00
C650   C     0.59736   0.54450   0.52570   0.00000  Uiso   1.00
C651   C     0.94897   0.45402   0.47572   0.00000  Uiso   1.00
C652   C     0.55103   0.54598   0.52430   0.00000  Uiso   1.00
C653   C     0.97651   0.50088   0.50015   0.00000  Uiso   1.00
C654   C     0.52349   0.49912   0.49986   0.00000  Uiso   1.00
C655   C     0.95715   0.54942   0.52459   0.00000  Uiso   1.00
C656   C     0.54285   0.45058   0.47542   0.00000  Uiso   1.00
C657   C     0.96801   0.40604   0.45342   0.00000  Uiso   1.00
C658   C     0.53199   0.59396   0.54660   0.00000  Uiso   1.00
C659   C     0.51437   0.40410   0.45397   0.00000  Uiso   1.00
C660   C     0.98563   0.59590   0.54604   0.00000  Uiso   1.00
H661   H     0.88125   0.41957   0.45537   0.00000  Uiso   1.00
H662   H     0.61875   0.58042   0.54466   0.00000  Uiso   1.00
H663   H     0.94698   0.36971   0.43587   0.00000  Uiso   1.00
H664   H     0.55302   0.63029   0.56416   0.00000  Uiso   1.00
H665   H     0.52721   0.36563   0.43813   0.00000  Uiso   1.00
H666   H     0.97279   0.63438   0.56188   0.00000  Uiso   1.00
C667   C     0.74672   0.34369   0.47592   0.00000  Uiso   1.00
C668   C     0.75333   0.65631   0.52408   0.00000  Uiso   1.00
H669   H     0.73961   0.65260   0.42986   0.00000  Uiso   1.00
H670   H     0.76046   0.34740   0.57013   0.00000  Uiso   1.00
N671   N     0.73744   0.48547   0.34617   0.00000  Uiso   1.00
N672   N     0.76255   0.51453   0.65383   0.00000  Uiso   1.00
C673   C     0.88706   0.59864   0.55226   0.00000  Uiso   1.00
H674   H     0.85577   0.60696   0.53013   0.00000  Uiso   1.00
O675   O     0.90143   0.62809   0.60091   0.00000  Uiso   1.00
C676   C     0.61293   0.40137   0.44770   0.00000  Uiso   1.00
H677   H     0.64423   0.39305   0.46981   0.00000  Uiso   1.00
O678   O     0.59855   0.37192   0.39906   0.00000  Uiso   1.00
C679   C     0.69208   0.47447   0.65559   0.00000  Uiso   1.00
C680   C     0.67601   0.42188   0.62941   0.00000  Uiso   1.00
C681   C     0.63003   0.40935   0.61344   0.00000  Uiso   1.00
C682   C     0.59966   0.44898   0.62542   0.00000  Uiso   1.00
C683   C     0.61529   0.50136   0.65261   0.00000  Uiso   1.00
C684   C     0.66134   0.51424   0.33420   0.00000  Uiso   1.00
H685   H     0.69899   0.39056   0.62249   0.00000  Uiso   1.00
H686   H     0.61789   0.36874   0.59282   0.00000  Uiso   1.00
H687   H     0.56403   0.43909   0.61365   0.00000  Uiso   1.00
H688   H     0.59171   0.53196   0.66219   0.00000  Uiso   1.00
H689   H     0.67311   0.55472   0.35634   0.00000  Uiso   1.00
C690   C     0.80795   0.52533   0.34431   0.00000  Uiso   1.00
C691   C     0.83853   0.48539   0.66565   0.00000  Uiso   1.00
C692   C     0.88462   0.49804   0.34712   0.00000  Uiso   1.00
C693   C     0.90044   0.55036   0.37426   0.00000  Uiso   1.00
C694   C     0.87022   0.59016   0.38632   0.00000  Uiso   1.00
C695   C     0.82421   0.57786   0.37046   0.00000  Uiso   1.00
H696   H     0.82661   0.44496   0.64353   0.00000  Uiso   1.00
H697   H     0.90806   0.46731   0.33749   0.00000  Uiso   1.00
H698   H     0.93609   0.56006   0.38595   0.00000  Uiso   1.00
H699   H     0.88252   0.63071   0.40692   0.00000  Uiso   1.00
H700   H     0.80134   0.60930   0.37747   0.00000  Uiso   1.00
O701   O     0.25325   0.76204   0.53992   0.00000  Uiso   1.00
O702   O     0.24674   0.90462   0.46008   0.00000  Uiso   1.00
O703   O     0.24480   0.75226   0.43612   0.00000  Uiso   1.00
O704   O     0.25520   0.91441   0.56388   0.00000  Uiso   1.00
C705   C     0.24842   0.73330   0.48433   0.00000  Uiso   1.00
C706   C     0.25160   0.93337   0.51567   0.00000  Uiso   1.00
O707   O     0.18935   0.83821   0.55191   0.00000  Uiso   1.00
O708   O     0.31064   0.82845   0.44809   0.00000  Uiso   1.00
O709   O     0.18090   0.82843   0.44810   0.00000  Uiso   1.00
O710   O     0.31910   0.83824   0.55190   0.00000  Uiso   1.00
C711   C     0.16478   0.83270   0.50062   0.00000  Uiso   1.00
C712   C     0.33522   0.83397   0.49938   0.00000  Uiso   1.00
Cu713  Cu    0.25500   0.83913   0.56146   0.00000  Uiso   1.00
Cu714  Cu    0.24499   0.82754   0.43854   0.00000  Uiso   1.00
C715   C     0.40988   0.88328   0.52521   0.00000  Uiso   1.00
C716   C     0.09012   0.78339   0.47478   0.00000  Uiso   1.00
C717   C     0.38342   0.83601   0.49852   0.00000  Uiso   1.00
C718   C     0.11658   0.83066   0.50148   0.00000  Uiso   1.00
C719   C     0.40264   0.78883   0.47433   0.00000  Uiso   1.00
C720   C     0.09736   0.87783   0.52570   0.00000  Uiso   1.00
C721   C     0.44897   0.78735   0.47572   0.00000  Uiso   1.00
C722   C     0.05103   0.87931   0.52430   0.00000  Uiso   1.00
C723   C     0.47651   0.83421   0.50015   0.00000  Uiso   1.00
C724   C     0.02349   0.83245   0.49986   0.00000  Uiso   1.00
C725   C     0.45715   0.88275   0.52459   0.00000  Uiso   1.00
C726   C     0.04285   0.78392   0.47542   0.00000  Uiso   1.00
C727   C     0.46801   0.73937   0.45342   0.00000  Uiso   1.00
C728   C     0.03199   0.92729   0.54660   0.00000  Uiso   1.00
C729   C     0.01437   0.73743   0.45397   0.00000  Uiso   1.00
C730   C     0.48563   0.92923   0.54604   0.00000  Uiso   1.00
H731   H     0.38125   0.75291   0.45537   0.00000  Uiso   1.00
H732   H     0.11875   0.91376   0.54466   0.00000  Uiso   1.00
H733   H     0.44698   0.70304   0.43587   0.00000  Uiso   1.00
H734   H     0.05302   0.96362   0.56416   0.00000  Uiso   1.00
H735   H     0.02721   0.69896   0.43813   0.00000  Uiso   1.00
H736   H     0.47279   0.96771   0.56188   0.00000  Uiso   1.00
C737   C     0.24672   0.67703   0.47592   0.00000  Uiso   1.00
C738   C     0.25333   0.98964   0.52408   0.00000  Uiso   1.00
H739   H     0.23961   0.98593   0.42986   0.00000  Uiso   1.00
H740   H     0.26046   0.68074   0.57013   0.00000  Uiso   1.00
N741   N     0.23744   0.81881   0.34617   0.00000  Uiso   1.00
N742   N     0.26255   0.84786   0.65383   0.00000  Uiso   1.00
C743   C     0.38706   0.93197   0.55226   0.00000  Uiso   1.00
H744   H     0.35577   0.94029   0.53013   0.00000  Uiso   1.00
O745   O     0.40143   0.96143   0.60091   0.00000  Uiso   1.00
C746   C     0.11293   0.73470   0.44770   0.00000  Uiso   1.00
H747   H     0.14423   0.72638   0.46981   0.00000  Uiso   1.00
O748   O     0.09855   0.70525   0.39906   0.00000  Uiso   1.00
C749   C     0.19208   0.80780   0.65559   0.00000  Uiso   1.00
C750   C     0.17601   0.75521   0.62941   0.00000  Uiso   1.00
C751   C     0.13003   0.74268   0.61344   0.00000  Uiso   1.00
C752   C     0.09966   0.78231   0.62542   0.00000  Uiso   1.00
C753   C     0.11529   0.83470   0.65261   0.00000  Uiso   1.00
C754   C     0.16134   0.84757   0.33420   0.00000  Uiso   1.00
H755   H     0.19899   0.72390   0.62249   0.00000  Uiso   1.00
H756   H     0.11789   0.70207   0.59282   0.00000  Uiso   1.00
H757   H     0.06403   0.77243   0.61365   0.00000  Uiso   1.00
H758   H     0.09171   0.86530   0.66219   0.00000  Uiso   1.00
H759   H     0.17311   0.88805   0.35634   0.00000  Uiso   1.00
C760   C     0.30795   0.85867   0.34431   0.00000  Uiso   1.00
C761   C     0.33853   0.81873   0.66565   0.00000  Uiso   1.00
C762   C     0.38462   0.83137   0.34712   0.00000  Uiso   1.00
C763   C     0.40044   0.88369   0.37426   0.00000  Uiso   1.00
C764   C     0.37022   0.92349   0.38632   0.00000  Uiso   1.00
C765   C     0.32421   0.91119   0.37046   0.00000  Uiso   1.00
H766   H     0.32661   0.77829   0.64353   0.00000  Uiso   1.00
H767   H     0.40806   0.80064   0.33749   0.00000  Uiso   1.00
H768   H     0.43609   0.89340   0.38595   0.00000  Uiso   1.00
H769   H     0.38252   0.96405   0.40692   0.00000  Uiso   1.00
H770   H     0.30134   0.94263   0.37747   0.00000  Uiso   1.00
O771   O     0.75325   0.76204   0.53992   0.00000  Uiso   1.00
O772   O     0.74674   0.90462   0.46008   0.00000  Uiso   1.00
O773   O     0.74480   0.75226   0.43612   0.00000  Uiso   1.00
O774   O     0.75520   0.91441   0.56388   0.00000  Uiso   1.00
C775   C     0.74842   0.73330   0.48433   0.00000  Uiso   1.00
C776   C     0.75160   0.93337   0.51567   0.00000  Uiso   1.00
O777   O     0.68935   0.83821   0.55191   0.00000  Uiso   1.00
O778   O     0.81064   0.82845   0.44809   0.00000  Uiso   1.00
O779   O     0.68090   0.82843   0.44810   0.00000  Uiso   1.00
O780   O     0.81910   0.83824   0.55190   0.00000  Uiso   1.00
C781   C     0.66478   0.83270   0.50062   0.00000  Uiso   1.00
C782   C     0.83522   0.83397   0.49938   0.00000  Uiso   1.00
Cu783  Cu    0.75500   0.83913   0.56146   0.00000  Uiso   1.00
Cu784  Cu    0.74499   0.82754   0.43854   0.00000  Uiso   1.00
C785   C     0.90988   0.88328   0.52521   0.00000  Uiso   1.00
C786   C     0.59012   0.78339   0.47478   0.00000  Uiso   1.00
C787   C     0.88342   0.83601   0.49852   0.00000  Uiso   1.00
C788   C     0.61658   0.83066   0.50148   0.00000  Uiso   1.00
C789   C     0.90264   0.78883   0.47433   0.00000  Uiso   1.00
C790   C     0.59736   0.87783   0.52570   0.00000  Uiso   1.00
C791   C     0.94897   0.78735   0.47572   0.00000  Uiso   1.00
C792   C     0.55103   0.87931   0.52430   0.00000  Uiso   1.00
C793   C     0.97651   0.83421   0.50015   0.00000  Uiso   1.00
C794   C     0.52349   0.83245   0.49986   0.00000  Uiso   1.00
C795   C     0.95715   0.88275   0.52459   0.00000  Uiso   1.00
C796   C     0.54285   0.78392   0.47542   0.00000  Uiso   1.00
C797   C     0.96801   0.73937   0.45342   0.00000  Uiso   1.00
C798   C     0.53199   0.92729   0.54660   0.00000  Uiso   1.00
C799   C     0.51437   0.73743   0.45397   0.00000  Uiso   1.00
C800   C     0.98563   0.92923   0.54604   0.00000  Uiso   1.00
H801   H     0.88125   0.75291   0.45537   0.00000  Uiso   1.00
H802   H     0.61875   0.91376   0.54466   0.00000  Uiso   1.00
H803   H     0.94698   0.70304   0.43587   0.00000  Uiso   1.00
H804   H     0.55302   0.96362   0.56416   0.00000  Uiso   1.00
H805   H     0.52721   0.69896   0.43813   0.00000  Uiso   1.00
H806   H     0.97279   0.96771   0.56188   0.00000  Uiso   1.00
C807   C     0.74672   0.67703   0.47592   0.00000  Uiso   1.00
C808   C     0.75333   0.98964   0.52408   0.00000  Uiso   1.00
H809   H     0.73961   0.98593   0.42986   0.00000  Uiso   1.00
H810   H     0.76046   0.68074   0.57013   0.00000  Uiso   1.00
N811   N     0.73744   0.81881   0.34617   0.00000  Uiso   1.00
N812   N     0.76255   0.84786   0.65383   0.00000  Uiso   1.00
C813   C     0.88706   0.93197   0.55226   0.00000  Uiso   1.00
H814   H     0.85577   0.94029   0.53013   0.00000  Uiso   1.00
O815   O     0.90143   0.96143   0.60091   0.00000  Uiso   1.00
C816   C     0.61293   0.73470   0.44770   0.00000  Uiso   1.00
H817   H     0.64423   0.72638   0.46981   0.00000  Uiso   1.00
O818   O     0.59855   0.70525   0.39906   0.00000  Uiso   1.00
C819   C     0.69208   0.80780   0.65559   0.00000  Uiso   1.00
C820   C     0.67601   0.75521   0.62941   0.00000  Uiso   1.00
C821   C     0.63003   0.74268   0.61344   0.00000  Uiso   1.00
C822   C     0.59966   0.78231   0.62542   0.00000  Uiso   1.00
C823   C     0.61529   0.83470   0.65261   0.00000  Uiso   1.00
C824   C     0.66134   0.84757   0.33420   0.00000  Uiso   1.00
H825   H     0.69899   0.72390   0.62249   0.00000  Uiso   1.00
H826   H     0.61789   0.70207   0.59282   0.00000  Uiso   1.00
H827   H     0.56403   0.77243   0.61365   0.00000  Uiso   1.00
H828   H     0.59171   0.86530   0.66219   0.00000  Uiso   1.00
H829   H     0.67311   0.88805   0.35634   0.00000  Uiso   1.00
C830   C     0.80795   0.85867   0.34431   0.00000  Uiso   1.00
C831   C     0.83853   0.81873   0.66565   0.00000  Uiso   1.00
C832   C     0.88462   0.83137   0.34712   0.00000  Uiso   1.00
C833   C     0.90044   0.88369   0.37426   0.00000  Uiso   1.00
C834   C     0.87022   0.92349   0.38632   0.00000  Uiso   1.00
C835   C     0.82421   0.91119   0.37046   0.00000  Uiso   1.00
H836   H     0.82661   0.77829   0.64353   0.00000  Uiso   1.00
H837   H     0.90806   0.80064   0.33749   0.00000  Uiso   1.00
H838   H     0.93609   0.89340   0.38595   0.00000  Uiso   1.00
H839   H     0.88252   0.96405   0.40692   0.00000  Uiso   1.00
H840   H     0.80134   0.94263   0.37747   0.00000  Uiso   1.00
O841   O     0.25325   0.09538   0.87326   0.00000  Uiso   1.00
O842   O     0.24674   0.23796   0.79341   0.00000  Uiso   1.00
O843   O     0.24480   0.08559   0.76945   0.00000  Uiso   1.00
O844   O     0.25520   0.24774   0.89721   0.00000  Uiso   1.00
C845   C     0.24842   0.06663   0.81766   0.00000  Uiso   1.00
C846   C     0.25160   0.26670   0.84900   0.00000  Uiso   1.00
O847   O     0.18935   0.17155   0.88524   0.00000  Uiso   1.00
O848   O     0.31064   0.16179   0.78143   0.00000  Uiso   1.00
O849   O     0.18090   0.16176   0.78143   0.00000  Uiso   1.00
O850   O     0.31910   0.17157   0.88523   0.00000  Uiso   1.00
C851   C     0.16478   0.16603   0.83396   0.00000  Uiso   1.00
C852   C     0.33522   0.16731   0.83271   0.00000  Uiso   1.00
Cu853  Cu    0.25500   0.17246   0.89479   0.00000  Uiso   1.00
Cu854  Cu    0.24499   0.16087   0.77187   0.00000  Uiso   1.00
C855   C     0.40988   0.21662   0.85854   0.00000  Uiso   1.00
C856   C     0.09012   0.11672   0.80811   0.00000  Uiso   1.00
C857   C     0.38342   0.16935   0.83185   0.00000  Uiso   1.00
C858   C     0.11658   0.16399   0.83481   0.00000  Uiso   1.00
C859   C     0.40264   0.12216   0.80766   0.00000  Uiso   1.00
C860   C     0.09736   0.21117   0.85903   0.00000  Uiso   1.00
C861   C     0.44897   0.12069   0.80905   0.00000  Uiso   1.00
C862   C     0.05103   0.21265   0.85764   0.00000  Uiso   1.00
C863   C     0.47651   0.16755   0.83349   0.00000  Uiso   1.00
C864   C     0.02349   0.16579   0.83319   0.00000  Uiso   1.00
C865   C     0.45715   0.21609   0.85792   0.00000  Uiso   1.00
C866   C     0.04285   0.11725   0.80875   0.00000  Uiso   1.00
C867   C     0.46801   0.07271   0.78675   0.00000  Uiso   1.00
C868   C     0.03199   0.26063   0.87993   0.00000  Uiso   1.00
C869   C     0.01437   0.07077   0.78730   0.00000  Uiso   1.00
C870   C     0.48563   0.26257   0.87937   0.00000  Uiso   1.00
H871   H     0.38125   0.08624   0.78871   0.00000  Uiso   1.00
H872   H     0.11875   0.24709   0.87799   0.00000  Uiso   1.00
H873   H     0.44698   0.03638   0.76920   0.00000  Uiso   1.00
H874   H     0.05302   0.29696   0.89749   0.00000  Uiso   1.00
H875   H     0.02721   0.03229   0.77146   0.00000  Uiso   1.00
H876   H     0.47279   0.30104   0.89521   0.00000  Uiso   1.00
C877   C     0.24672   0.01036   0.80925   0.00000  Uiso   1.00
C878   C     0.25333   0.32297   0.85741   0.00000  Uiso   1.00
H879   H     0.23961   0.31926   0.76319   0.00000  Uiso   1.00
H880   H     0.26046   0.01407   0.90346   0.00000  Uiso   1.00
N881   N     0.23744   0.15214   0.67951   0.00000  Uiso   1.00
N882   N     0.26255   0.18119   0.98716   0.00000  Uiso   1.00
C883   C     0.38706   0.26531   0.88560   0.00000  Uiso   1.00
H884   H     0.35577   0.27363   0.86346   0.00000  Uiso   1.00
O885   O     0.40143   0.29476   0.93424   0.00000  Uiso   1.00
C886   C     0.11293   0.06804   0.78103   0.00000  Uiso   1.00
H887   H     0.14423   0.05972   0.80314   0.00000  Uiso   1.00
O888   O     0.09855   0.03859   0.73239   0.00000  Uiso   1.00
C889   C     0.19208   0.14113   0.98892   0.00000  Uiso   1.00
C890   C     0.17601   0.08855   0.96274   0.00000  Uiso   1.00
C891   C     0.13003   0.07601   0.94678   0.00000  Uiso   1.00
C892   C     0.09966   0.11564   0.95876   0.00000  Uiso   1.00
C893   C     0.11529   0.16803   0.98595   0.00000  Uiso   1.00
C894   C     0.16134   0.18090   0.66753   0.00000  Uiso   1.00
H895   H     0.19899   0.05723   0.95582   0.00000  Uiso   1.00
H896   H     0.11789   0.03540   0.92615   0.00000  Uiso   1.00
H897   H     0.06403   0.10576   0.94698   0.00000  Uiso   1.00
H898   H     0.09171   0.19863   0.99552   0.00000  Uiso   1.00
H899   H     0.17311   0.22139   0.68968   0.00000  Uiso   1.00
C900   C     0.30795   0.19200   0.67764   0.00000  Uiso   1.00
C901   C     0.33853   0.15206   0.99898   0.00000  Uiso   1.00
C902   C     0.38462   0.16470   0.68045   0.00000  Uiso   1.00
C903   C     0.40044   0.21703   0.70759   0.00000  Uiso   1.00
C904   C     0.37022   0.25682   0.71965   0.00000  Uiso   1.00
C905   C     0.32421   0.24452   0.70380   0.00000  Uiso   1.00
H906   H     0.32661   0.11162   0.97687   0.00000  Uiso   1.00
H907   H     0.40806   0.13397   0.67083   0.00000  Uiso   1.00
H908   H     0.43609   0.22673   0.71928   0.00000  Uiso   1.00
H909   H     0.38252   0.29738   0.74025   0.00000  Uiso   1.00
H910   H     0.30134   0.27596   0.71080   0.00000  Uiso   1.00
O911   O     0.75325   0.09538   0.87326   0.00000  Uiso   1.00
O912   O     0.74674   0.23796   0.79341   0.00000  Uiso   1.00
O913   O     0.74480   0.08559   0.76945   0.00000  Uiso   1.00
O914   O     0.75520   0.24774   0.89721   0.00000  Uiso   1.00
C915   C     0.74842   0.06663   0.81766   0.00000  Uiso   1.00
C916   C     0.75160   0.26670   0.84900   0.00000  Uiso   1.00
O917   O     0.68935   0.17155   0.88524   0.00000  Uiso   1.00
O918   O     0.81064   0.16179   0.78143   0.00000  Uiso   1.00
O919   O     0.68090   0.16176   0.78143   0.00000  Uiso   1.00
O920   O     0.81910   0.17157   0.88523   0.00000  Uiso   1.00
C921   C     0.66478   0.16603   0.83396   0.00000  Uiso   1.00
C922   C     0.83522   0.16731   0.83271   0.00000  Uiso   1.00
Cu923  Cu    0.75500   0.17246   0.89479   0.00000  Uiso   1.00
Cu924  Cu    0.74499   0.16087   0.77187   0.00000  Uiso   1.00
C925   C     0.90988   0.21662   0.85854   0.00000  Uiso   1.00
C926   C     0.59012   0.11672   0.80811   0.00000  Uiso   1.00
C927   C     0.88342   0.16935   0.83185   0.00000  Uiso   1.00
C928   C     0.61658   0.16399   0.83481   0.00000  Uiso   1.00
C929   C     0.90264   0.12216   0.80766   0.00000  Uiso   1.00
C930   C     0.59736   0.21117   0.85903   0.00000  Uiso   1.00
C931   C     0.94897   0.12069   0.80905   0.00000  Uiso   1.00
C932   C     0.55103   0.21265   0.85764   0.00000  Uiso   1.00
C933   C     0.97651   0.16755   0.83349   0.00000  Uiso   1.00
C934   C     0.52349   0.16579   0.83319   0.00000  Uiso   1.00
C935   C     0.95715   0.21609   0.85792   0.00000  Uiso   1.00
C936   C     0.54285   0.11725   0.80875   0.00000  Uiso   1.00
C937   C     0.96801   0.07271   0.78675   0.00000  Uiso   1.00
C938   C     0.53199   0.26063   0.87993   0.00000  Uiso   1.00
C939   C     0.51437   0.07077   0.78730   0.00000  Uiso   1.00
C940   C     0.98563   0.26257   0.87937   0.00000  Uiso   1.00
H941   H     0.88125   0.08624   0.78871   0.00000  Uiso   1.00
H942   H     0.61875   0.24709   0.87799   0.00000  Uiso   1.00
H943   H     0.94698   0.03638   0.76920   0.00000  Uiso   1.00
H944   H     0.55302   0.29696   0.89749   0.00000  Uiso   1.00
H945   H     0.52721   0.03229   0.77146   0.00000  Uiso   1.00
H946   H     0.97279   0.30104   0.89521   0.00000  Uiso   1.00
C947   C     0.74672   0.01036   0.80925   0.00000  Uiso   1.00
C948   C     0.75333   0.32297   0.85741   0.00000  Uiso   1.00
H949   H     0.73961   0.31926   0.76319   0.00000  Uiso   1.00
H950   H     0.76046   0.01407   0.90346   0.00000  Uiso   1.00
N951   N     0.73744   0.15214   0.67951   0.00000  Uiso   1.00
N952   N     0.76255   0.18119   0.98716   0.00000  Uiso   1.00
C953   C     0.88706   0.26531   0.88560   0.00000  Uiso   1.00
H954   H     0.85577   0.27363   0.86346   0.00000  Uiso   1.00
O955   O     0.90143   0.29476   0.93424   0.00000  Uiso   1.00
C956   C     0.61293   0.06804   0.78103   0.00000  Uiso   1.00
H957   H     0.64423   0.05972   0.80314   0.00000  Uiso   1.00
O958   O     0.59855   0.03859   0.73239   0.00000  Uiso   1.00
C959   C     0.69208   0.14113   0.98892   0.00000  Uiso   1.00
C960   C     0.67601   0.08855   0.96274   0.00000  Uiso   1.00
C961   C     0.63003   0.07601   0.94678   0.00000  Uiso   1.00
C962   C     0.59966   0.11564   0.95876   0.00000  Uiso   1.00
C963   C     0.61529   0.16803   0.98595   0.00000  Uiso   1.00
C964   C     0.66134   0.18090   0.66753   0.00000  Uiso   1.00
H965   H     0.69899   0.05723   0.95582   0.00000  Uiso   1.00
H966   H     0.61789   0.03540   0.92615   0.00000  Uiso   1.00
H967   H     0.56403   0.10576   0.94698   0.00000  Uiso   1.00
H968   H     0.59171   0.19863   0.99552   0.00000  Uiso   1.00
H969   H     0.67311   0.22139   0.68968   0.00000  Uiso   1.00
C970   C     0.80795   0.19200   0.67764   0.00000  Uiso   1.00
C971   C     0.83853   0.15206   0.99898   0.00000  Uiso   1.00
C972   C     0.88462   0.16470   0.68045   0.00000  Uiso   1.00
C973   C     0.90044   0.21703   0.70759   0.00000  Uiso   1.00
C974   C     0.87022   0.25682   0.71965   0.00000  Uiso   1.00
C975   C     0.82421   0.24452   0.70380   0.00000  Uiso   1.00
H976   H     0.82661   0.11162   0.97687   0.00000  Uiso   1.00
H977   H     0.90806   0.13397   0.67083   0.00000  Uiso   1.00
H978   H     0.93609   0.22673   0.71928   0.00000  Uiso   1.00
H979   H     0.88252   0.29738   0.74025   0.00000  Uiso   1.00
H980   H     0.80134   0.27596   0.71080   0.00000  Uiso   1.00
O981   O     0.25325   0.42871   0.87326   0.00000  Uiso   1.00
O982   O     0.24674   0.57129   0.79341   0.00000  Uiso   1.00
O983   O     0.24480   0.41892   0.76945   0.00000  Uiso   1.00
O984   O     0.25520   0.58108   0.89721   0.00000  Uiso   1.00
C985   C     0.24842   0.39997   0.81766   0.00000  Uiso   1.00
C986   C     0.25160   0.60004   0.84900   0.00000  Uiso   1.00
O987   O     0.18935   0.50488   0.88524   0.00000  Uiso   1.00
O988   O     0.31064   0.49512   0.78143   0.00000  Uiso   1.00
O989   O     0.18090   0.49510   0.78143   0.00000  Uiso   1.00
O990   O     0.31910   0.50490   0.88523   0.00000  Uiso   1.00
C991   C     0.16478   0.49936   0.83396   0.00000  Uiso   1.00
C992   C     0.33522   0.50064   0.83271   0.00000  Uiso   1.00
Cu993  Cu    0.25500   0.50579   0.89479   0.00000  Uiso   1.00
Cu994  Cu    0.24499   0.49421   0.77187   0.00000  Uiso   1.00
C995   C     0.40988   0.54995   0.85854   0.00000  Uiso   1.00
C996   C     0.09012   0.45005   0.80811   0.00000  Uiso   1.00
C997   C     0.38342   0.50268   0.83185   0.00000  Uiso   1.00
C998   C     0.11658   0.49732   0.83481   0.00000  Uiso   1.00
C999   C     0.40264   0.45550   0.80766   0.00000  Uiso   1.00
C1000  C     0.09736   0.54450   0.85903   0.00000  Uiso   1.00
C1001  C     0.44897   0.45402   0.80905   0.00000  Uiso   1.00
C1002  C     0.05103   0.54598   0.85764   0.00000  Uiso   1.00
C1003  C     0.47651   0.50088   0.83349   0.00000  Uiso   1.00
C1004  C     0.02349   0.49912   0.83319   0.00000  Uiso   1.00
C1005  C     0.45715   0.54942   0.85792   0.00000  Uiso   1.00
C1006  C     0.04285   0.45058   0.80875   0.00000  Uiso   1.00
C1007  C     0.46801   0.40604   0.78675   0.00000  Uiso   1.00
C1008  C     0.03199   0.59396   0.87993   0.00000  Uiso   1.00
C1009  C     0.01437   0.40410   0.78730   0.00000  Uiso   1.00
C1010  C     0.48563   0.59590   0.87937   0.00000  Uiso   1.00
H1011  H     0.38125   0.41957   0.78871   0.00000  Uiso   1.00
H1012  H     0.11875   0.58042   0.87799   0.00000  Uiso   1.00
H1013  H     0.44698   0.36971   0.76920   0.00000  Uiso   1.00
H1014  H     0.05302   0.63029   0.89749   0.00000  Uiso   1.00
H1015  H     0.02721   0.36563   0.77146   0.00000  Uiso   1.00
H1016  H     0.47279   0.63438   0.89521   0.00000  Uiso   1.00
C1017  C     0.24672   0.34369   0.80925   0.00000  Uiso   1.00
C1018  C     0.25333   0.65631   0.85741   0.00000  Uiso   1.00
H1019  H     0.23961   0.65260   0.76319   0.00000  Uiso   1.00
H1020  H     0.26046   0.34740   0.90346   0.00000  Uiso   1.00
N1021  N     0.23744   0.48547   0.67951   0.00000  Uiso   1.00
N1022  N     0.26255   0.51453   0.98716   0.00000  Uiso   1.00
C1023  C     0.38706   0.59864   0.88560   0.00000  Uiso   1.00
H1024  H     0.35577   0.60696   0.86346   0.00000  Uiso   1.00
O1025  O     0.40143   0.62809   0.93424   0.00000  Uiso   1.00
C1026  C     0.11293   0.40137   0.78103   0.00000  Uiso   1.00
H1027  H     0.14423   0.39305   0.80314   0.00000  Uiso   1.00
O1028  O     0.09855   0.37192   0.73239   0.00000  Uiso   1.00
C1029  C     0.19208   0.47447   0.98892   0.00000  Uiso   1.00
C1030  C     0.17601   0.42188   0.96274   0.00000  Uiso   1.00
C1031  C     0.13003   0.40935   0.94678   0.00000  Uiso   1.00
C1032  C     0.09966   0.44898   0.95876   0.00000  Uiso   1.00
C1033  C     0.11529   0.50136   0.98595   0.00000  Uiso   1.00
C1034  C     0.16134   0.51424   0.66753   0.00000  Uiso   1.00
H1035  H     0.19899   0.39056   0.95582   0.00000  Uiso   1.00
H1036  H     0.11789   0.36874   0.92615   0.00000  Uiso   1.00
H1037  H     0.06403   0.43909   0.94698   0.00000  Uiso   1.00
H1038  H     0.09171   0.53196   0.99552   0.00000  Uiso   1.00
H1039  H     0.17311   0.55472   0.68968   0.00000  Uiso   1.00
C1040  C     0.30795   0.52533   0.67764   0.00000  Uiso   1.00
C1041  C     0.33853   0.48539   0.99898   0.00000  Uiso   1.00
C1042  C     0.38462   0.49804   0.68045   0.00000  Uiso   1.00
C1043  C     0.40044   0.55036   0.70759   0.00000  Uiso   1.00
C1044  C     0.37022   0.59016   0.71965   0.00000  Uiso   1.00
C1045  C     0.32421   0.57786   0.70380   0.00000  Uiso   1.00
H1046  H     0.32661   0.44496   0.97687   0.00000  Uiso   1.00
H1047  H     0.40806   0.46731   0.67083   0.00000  Uiso   1.00
H1048  H     0.43609   0.56006   0.71928   0.00000  Uiso   1.00
H1049  H     0.38252   0.63071   0.74025   0.00000  Uiso   1.00
H1050  H     0.30134   0.60930   0.71080   0.00000  Uiso   1.00
O1051  O     0.75325   0.42871   0.87326   0.00000  Uiso   1.00
O1052  O     0.74674   0.57129   0.79341   0.00000  Uiso   1.00
O1053  O     0.74480   0.41892   0.76945   0.00000  Uiso   1.00
O1054  O     0.75520   0.58108   0.89721   0.00000  Uiso   1.00
C1055  C     0.74842   0.39997   0.81766   0.00000  Uiso   1.00
C1056  C     0.75160   0.60004   0.84900   0.00000  Uiso   1.00
O1057  O     0.68935   0.50488   0.88524   0.00000  Uiso   1.00
O1058  O     0.81064   0.49512   0.78143   0.00000  Uiso   1.00
O1059  O     0.68090   0.49510   0.78143   0.00000  Uiso   1.00
O1060  O     0.81910   0.50490   0.88523   0.00000  Uiso   1.00
C1061  C     0.66478   0.49936   0.83396   0.00000  Uiso   1.00
C1062  C     0.83522   0.50064   0.83271   0.00000  Uiso   1.00
Cu1063 Cu    0.75500   0.50579   0.89479   0.00000  Uiso   1.00
Cu1064 Cu    0.74499   0.49421   0.77187   0.00000  Uiso   1.00
C1065  C     0.90988   0.54995   0.85854   0.00000  Uiso   1.00
C1066  C     0.59012   0.45005   0.80811   0.00000  Uiso   1.00
C1067  C     0.88342   0.50268   0.83185   0.00000  Uiso   1.00
C1068  C     0.61658   0.49732   0.83481   0.00000  Uiso   1.00
C1069  C     0.90264   0.45550   0.80766   0.00000  Uiso   1.00
C1070  C     0.59736   0.54450   0.85903   0.00000  Uiso   1.00
C1071  C     0.94897   0.45402   0.80905   0.00000  Uiso   1.00
C1072  C     0.55103   0.54598   0.85764   0.00000  Uiso   1.00
C1073  C     0.97651   0.50088   0.83349   0.00000  Uiso   1.00
C1074  C     0.52349   0.49912   0.83319   0.00000  Uiso   1.00
C1075  C     0.95715   0.54942   0.85792   0.00000  Uiso   1.00
C1076  C     0.54285   0.45058   0.80875   0.00000  Uiso   1.00
C1077  C     0.96801   0.40604   0.78675   0.00000  Uiso   1.00
C1078  C     0.53199   0.59396   0.87993   0.00000  Uiso   1.00
C1079  C     0.51437   0.40410   0.78730   0.00000  Uiso   1.00
C1080  C     0.98563   0.59590   0.87937   0.00000  Uiso   1.00
H1081  H     0.88125   0.41957   0.78871   0.00000  Uiso   1.00
H1082  H     0.61875   0.58042   0.87799   0.00000  Uiso   1.00
H1083  H     0.94698   0.36971   0.76920   0.00000  Uiso   1.00
H1084  H     0.55302   0.63029   0.89749   0.00000  Uiso   1.00
H1085  H     0.52721   0.36563   0.77146   0.00000  Uiso   1.00
H1086  H     0.97279   0.63438   0.89521   0.00000  Uiso   1.00
C1087  C     0.74672   0.34369   0.80925   0.00000  Uiso   1.00
C1088  C     0.75333   0.65631   0.85741   0.00000  Uiso   1.00
H1089  H     0.73961   0.65260   0.76319   0.00000  Uiso   1.00
H1090  H     0.76046   0.34740   0.90346   0.00000  Uiso   1.00
N1091  N     0.73744   0.48547   0.67951   0.00000  Uiso   1.00
N1092  N     0.76255   0.51453   0.98716   0.00000  Uiso   1.00
C1093  C     0.88706   0.59864   0.88560   0.00000  Uiso   1.00
H1094  H     0.85577   0.60696   0.86346   0.00000  Uiso   1.00
O1095  O     0.90143   0.62809   0.93424   0.00000  Uiso   1.00
C1096  C     0.61293   0.40137   0.78103   0.00000  Uiso   1.00
H1097  H     0.64423   0.39305   0.80314   0.00000  Uiso   1.00
O1098  O     0.59855   0.37192   0.73239   0.00000  Uiso   1.00
C1099  C     0.69208   0.47447   0.98892   0.00000  Uiso   1.00
C1100  C     0.67601   0.42188   0.96274   0.00000  Uiso   1.00
C1101  C     0.63003   0.40935   0.94678   0.00000  Uiso   1.00
C1102  C     0.59966   0.44898   0.95876   0.00000  Uiso   1.00
C1103  C     0.61529   0.50136   0.98595   0.00000  Uiso   1.00
C1104  C     0.66134   0.51424   0.66753   0.00000  Uiso   1.00
H1105  H     0.69899   0.39056   0.95582   0.00000  Uiso   1.00
H1106  H     0.61789   0.36874   0.92615   0.00000  Uiso   1.00
H1107  H     0.56403   0.43909   0.94698   0.00000  Uiso   1.00
H1108  H     0.59171   0.53196   0.99552   0.00000  Uiso   1.00
H1109  H     0.67311   0.55472   0.68968   0.00000  Uiso   1.00
C1110  C     0.80795   0.52533   0.67764   0.00000  Uiso   1.00
C1111  C     0.83853   0.48539   0.99898   0.00000  Uiso   1.00
C1112  C     0.88462   0.49804   0.68045   0.00000  Uiso   1.00
C1113  C     0.90044   0.55036   0.70759   0.00000  Uiso   1.00
C1114  C     0.87022   0.59016   0.71965   0.00000  Uiso   1.00
C1115  C     0.82421   0.57786   0.70380   0.00000  Uiso   1.00
H1116  H     0.82661   0.44496   0.97687   0.00000  Uiso   1.00
H1117  H     0.90806   0.46731   0.67083   0.00000  Uiso   1.00
H1118  H     0.93609   0.56006   0.71928   0.00000  Uiso   1.00
H1119  H     0.88252   0.63071   0.74025   0.00000  Uiso   1.00
H1120  H     0.80134   0.60930   0.71080   0.00000  Uiso   1.00
O1121  O     0.25325   0.76204   0.87326   0.00000  Uiso   1.00
O1122  O     0.24674   0.90462   0.79341   0.00000  Uiso   1.00
O1123  O     0.24480   0.75226   0.76945   0.00000  Uiso   1.00
O1124  O     0.25520   0.91441   0.89721   0.00000  Uiso   1.00
C1125  C     0.24842   0.73330   0.81766   0.00000  Uiso   1.00
C1126  C     0.25160   0.93337   0.84900   0.00000  Uiso   1.00
O1127  O     0.18935   0.83821   0.88524   0.00000  Uiso   1.00
O1128  O     0.31064   0.82845   0.78143   0.00000  Uiso   1.00
O1129  O     0.18090   0.82843   0.78143   0.00000  Uiso   1.00
O1130  O     0.31910   0.83824   0.88523   0.00000  Uiso   1.00
C1131  C     0.16478   0.83270   0.83396   0.00000  Uiso   1.00
C1132  C     0.33522   0.83397   0.83271   0.00000  Uiso   1.00
Cu1133 Cu    0.25500   0.83913   0.89479   0.00000  Uiso   1.00
Cu1134 Cu    0.24499   0.82754   0.77187   0.00000  Uiso   1.00
C1135  C     0.40988   0.88328   0.85854   0.00000  Uiso   1.00
C1136  C     0.09012   0.78339   0.80811   0.00000  Uiso   1.00
C1137  C     0.38342   0.83601   0.83185   0.00000  Uiso   1.00
C1138  C     0.11658   0.83066   0.83481   0.00000  Uiso   1.00
C1139  C     0.40264   0.78883   0.80766   0.00000  Uiso   1.00
C1140  C     0.09736   0.87783   0.85903   0.00000  Uiso   1.00
C1141  C     0.44897   0.78735   0.80905   0.00000  Uiso   1.00
C1142  C     0.05103   0.87931   0.85764   0.00000  Uiso   1.00
C1143  C     0.47651   0.83421   0.83349   0.00000  Uiso   1.00
C1144  C     0.02349   0.83245   0.83319   0.00000  Uiso   1.00
C1145  C     0.45715   0.88275   0.85792   0.00000  Uiso   1.00
C1146  C     0.04285   0.78392   0.80875   0.00000  Uiso   1.00
C1147  C     0.46801   0.73937   0.78675   0.00000  Uiso   1.00
C1148  C     0.03199   0.92729   0.87993   0.00000  Uiso   1.00
C1149  C     0.01437   0.73743   0.78730   0.00000  Uiso   1.00
C1150  C     0.48563   0.92923   0.87937   0.00000  Uiso   1.00
H1151  H     0.38125   0.75291   0.78871   0.00000  Uiso   1.00
H1152  H     0.11875   0.91376   0.87799   0.00000  Uiso   1.00
H1153  H     0.44698   0.70304   0.76920   0.00000  Uiso   1.00
H1154  H     0.05302   0.96362   0.89749   0.00000  Uiso   1.00
H1155  H     0.02721   0.69896   0.77146   0.00000  Uiso   1.00
H1156  H     0.47279   0.96771   0.89521   0.00000  Uiso   1.00
C1157  C     0.24672   0.67703   0.80925   0.00000  Uiso   1.00
C1158  C     0.25333   0.98964   0.85741   0.00000  Uiso   1.00
H1159  H     0.23961   0.98593   0.76319   0.00000  Uiso   1.00
H1160  H     0.26046   0.68074   0.90346   0.00000  Uiso   1.00
N1161  N     0.23744   0.81881   0.67951   0.00000  Uiso   1.00
N1162  N     0.26255   0.84786   0.98716   0.00000  Uiso   1.00
C1163  C     0.38706   0.93197   0.88560   0.00000  Uiso   1.00
H1164  H     0.35577   0.94029   0.86346   0.00000  Uiso   1.00
O1165  O     0.40143   0.96143   0.93424   0.00000  Uiso   1.00
C1166  C     0.11293   0.73470   0.78103   0.00000  Uiso   1.00
H1167  H     0.14423   0.72638   0.80314   0.00000  Uiso   1.00
O1168  O     0.09855   0.70525   0.73239   0.00000  Uiso   1.00
C1169  C     0.19208   0.80780   0.98892   0.00000  Uiso   1.00
C1170  C     0.17601   0.75521   0.96274   0.00000  Uiso   1.00
C1171  C     0.13003   0.74268   0.94678   0.00000  Uiso   1.00
C1172  C     0.09966   0.78231   0.95876   0.00000  Uiso   1.00
C1173  C     0.11529   0.83470   0.98595   0.00000  Uiso   1.00
C1174  C     0.16134   0.84757   0.66753   0.00000  Uiso   1.00
H1175  H     0.19899   0.72390   0.95582   0.00000  Uiso   1.00
H1176  H     0.11789   0.70207   0.92615   0.00000  Uiso   1.00
H1177  H     0.06403   0.77243   0.94698   0.00000  Uiso   1.00
H1178  H     0.09171   0.86530   0.99552   0.00000  Uiso   1.00
H1179  H     0.17311   0.88805   0.68968   0.00000  Uiso   1.00
C1180  C     0.30795   0.85867   0.67764   0.00000  Uiso   1.00
C1181  C     0.33853   0.81873   0.99898   0.00000  Uiso   1.00
C1182  C     0.38462   0.83137   0.68045   0.00000  Uiso   1.00
C1183  C     0.40044   0.88369   0.70759   0.00000  Uiso   1.00
C1184  C     0.37022   0.92349   0.71965   0.00000  Uiso   1.00
C1185  C     0.32421   0.91119   0.70380   0.00000  Uiso   1.00
H1186  H     0.32661   0.77829   0.97687   0.00000  Uiso   1.00
H1187  H     0.40806   0.80064   0.67083   0.00000  Uiso   1.00
H1188  H     0.43609   0.89340   0.71928   0.00000  Uiso   1.00
H1189  H     0.38252   0.96405   0.74025   0.00000  Uiso   1.00
H1190  H     0.30134   0.94263   0.71080   0.00000  Uiso   1.00
O1191  O     0.75325   0.76204   0.87326   0.00000  Uiso   1.00
O1192  O     0.74674   0.90462   0.79341   0.00000  Uiso   1.00
O1193  O     0.74480   0.75226   0.76945   0.00000  Uiso   1.00
O1194  O     0.75520   0.91441   0.89721   0.00000  Uiso   1.00
C1195  C     0.74842   0.73330   0.81766   0.00000  Uiso   1.00
C1196  C     0.75160   0.93337   0.84900   0.00000  Uiso   1.00
O1197  O     0.68935   0.83821   0.88524   0.00000  Uiso   1.00
O1198  O     0.81064   0.82845   0.78143   0.00000  Uiso   1.00
O1199  O     0.68090   0.82843   0.78143   0.00000  Uiso   1.00
O1200  O     0.81910   0.83824   0.88523   0.00000  Uiso   1.00
C1201  C     0.66478   0.83270   0.83396   0.00000  Uiso   1.00
C1202  C     0.83522   0.83397   0.83271   0.00000  Uiso   1.00
Cu1203 Cu    0.75500   0.83913   0.89479   0.00000  Uiso   1.00
Cu1204 Cu    0.74499   0.82754   0.77187   0.00000  Uiso   1.00
C1205  C     0.90988   0.88328   0.85854   0.00000  Uiso   1.00
C1206  C     0.59012   0.78339   0.80811   0.00000  Uiso   1.00
C1207  C     0.88342   0.83601   0.83185   0.00000  Uiso   1.00
C1208  C     0.61658   0.83066   0.83481   0.00000  Uiso   1.00
C1209  C     0.90264   0.78883   0.80766   0.00000  Uiso   1.00
C1210  C     0.59736   0.87783   0.85903   0.00000  Uiso   1.00
C1211  C     0.94897   0.78735   0.80905   0.00000  Uiso   1.00
C1212  C     0.55103   0.87931   0.85764   0.00000  Uiso   1.00
C1213  C     0.97651   0.83421   0.83349   0.00000  Uiso   1.00
C1214  C     0.52349   0.83245   0.83319   0.00000  Uiso   1.00
C1215  C     0.95715   0.88275   0.85792   0.00000  Uiso   1.00
C1216  C     0.54285   0.78392   0.80875   0.00000  Uiso   1.00
C1217  C     0.96801   0.73937   0.78675   0.00000  Uiso   1.00
C1218  C     0.53199   0.92729   0.87993   0.00000  Uiso   1.00
C1219  C     0.51437   0.73743   0.78730   0.00000  Uiso   1.00
C1220  C     0.98563   0.92923   0.87937   0.00000  Uiso   1.00
H1221  H     0.88125   0.75291   0.78871   0.00000  Uiso   1.00
H1222  H     0.61875   0.91376   0.87799   0.00000  Uiso   1.00
H1223  H     0.94698   0.70304   0.76920   0.00000  Uiso   1.00
H1224  H     0.55302   0.96362   0.89749   0.00000  Uiso   1.00
H1225  H     0.52721   0.69896   0.77146   0.00000  Uiso   1.00
H1226  H     0.97279   0.96771   0.89521   0.00000  Uiso   1.00
C1227  C     0.74672   0.67703   0.80925   0.00000  Uiso   1.00
C1228  C     0.75333   0.98964   0.85741   0.00000  Uiso   1.00
H1229  H     0.73961   0.98593   0.76319   0.00000  Uiso   1.00
H1230  H     0.76046   0.68074   0.90346   0.00000  Uiso   1.00
N1231  N     0.73744   0.81881   0.67951   0.00000  Uiso   1.00
N1232  N     0.76255   0.84786   0.98716   0.00000  Uiso   1.00
C1233  C     0.88706   0.93197   0.88560   0.00000  Uiso   1.00
H1234  H     0.85577   0.94029   0.86346   0.00000  Uiso   1.00
O1235  O     0.90143   0.96143   0.93424   0.00000  Uiso   1.00
C1236  C     0.61293   0.73470   0.78103   0.00000  Uiso   1.00
H1237  H     0.64423   0.72638   0.80314   0.00000  Uiso   1.00
O1238  O     0.59855   0.70525   0.73239   0.00000  Uiso   1.00
C1239  C     0.69208   0.80780   0.98892   0.00000  Uiso   1.00
C1240  C     0.67601   0.75521   0.96274   0.00000  Uiso   1.00
C1241  C     0.63003   0.74268   0.94678   0.00000  Uiso   1.00
C1242  C     0.59966   0.78231   0.95876   0.00000  Uiso   1.00
C1243  C     0.61529   0.83470   0.98595   0.00000  Uiso   1.00
C1244  C     0.66134   0.84757   0.66753   0.00000  Uiso   1.00
H1245  H     0.69899   0.72390   0.95582   0.00000  Uiso   1.00
H1246  H     0.61789   0.70207   0.92615   0.00000  Uiso   1.00
H1247  H     0.56403   0.77243   0.94698   0.00000  Uiso   1.00
H1248  H     0.59171   0.86530   0.99552   0.00000  Uiso   1.00
H1249  H     0.67311   0.88805   0.68968   0.00000  Uiso   1.00
C1250  C     0.80795   0.85867   0.67764   0.00000  Uiso   1.00
C1251  C     0.83853   0.81873   0.99898   0.00000  Uiso   1.00
C1252  C     0.88462   0.83137   0.68045   0.00000  Uiso   1.00
C1253  C     0.90044   0.88369   0.70759   0.00000  Uiso   1.00
C1254  C     0.87022   0.92349   0.71965   0.00000  Uiso   1.00
C1255  C     0.82421   0.91119   0.70380   0.00000  Uiso   1.00
H1256  H     0.82661   0.77829   0.97687   0.00000  Uiso   1.00
H1257  H     0.90806   0.80064   0.67083   0.00000  Uiso   1.00
H1258  H     0.93609   0.89340   0.71928   0.00000  Uiso   1.00
H1259  H     0.88252   0.96405   0.74025   0.00000  Uiso   1.00
H1260  H     0.80134   0.94263   0.71080   0.00000  Uiso   1.00
loop_
_geom_bond_atom_site_label_1
_geom_bond_atom_site_label_2
_geom_bond_distance
_geom_bond_site_symmetry_2
_ccdc_geom_bond_type
O1     C5      1.299   .     A
O1     Cu13    1.945   .     S
O2     Cu14    1.945   .     S
O2     C6      1.299   .     A
O3     Cu14    1.945   .     S
O3     C5      1.300   .     A
O4     C6      1.300   .     A
O4     Cu13    1.945   .     S
C5     C37     1.428   .     S
C6     C38     1.428   .     S
O7     C11     1.304   .     A
O7     Cu13    1.957   .     S
O8     C12     1.304   .     A
O8     Cu14    1.957   .     S
O9     Cu14    1.944   .     S
O9     C11     1.298   .     A
O10    C12     1.298   .     A
O10    Cu13    1.944   .     S
C11    C18     1.441   .     S
C12    C17     1.441   .     S
Cu13   N42     2.046   .     S
Cu13   Cu14    2.723   .     S
Cu14   N41     2.046   .     S
C15    C25     1.415   .     A
C15    C43     1.491   .     S
C15    C17     1.410   .     A
C16    C18     1.410   .     A
C16    C26     1.415   .     A
C16    C46     1.491   .     S
C17    C19     1.390   .     A
C18    C20     1.390   .     A
C19    H31     1.086   .     S
C19    C21     1.385   .     A
C20    C22     1.385   .     A
C20    H32     1.086   .     S
C21    C27     1.396   .     A
C21    C23     1.410   .     A
C22    C28     1.396   .     A
C22    C24     1.410   .     A
C23    C25     1.422   .     A
C23    C94     1.408   .     S
C24    C26     1.422   .     A
C24    C93     1.408   1_455 S
C25    C30     1.409   .     A
C26    C29     1.409   .     A
C27    H33     1.084   .     S
C27    C99     1.388   .     S
C28    H34     1.084   .     S
C28    C100    1.388   1_455 S
C29    H35     1.079   .     S
C29    C97     1.388   1_455 S
C30    H36     1.079   .     S
C30    C98     1.388   .     S
C37    C318    1.333   1_545 S
C37    H319    1.087   1_545 S
C38    C177    1.333   .     S
C38    H180    1.087   .     S
H39    C177    1.087   .     S
H40    C318    1.087   1_545 S
N41    N882    1.298   1_554 S
N41    C889    1.414   1_554 S
N42    N461    1.298   .     S
N42    C480    1.414   .     S
C43    O45     1.221   .     D
C43    H44     1.085   .     S
C46    O48     1.221   .     D
C46    H47     1.085   .     S
C49    C50     1.402   .     A
C49    N461    1.414   .     S
C49    C474    1.408   .     S
C50    H55     1.082   .     S
C50    C51     1.398   .     A
C51    H56     1.082   .     S
C51    C52     1.398   .     A
C52    H57     1.083   .     S
C52    C53     1.398   .     A
C53    H58     1.083   .     S
C53    C474    1.399   .     S
C54    H59     1.083   .     S
C54    C893    1.399   1_554 S
C54    C889    1.408   1_554 S
C60    C65     1.402   .     A
C60    N882    1.414   1_554 S
C60    C901    1.408   1_554 S
C61    H66     1.083   .     S
C61    C480    1.408   .     S
C61    C482    1.399   .     S
C62    C63     1.398   .     A
C62    H67     1.082   .     S
C62    C901    1.399   1_554 S
C63    H68     1.082   .     S
C63    C64     1.398   .     A
C64    C65     1.398   .     A
C64    H69     1.082   .     S
C65    H70     1.081   .     S
O71    C75     1.299   .     A
O71    Cu83    1.945   .     S
O72    Cu84    1.945   .     S
O72    C76     1.299   .     A
O73    Cu84    1.945   .     S
O73    C75     1.300   .     A
O74    C76     1.300   .     A
O74    Cu83    1.945   .     S
C75    C107    1.428   .     S
C76    C108    1.428   .     S
O77    C81     1.304   .     A
O77    Cu83    1.957   .     S
O78    C82     1.304   .     A
O78    Cu84    1.957   .     S
O79    Cu84    1.944   .     S
O79    C81     1.298   .     A
O80    C82     1.298   .     A
O80    Cu83    1.944   .     S
C81    C88     1.441   .     S
C82    C87     1.441   .     S
Cu83   N112    2.046   .     S
Cu83   Cu84    2.723   .     S
Cu84   N111    2.046   .     S
C85    C95     1.415   .     A
C85    C113    1.491   .     S
C85    C87     1.410   .     A
C86    C88     1.410   .     A
C86    C96     1.415   .     A
C86    C116    1.491   .     S
C87    C89     1.390   .     A
C88    C90     1.390   .     A
C89    H101    1.086   .     S
C89    C91     1.385   .     A
C90    C92     1.385   .     A
C90    H102    1.086   .     S
C91    C97     1.396   .     A
C91    C93     1.410   .     A
C92    C98     1.396   .     A
C92    C94     1.410   .     A
C93    C95     1.422   .     A
C93    C24     1.408   1_655 S
C94    C96     1.422   .     A
C95    C100    1.409   .     A
C96    C99     1.409   .     A
C97    H103    1.084   .     S
C97    C29     1.388   1_655 S
C98    H104    1.084   .     S
C99    H105    1.079   .     S
C100   H106    1.079   .     S
C100   C28     1.388   1_655 S
C107   C388    1.333   1_545 S
C107   H389    1.087   1_545 S
C108   C247    1.333   .     S
C108   H250    1.087   .     S
H109   C247    1.087   .     S
H110   C388    1.087   1_545 S
N111   N952    1.298   1_554 S
N111   C959    1.414   1_554 S
N112   N531    1.298   .     S
N112   C550    1.414   .     S
C113   O115    1.221   .     D
C113   H114    1.085   .     S
C116   O118    1.221   .     D
C116   H117    1.085   .     S
C119   C120    1.402   .     A
C119   N531    1.414   .     S
C119   C544    1.408   .     S
C120   H125    1.082   .     S
C120   C121    1.398   .     A
C121   H126    1.082   .     S
C121   C122    1.398   .     A
C122   H127    1.083   .     S
C122   C123    1.398   .     A
C123   H128    1.083   .     S
C123   C544    1.399   .     S
C124   H129    1.083   .     S
C124   C963    1.399   1_554 S
C124   C959    1.408   1_554 S
C130   C135    1.402   .     A
C130   N952    1.414   1_554 S
C130   C971    1.408   1_554 S
C131   H136    1.083   .     S
C131   C550    1.408   .     S
C131   C552    1.399   .     S
C132   C133    1.398   .     A
C132   H137    1.082   .     S
C132   C971    1.399   1_554 S
C133   H138    1.082   .     S
C133   C134    1.398   .     A
C134   C135    1.398   .     A
C134   H139    1.082   .     S
C135   H140    1.081   .     S
O141   C145    1.299   .     A
O141   Cu153   1.945   .     S
O142   Cu154   1.945   .     S
O142   C146    1.299   .     A
O143   Cu154   1.945   .     S
O143   C145    1.300   .     A
O144   C146    1.300   .     A
O144   Cu153   1.945   .     S
C145   C177    1.428   .     S
C146   C178    1.428   .     S
O147   C151    1.304   .     A
O147   Cu153   1.957   .     S
O148   C152    1.304   .     A
O148   Cu154   1.957   .     S
O149   Cu154   1.944   .     S
O149   C151    1.298   .     A
O150   C152    1.298   .     A
O150   Cu153   1.944   .     S
C151   C158    1.441   .     S
C152   C157    1.441   .     S
Cu153  N182    2.046   .     S
Cu153  Cu154   2.723   .     S
Cu154  N181    2.046   .     S
C155   C165    1.415   .     A
C155   C183    1.491   .     S
C155   C157    1.410   .     A
C156   C158    1.410   .     A
C156   C166    1.415   .     A
C156   C186    1.491   .     S
C157   C159    1.390   .     A
C158   C160    1.390   .     A
C159   H171    1.086   .     S
C159   C161    1.385   .     A
C160   C162    1.385   .     A
C160   H172    1.086   .     S
C161   C167    1.396   .     A
C161   C163    1.410   .     A
C162   C168    1.396   .     A
C162   C164    1.410   .     A
C163   C165    1.422   .     A
C163   C234    1.408   .     S
C164   C166    1.422   .     A
C164   C233    1.408   1_455 S
C165   C170    1.409   .     A
C166   C169    1.409   .     A
C167   H173    1.084   .     S
C167   C239    1.388   .     S
C168   H174    1.084   .     S
C168   C240    1.388   1_455 S
C169   H175    1.079   .     S
C169   C237    1.388   1_455 S
C170   H176    1.079   .     S
C170   C238    1.388   .     S
C178   C317    1.333   .     S
C178   H320    1.087   .     S
H179   C317    1.087   .     S
N181   N1022   1.298   1_554 S
N181   C1029   1.414   1_554 S
N182   N601    1.298   .     S
N182   C620    1.414   .     S
C183   O185    1.221   .     D
C183   H184    1.085   .     S
C186   O188    1.221   .     D
C186   H187    1.085   .     S
C189   C190    1.402   .     A
C189   N601    1.414   .     S
C189   C614    1.408   .     S
C190   H195    1.082   .     S
C190   C191    1.398   .     A
C191   H196    1.082   .     S
C191   C192    1.398   .     A
C192   H197    1.083   .     S
C192   C193    1.398   .     A
C193   H198    1.083   .     S
C193   C614    1.399   .     S
C194   H199    1.083   .     S
C194   C1033   1.399   1_554 S
C194   C1029   1.408   1_554 S
C200   C205    1.402   .     A
C200   N1022   1.414   1_554 S
C200   C1041   1.408   1_554 S
C201   H206    1.083   .     S
C201   C620    1.408   .     S
C201   C622    1.399   .     S
C202   C203    1.398   .     A
C202   H207    1.082   .     S
C202   C1041   1.399   1_554 S
C203   H208    1.082   .     S
C203   C204    1.398   .     A
C204   C205    1.398   .     A
C204   H209    1.082   .     S
C205   H210    1.081   .     S
O211   C215    1.299   .     A
O211   Cu223   1.945   .     S
O212   Cu224   1.945   .     S
O212   C216    1.299   .     A
O213   Cu224   1.945   .     S
O213   C215    1.300   .     A
O214   C216    1.300   .     A
O214   Cu223   1.945   .     S
C215   C247    1.428   .     S
C216   C248    1.428   .     S
O217   C221    1.304   .     A
O217   Cu223   1.957   .     S
O218   C222    1.304   .     A
O218   Cu224   1.957   .     S
O219   Cu224   1.944   .     S
O219   C221    1.298   .     A
O220   C222    1.298   .     A
O220   Cu223   1.944   .     S
C221   C228    1.441   .     S
C222   C227    1.441   .     S
Cu223  N252    2.046   .     S
Cu223  Cu224   2.723   .     S
Cu224  N251    2.046   .     S
C225   C235    1.415   .     A
C225   C253    1.491   .     S
C225   C227    1.410   .     A
C226   C228    1.410   .     A
C226   C236    1.415   .     A
C226   C256    1.491   .     S
C227   C229    1.390   .     A
C228   C230    1.390   .     A
C229   H241    1.086   .     S
C229   C231    1.385   .     A
C230   C232    1.385   .     A
C230   H242    1.086   .     S
C231   C237    1.396   .     A
C231   C233    1.410   .     A
C232   C238    1.396   .     A
C232   C234    1.410   .     A
C233   C235    1.422   .     A
C233   C164    1.408   1_655 S
C234   C236    1.422   .     A
C235   C240    1.409   .     A
C236   C239    1.409   .     A
C237   H243    1.084   .     S
C237   C169    1.388   1_655 S
C238   H244    1.084   .     S
C239   H245    1.079   .     S
C240   H246    1.079   .     S
C240   C168    1.388   1_655 S
C248   C387    1.333   .     S
C248   H390    1.087   .     S
H249   C387    1.087   .     S
N251   N1092   1.298   1_554 S
N251   C1099   1.414   1_554 S
N252   N671    1.298   .     S
N252   C690    1.414   .     S
C253   O255    1.221   .     D
C253   H254    1.085   .     S
C256   O258    1.221   .     D
C256   H257    1.085   .     S
C259   C260    1.402   .     A
C259   N671    1.414   .     S
C259   C684    1.408   .     S
C260   H265    1.082   .     S
C260   C261    1.398   .     A
C261   H266    1.082   .     S
C261   C262    1.398   .     A
C262   H267    1.083   .     S
C262   C263    1.398   .     A
C263   H268    1.083   .     S
C263   C684    1.399   .     S
C264   H269    1.083   .     S
C264   C1103   1.399   1_554 S
C264   C1099   1.408   1_554 S
C270   C275    1.402   .     A
C270   N1092   1.414   1_554 S
C270   C1111   1.408   1_554 S
C271   H276    1.083   .     S
C271   C690    1.408   .     S
C271   C692    1.399   .     S
C272   C273    1.398   .     A
C272   H277    1.082   .     S
C272   C1111   1.399   1_554 S
C273   H278    1.082   .     S
C273   C274    1.398   .     A
C274   C275    1.398   .     A
C274   H279    1.082   .     S
C275   H280    1.081   .     S
O281   C285    1.299   .     A
O281   Cu293   1.945   .     S
O282   Cu294   1.945   .     S
O282   C286    1.299   .     A
O283   Cu294   1.945   .     S
O283   C285    1.300   .     A
O284   C286    1.300   .     A
O284   Cu293   1.945   .     S
C285   C317    1.428   .     S
C286   C318    1.428   .     S
O287   C291    1.304   .     A
O287   Cu293   1.957   .     S
O288   C292    1.304   .     A
O288   Cu294   1.957   .     S
O289   Cu294   1.944   .     S
O289   C291    1.298   .     A
O290   C292    1.298   .     A
O290   Cu293   1.944   .     S
C291   C298    1.441   .     S
C292   C297    1.441   .     S
Cu293  N322    2.046   .     S
Cu293  Cu294   2.723   .     S
Cu294  N321    2.046   .     S
C295   C305    1.415   .     A
C295   C323    1.491   .     S
C295   C297    1.410   .     A
C296   C298    1.410   .     A
C296   C306    1.415   .     A
C296   C326    1.491   .     S
C297   C299    1.390   .     A
C298   C300    1.390   .     A
C299   H311    1.086   .     S
C299   C301    1.385   .     A
C300   C302    1.385   .     A
C300   H312    1.086   .     S
C301   C307    1.396   .     A
C301   C303    1.410   .     A
C302   C308    1.396   .     A
C302   C304    1.410   .     A
C303   C305    1.422   .     A
C303   C374    1.408   .     S
C304   C306    1.422   .     A
C304   C373    1.408   1_455 S
C305   C310    1.409   .     A
C306   C309    1.409   .     A
C307   H313    1.084   .     S
C307   C379    1.388   .     S
C308   H314    1.084   .     S
C308   C380    1.388   1_455 S
C309   H315    1.079   .     S
C309   C377    1.388   1_455 S
C310   H316    1.079   .     S
C310   C378    1.388   .     S
C318   C37     1.333   1_565 S
C318   H40     1.087   1_565 S
H319   C37     1.087   1_565 S
N321   N1162   1.298   1_554 S
N321   C1169   1.414   1_554 S
N322   N741    1.298   .     S
N322   C760    1.414   .     S
C323   O325    1.221   .     D
C323   H324    1.085   .     S
C326   O328    1.221   .     D
C326   H327    1.085   .     S
C329   C330    1.402   .     A
C329   N741    1.414   .     S
C329   C754    1.408   .     S
C330   H335    1.082   .     S
C330   C331    1.398   .     A
C331   H336    1.082   .     S
C331   C332    1.398   .     A
C332   H337    1.083   .     S
C332   C333    1.398   .     A
C333   H338    1.083   .     S
C333   C754    1.399   .     S
C334   H339    1.083   .     S
C334   C1173   1.399   1_554 S
C334   C1169   1.408   1_554 S
C340   C345    1.402   .     A
C340   N1162   1.414   1_554 S
C340   C1181   1.408   1_554 S
C341   H346    1.083   .     S
C341   C760    1.408   .     S
C341   C762    1.399   .     S
C342   C343    1.398   .     A
C342   H347    1.082   .     S
C342   C1181   1.399   1_554 S
C343   H348    1.082   .     S
C343   C344    1.398   .     A
C344   C345    1.398   .     A
C344   H349    1.082   .     S
C345   H350    1.081   .     S
O351   C355    1.299   .     A
O351   Cu363   1.945   .     S
O352   Cu364   1.945   .     S
O352   C356    1.299   .     A
O353   Cu364   1.945   .     S
O353   C355    1.300   .     A
O354   C356    1.300   .     A
O354   Cu363   1.945   .     S
C355   C387    1.428   .     S
C356   C388    1.428   .     S
O357   C361    1.304   .     A
O357   Cu363   1.957   .     S
O358   C362    1.304   .     A
O358   Cu364   1.957   .     S
O359   Cu364   1.944   .     S
O359   C361    1.298   .     A
O360   C362    1.298   .     A
O360   Cu363   1.944   .     S
C361   C368    1.441   .     S
C362   C367    1.441   .     S
Cu363  N392    2.046   .     S
Cu363  Cu364   2.723   .     S
Cu364  N391    2.046   .     S
C365   C375    1.415   .     A
C365   C393    1.491   .     S
C365   C367    1.410   .     A
C366   C368    1.410   .     A
C366   C376    1.415   .     A
C366   C396    1.491   .     S
C367   C369    1.390   .     A
C368   C370    1.390   .     A
C369   H381    1.086   .     S
C369   C371    1.385   .     A
C370   C372    1.385   .     A
C370   H382    1.086   .     S
C371   C377    1.396   .     A
C371   C373    1.410   .     A
C372   C378    1.396   .     A
C372   C374    1.410   .     A
C373   C375    1.422   .     A
C373   C304    1.408   1_655 S
C374   C376    1.422   .     A
C375   C380    1.409   .     A
C376   C379    1.409   .     A
C377   H383    1.084   .     S
C377   C309    1.388   1_655 S
C378   H384    1.084   .     S
C379   H385    1.079   .     S
C380   H386    1.079   .     S
C380   C308    1.388   1_655 S
C388   C107    1.333   1_565 S
C388   H110    1.087   1_565 S
H389   C107    1.087   1_565 S
N391   N1232   1.298   1_554 S
N391   C1239   1.414   1_554 S
N392   N811    1.298   .     S
N392   C830    1.414   .     S
C393   O395    1.221   .     D
C393   H394    1.085   .     S
C396   O398    1.221   .     D
C396   H397    1.085   .     S
C399   C400    1.402   .     A
C399   N811    1.414   .     S
C399   C824    1.408   .     S
C400   H405    1.082   .     S
C400   C401    1.398   .     A
C401   H406    1.082   .     S
C401   C402    1.398   .     A
C402   H407    1.083   .     S
C402   C403    1.398   .     A
C403   H408    1.083   .     S
C403   C824    1.399   .     S
C404   H409    1.083   .     S
C404   C1243   1.399   1_554 S
C404   C1239   1.408   1_554 S
C410   C415    1.402   .     A
C410   N1232   1.414   1_554 S
C410   C1251   1.408   1_554 S
C411   H416    1.083   .     S
C411   C830    1.408   .     S
C411   C832    1.399   .     S
C412   C413    1.398   .     A
C412   H417    1.082   .     S
C412   C1251   1.399   1_554 S
C413   H418    1.082   .     S
C413   C414    1.398   .     A
C414   C415    1.398   .     A
C414   H419    1.082   .     S
C415   H420    1.081   .     S
O421   C425    1.299   .     A
O421   Cu433   1.945   .     S
O422   Cu434   1.945   .     S
O422   C426    1.299   .     A
O423   Cu434   1.945   .     S
O423   C425    1.300   .     A
O424   C426    1.300   .     A
O424   Cu433   1.945   .     S
C425   C457    1.428   .     S
C426   C458    1.428   .     S
O427   C431    1.304   .     A
O427   Cu433   1.957   .     S
O428   C432    1.304   .     A
O428   Cu434   1.957   .     S
O429   Cu434   1.944   .     S
O429   C431    1.298   .     A
O430   C432    1.298   .     A
O430   Cu433   1.944   .     S
C431   C438    1.441   .     S
C432   C437    1.441   .     S
Cu433  N462    2.046   .     S
Cu433  Cu434   2.723   .     S
Cu434  N461    2.046   .     S
C435   C445    1.415   .     A
C435   C463    1.491   .     S
C435   C437    1.410   .     A
C436   C438    1.410   .     A
C436   C446    1.415   .     A
C436   C466    1.491   .     S
C437   C439    1.390   .     A
C438   C440    1.390   .     A
C439   H451    1.086   .     S
C439   C441    1.385   .     A
C440   C442    1.385   .     A
C440   H452    1.086   .     S
C441   C447    1.396   .     A
C441   C443    1.410   .     A
C442   C448    1.396   .     A
C442   C444    1.410   .     A
C443   C445    1.422   .     A
C443   C514    1.408   .     S
C444   C446    1.422   .     A
C444   C513    1.408   1_455 S
C445   C450    1.409   .     A
C446   C449    1.409   .     A
C447   H453    1.084   .     S
C447   C519    1.388   .     S
C448   H454    1.084   .     S
C448   C520    1.388   1_455 S
C449   H455    1.079   .     S
C449   C517    1.388   1_455 S
C450   H456    1.079   .     S
C450   C518    1.388   .     S
C457   C738    1.333   1_545 S
C457   H739    1.087   1_545 S
C458   C597    1.333   .     S
C458   H600    1.087   .     S
H459   C597    1.087   .     S
H460   C738    1.087   1_545 S
N462   N881    1.298   .     S
N462   C900    1.414   .     S
C463   O465    1.221   .     D
C463   H464    1.085   .     S
C466   O468    1.221   .     D
C466   H467    1.085   .     S
C469   C470    1.402   .     A
C469   N881    1.414   .     S
C469   C894    1.408   .     S
C470   H475    1.082   .     S
C470   C471    1.398   .     A
C471   H476    1.082   .     S
C471   C472    1.398   .     A
C472   H477    1.083   .     S
C472   C473    1.398   .     A
C473   H478    1.083   .     S
C473   C894    1.399   .     S
C474   H479    1.083   .     S
C480   C485    1.402   .     A
C481   H486    1.083   .     S
C481   C900    1.408   .     S
C481   C902    1.399   .     S
C482   C483    1.398   .     A
C482   H487    1.082   .     S
C483   H488    1.082   .     S
C483   C484    1.398   .     A
C484   C485    1.398   .     A
C484   H489    1.082   .     S
C485   H490    1.081   .     S
O491   C495    1.299   .     A
O491   Cu503   1.945   .     S
O492   Cu504   1.945   .     S
O492   C496    1.299   .     A
O493   Cu504   1.945   .     S
O493   C495    1.300   .     A
O494   C496    1.300   .     A
O494   Cu503   1.945   .     S
C495   C527    1.428   .     S
C496   C528    1.428   .     S
O497   C501    1.304   .     A
O497   Cu503   1.957   .     S
O498   C502    1.304   .     A
O498   Cu504   1.957   .     S
O499   Cu504   1.944   .     S
O499   C501    1.298   .     A
O500   C502    1.298   .     A
O500   Cu503   1.944   .     S
C501   C508    1.441   .     S
C502   C507    1.441   .     S
Cu503  N532    2.046   .     S
Cu503  Cu504   2.723   .     S
Cu504  N531    2.046   .     S
C505   C515    1.415   .     A
C505   C533    1.491   .     S
C505   C507    1.410   .     A
C506   C508    1.410   .     A
C506   C516    1.415   .     A
C506   C536    1.491   .     S
C507   C509    1.390   .     A
C508   C510    1.390   .     A
C509   H521    1.086   .     S
C509   C511    1.385   .     A
C510   C512    1.385   .     A
C510   H522    1.086   .     S
C511   C517    1.396   .     A
C511   C513    1.410   .     A
C512   C518    1.396   .     A
C512   C514    1.410   .     A
C513   C515    1.422   .     A
C513   C444    1.408   1_655 S
C514   C516    1.422   .     A
C515   C520    1.409   .     A
C516   C519    1.409   .     A
C517   H523    1.084   .     S
C517   C449    1.388   1_655 S
C518   H524    1.084   .     S
C519   H525    1.079   .     S
C520   H526    1.079   .     S
C520   C448    1.388   1_655 S
C527   C808    1.333   1_545 S
C527   H809    1.087   1_545 S
C528   C667    1.333   .     S
C528   H670    1.087   .     S
H529   C667    1.087   .     S
H530   C808    1.087   1_545 S
N532   N951    1.298   .     S
N532   C970    1.414   .     S
C533   O535    1.221   .     D
C533   H534    1.085   .     S
C536   O538    1.221   .     D
C536   H537    1.085   .     S
C539   C540    1.402   .     A
C539   N951    1.414   .     S
C539   C964    1.408   .     S
C540   H545    1.082   .     S
C540   C541    1.398   .     A
C541   H546    1.082   .     S
C541   C542    1.398   .     A
C542   H547    1.083   .     S
C542   C543    1.398   .     A
C543   H548    1.083   .     S
C543   C964    1.399   .     S
C544   H549    1.083   .     S
C550   C555    1.402   .     A
C551   H556    1.083   .     S
C551   C970    1.408   .     S
C551   C972    1.399   .     S
C552   C553    1.398   .     A
C552   H557    1.082   .     S
C553   H558    1.082   .     S
C553   C554    1.398   .     A
C554   C555    1.398   .     A
C554   H559    1.082   .     S
C555   H560    1.081   .     S
O561   C565    1.299   .     A
O561   Cu573   1.945   .     S
O562   Cu574   1.945   .     S
O562   C566    1.299   .     A
O563   Cu574   1.945   .     S
O563   C565    1.300   .     A
O564   C566    1.300   .     A
O564   Cu573   1.945   .     S
C565   C597    1.428   .     S
C566   C598    1.428   .     S
O567   C571    1.304   .     A
O567   Cu573   1.957   .     S
O568   C572    1.304   .     A
O568   Cu574   1.957   .     S
O569   Cu574   1.944   .     S
O569   C571    1.298   .     A
O570   C572    1.298   .     A
O570   Cu573   1.944   .     S
C571   C578    1.441   .     S
C572   C577    1.441   .     S
Cu573  N602    2.046   .     S
Cu573  Cu574   2.723   .     S
Cu574  N601    2.046   .     S
C575   C585    1.415   .     A
C575   C603    1.491   .     S
C575   C577    1.410   .     A
C576   C578    1.410   .     A
C576   C586    1.415   .     A
C576   C606    1.491   .     S
C577   C579    1.390   .     A
C578   C580    1.390   .     A
C579   H591    1.086   .     S
C579   C581    1.385   .     A
C580   C582    1.385   .     A
C580   H592    1.086   .     S
C581   C587    1.396   .     A
C581   C583    1.410   .     A
C582   C588    1.396   .     A
C582   C584    1.410   .     A
C583   C585    1.422   .     A
C583   C654    1.408   .     S
C584   C586    1.422   .     A
C584   C653    1.408   1_455 S
C585   C590    1.409   .     A
C586   C589    1.409   .     A
C587   H593    1.084   .     S
C587   C659    1.388   .     S
C588   H594    1.084   .     S
C588   C660    1.388   1_455 S
C589   H595    1.079   .     S
C589   C657    1.388   1_455 S
C590   H596    1.079   .     S
C590   C658    1.388   .     S
C598   C737    1.333   .     S
C598   H740    1.087   .     S
H599   C737    1.087   .     S
N602   N1021   1.298   .     S
N602   C1040   1.414   .     S
C603   O605    1.221   .     D
C603   H604    1.085   .     S
C606   O608    1.221   .     D
C606   H607    1.085   .     S
C609   C610    1.402   .     A
C609   N1021   1.414   .     S
C609   C1034   1.408   .     S
C610   H615    1.082   .     S
C610   C611    1.398   .     A
C611   H616    1.082   .     S
C611   C612    1.398   .     A
C612   H617    1.083   .     S
C612   C613    1.398   .     A
C613   H618    1.083   .     S
C613   C1034   1.399   .     S
C614   H619    1.083   .     S
C620   C625    1.402   .     A
C621   H626    1.083   .     S
C621   C1040   1.408   .     S
C621   C1042   1.399   .     S
C622   C623    1.398   .     A
C622   H627    1.082   .     S
C623   H628    1.082   .     S
C623   C624    1.398   .     A
C624   C625    1.398   .     A
C624   H629    1.082   .     S
C625   H630    1.081   .     S
O631   C635    1.299   .     A
O631   Cu643   1.945   .     S
O632   Cu644   1.945   .     S
O632   C636    1.299   .     A
O633   Cu644   1.945   .     S
O633   C635    1.300   .     A
O634   C636    1.300   .     A
O634   Cu643   1.945   .     S
C635   C667    1.428   .     S
C636   C668    1.428   .     S
O637   C641    1.304   .     A
O637   Cu643   1.957   .     S
O638   C642    1.304   .     A
O638   Cu644   1.957   .     S
O639   Cu644   1.944   .     S
O639   C641    1.298   .     A
O640   C642    1.298   .     A
O640   Cu643   1.944   .     S
C641   C648    1.441   .     S
C642   C647    1.441   .     S
Cu643  N672    2.046   .     S
Cu643  Cu644   2.723   .     S
Cu644  N671    2.046   .     S
C645   C655    1.415   .     A
C645   C673    1.491   .     S
C645   C647    1.410   .     A
C646   C648    1.410   .     A
C646   C656    1.415   .     A
C646   C676    1.491   .     S
C647   C649    1.390   .     A
C648   C650    1.390   .     A
C649   H661    1.086   .     S
C649   C651    1.385   .     A
C650   C652    1.385   .     A
C650   H662    1.086   .     S
C651   C657    1.396   .     A
C651   C653    1.410   .     A
C652   C658    1.396   .     A
C652   C654    1.410   .     A
C653   C655    1.422   .     A
C653   C584    1.408   1_655 S
C654   C656    1.422   .     A
C655   C660    1.409   .     A
C656   C659    1.409   .     A
C657   H663    1.084   .     S
C657   C589    1.388   1_655 S
C658   H664    1.084   .     S
C659   H665    1.079   .     S
C660   H666    1.079   .     S
C660   C588    1.388   1_655 S
C668   C807    1.333   .     S
C668   H810    1.087   .     S
H669   C807    1.087   .     S
N672   N1091   1.298   .     S
N672   C1110   1.414   .     S
C673   O675    1.221   .     D
C673   H674    1.085   .     S
C676   O678    1.221   .     D
C676   H677    1.085   .     S
C679   C680    1.402   .     A
C679   N1091   1.414   .     S
C679   C1104   1.408   .     S
C680   H685    1.082   .     S
C680   C681    1.398   .     A
C681   H686    1.082   .     S
C681   C682    1.398   .     A
C682   H687    1.083   .     S
C682   C683    1.398   .     A
C683   H688    1.083   .     S
C683   C1104   1.399   .     S
C684   H689    1.083   .     S
C690   C695    1.402   .     A
C691   H696    1.083   .     S
C691   C1110   1.408   .     S
C691   C1112   1.399   .     S
C692   C693    1.398   .     A
C692   H697    1.082   .     S
C693   H698    1.082   .     S
C693   C694    1.398   .     A
C694   C695    1.398   .     A
C694   H699    1.082   .     S
C695   H700    1.081   .     S
O701   C705    1.299   .     A
O701   Cu713   1.945   .     S
O702   Cu714   1.945   .     S
O702   C706    1.299   .     A
O703   Cu714   1.945   .     S
O703   C705    1.300   .     A
O704   C706    1.300   .     A
O704   Cu713   1.945   .     S
C705   C737    1.428   .     S
C706   C738    1.428   .     S
O707   C711    1.304   .     A
O707   Cu713   1.957   .     S
O708   C712    1.304   .     A
O708   Cu714   1.957   .     S
O709   Cu714   1.944   .     S
O709   C711    1.298   .     A
O710   C712    1.298   .     A
O710   Cu713   1.944   .     S
C711   C718    1.441   .     S
C712   C717    1.441   .     S
Cu713  N742    2.046   .     S
Cu713  Cu714   2.723   .     S
Cu714  N741    2.046   .     S
C715   C725    1.415   .     A
C715   C743    1.491   .     S
C715   C717    1.410   .     A
C716   C718    1.410   .     A
C716   C726    1.415   .     A
C716   C746    1.491   .     S
C717   C719    1.390   .     A
C718   C720    1.390   .     A
C719   H731    1.086   .     S
C719   C721    1.385   .     A
C720   C722    1.385   .     A
C720   H732    1.086   .     S
C721   C727    1.396   .     A
C721   C723    1.410   .     A
C722   C728    1.396   .     A
C722   C724    1.410   .     A
C723   C725    1.422   .     A
C723   C794    1.408   .     S
C724   C726    1.422   .     A
C724   C793    1.408   1_455 S
C725   C730    1.409   .     A
C726   C729    1.409   .     A
C727   H733    1.084   .     S
C727   C799    1.388   .     S
C728   H734    1.084   .     S
C728   C800    1.388   1_455 S
C729   H735    1.079   .     S
C729   C797    1.388   1_455 S
C730   H736    1.079   .     S
C730   C798    1.388   .     S
C738   C457    1.333   1_565 S
C738   H460    1.087   1_565 S
H739   C457    1.087   1_565 S
N742   N1161   1.298   .     S
N742   C1180   1.414   .     S
C743   O745    1.221   .     D
C743   H744    1.085   .     S
C746   O748    1.221   .     D
C746   H747    1.085   .     S
C749   C750    1.402   .     A
C749   N1161   1.414   .     S
C749   C1174   1.408   .     S
C750   H755    1.082   .     S
C750   C751    1.398   .     A
C751   H756    1.082   .     S
C751   C752    1.398   .     A
C752   H757    1.083   .     S
C752   C753    1.398   .     A
C753   H758    1.083   .     S
C753   C1174   1.399   .     S
C754   H759    1.083   .     S
C760   C765    1.402   .     A
C761   H766    1.083   .     S
C761   C1180   1.408   .     S
C761   C1182   1.399   .     S
C762   C763    1.398   .     A
C762   H767    1.082   .     S
C763   H768    1.082   .     S
C763   C764    1.398   .     A
C764   C765    1.398   .     A
C764   H769    1.082   .     S
C765   H770    1.081   .     S
O771   C775    1.299   .     A
O771   Cu783   1.945   .     S
O772   Cu784   1.945   .     S
O772   C776    1.299   .     A
O773   Cu784   1.945   .     S
O773   C775    1.300   .     A
O774   C776    1.300   .     A
O774   Cu783   1.945   .     S
C775   C807    1.428   .     S
C776   C808    1.428   .     S
O777   C781    1.304   .     A
O777   Cu783   1.957   .     S
O778   C782    1.304   .     A
O778   Cu784   1.957   .     S
O779   Cu784   1.944   .     S
O779   C781    1.298   .     A
O780   C782    1.298   .     A
O780   Cu783   1.944   .     S
C781   C788    1.441   .     S
C782   C787    1.441   .     S
Cu783  N812    2.046   .     S
Cu783  Cu784   2.723   .     S
Cu784  N811    2.046   .     S
C785   C795    1.415   .     A
C785   C813    1.491   .     S
C785   C787    1.410   .     A
C786   C788    1.410   .     A
C786   C796    1.415   .     A
C786   C816    1.491   .     S
C787   C789    1.390   .     A
C788   C790    1.390   .     A
C789   H801    1.086   .     S
C789   C791    1.385   .     A
C790   C792    1.385   .     A
C790   H802    1.086   .     S
C791   C797    1.396   .     A
C791   C793    1.410   .     A
C792   C798    1.396   .     A
C792   C794    1.410   .     A
C793   C795    1.422   .     A
C793   C724    1.408   1_655 S
C794   C796    1.422   .     A
C795   C800    1.409   .     A
C796   C799    1.409   .     A
C797   H803    1.084   .     S
C797   C729    1.388   1_655 S
C798   H804    1.084   .     S
C799   H805    1.079   .     S
C800   H806    1.079   .     S
C800   C728    1.388   1_655 S
C808   C527    1.333   1_565 S
C808   H530    1.087   1_565 S
H809   C527    1.087   1_565 S
N812   N1231   1.298   .     S
N812   C1250   1.414   .     S
C813   O815    1.221   .     D
C813   H814    1.085   .     S
C816   O818    1.221   .     D
C816   H817    1.085   .     S
C819   C820    1.402   .     A
C819   N1231   1.414   .     S
C819   C1244   1.408   .     S
C820   H825    1.082   .     S
C820   C821    1.398   .     A
C821   H826    1.082   .     S
C821   C822    1.398   .     A
C822   H827    1.083   .     S
C822   C823    1.398   .     A
C823   H828    1.083   .     S
C823   C1244   1.399   .     S
C824   H829    1.083   .     S
C830   C835    1.402   .     A
C831   H836    1.083   .     S
C831   C1250   1.408   .     S
C831   C1252   1.399   .     S
C832   C833    1.398   .     A
C832   H837    1.082   .     S
C833   H838    1.082   .     S
C833   C834    1.398   .     A
C834   C835    1.398   .     A
C834   H839    1.082   .     S
C835   H840    1.081   .     S
O841   C845    1.299   .     A
O841   Cu853   1.945   .     S
O842   Cu854   1.945   .     S
O842   C846    1.299   .     A
O843   Cu854   1.945   .     S
O843   C845    1.300   .     A
O844   C846    1.300   .     A
O844   Cu853   1.945   .     S
C845   C877    1.428   .     S
C846   C878    1.428   .     S
O847   C851    1.304   .     A
O847   Cu853   1.957   .     S
O848   C852    1.304   .     A
O848   Cu854   1.957   .     S
O849   Cu854   1.944   .     S
O849   C851    1.298   .     A
O850   C852    1.298   .     A
O850   Cu853   1.944   .     S
C851   C858    1.441   .     S
C852   C857    1.441   .     S
Cu853  N882    2.046   .     S
Cu853  Cu854   2.723   .     S
Cu854  N881    2.046   .     S
C855   C865    1.415   .     A
C855   C883    1.491   .     S
C855   C857    1.410   .     A
C856   C858    1.410   .     A
C856   C866    1.415   .     A
C856   C886    1.491   .     S
C857   C859    1.390   .     A
C858   C860    1.390   .     A
C859   H871    1.086   .     S
C859   C861    1.385   .     A
C860   C862    1.385   .     A
C860   H872    1.086   .     S
C861   C867    1.396   .     A
C861   C863    1.410   .     A
C862   C868    1.396   .     A
C862   C864    1.410   .     A
C863   C865    1.422   .     A
C863   C934    1.408   .     S
C864   C866    1.422   .     A
C864   C933    1.408   1_455 S
C865   C870    1.409   .     A
C866   C869    1.409   .     A
C867   H873    1.084   .     S
C867   C939    1.388   .     S
C868   H874    1.084   .     S
C868   C940    1.388   1_455 S
C869   H875    1.079   .     S
C869   C937    1.388   1_455 S
C870   H876    1.079   .     S
C870   C938    1.388   .     S
C877   C1158   1.333   1_545 S
C877   H1159   1.087   1_545 S
C878   C1017   1.333   .     S
C878   H1020   1.087   .     S
H879   C1017   1.087   .     S
H880   C1158   1.087   1_545 S
N882   N41     1.298   1_556 S
N882   C60     1.414   1_556 S
C883   O885    1.221   .     D
C883   H884    1.085   .     S
C886   O888    1.221   .     D
C886   H887    1.085   .     S
C889   C890    1.402   .     A
C889   N41     1.414   1_556 S
C889   C54     1.408   1_556 S
C890   H895    1.082   .     S
C890   C891    1.398   .     A
C891   H896    1.082   .     S
C891   C892    1.398   .     A
C892   H897    1.083   .     S
C892   C893    1.398   .     A
C893   H898    1.083   .     S
C893   C54     1.399   1_556 S
C894   H899    1.083   .     S
C900   C905    1.402   .     A
C901   H906    1.083   .     S
C901   C60     1.408   1_556 S
C901   C62     1.399   1_556 S
C902   C903    1.398   .     A
C902   H907    1.082   .     S
C903   H908    1.082   .     S
C903   C904    1.398   .     A
C904   C905    1.398   .     A
C904   H909    1.082   .     S
C905   H910    1.081   .     S
O911   C915    1.299   .     A
O911   Cu923   1.945   .     S
O912   Cu924   1.945   .     S
O912   C916    1.299   .     A
O913   Cu924   1.945   .     S
O913   C915    1.300   .     A
O914   C916    1.300   .     A
O914   Cu923   1.945   .     S
C915   C947    1.428   .     S
C916   C948    1.428   .     S
O917   C921    1.304   .     A
O917   Cu923   1.957   .     S
O918   C922    1.304   .     A
O918   Cu924   1.957   .     S
O919   Cu924   1.944   .     S
O919   C921    1.298   .     A
O920   C922    1.298   .     A
O920   Cu923   1.944   .     S
C921   C928    1.441   .     S
C922   C927    1.441   .     S
Cu923  N952    2.046   .     S
Cu923  Cu924   2.723   .     S
Cu924  N951    2.046   .     S
C925   C935    1.415   .     A
C925   C953    1.491   .     S
C925   C927    1.410   .     A
C926   C928    1.410   .     A
C926   C936    1.415   .     A
C926   C956    1.491   .     S
C927   C929    1.390   .     A
C928   C930    1.390   .     A
C929   H941    1.086   .     S
C929   C931    1.385   .     A
C930   C932    1.385   .     A
C930   H942    1.086   .     S
C931   C937    1.396   .     A
C931   C933    1.410   .     A
C932   C938    1.396   .     A
C932   C934    1.410   .     A
C933   C935    1.422   .     A
C933   C864    1.408   1_655 S
C934   C936    1.422   .     A
C935   C940    1.409   .     A
C936   C939    1.409   .     A
C937   H943    1.084   .     S
C937   C869    1.388   1_655 S
C938   H944    1.084   .     S
C939   H945    1.079   .     S
C940   H946    1.079   .     S
C940   C868    1.388   1_655 S
C947   C1228   1.333   1_545 S
C947   H1229   1.087   1_545 S
C948   C1087   1.333   .     S
C948   H1090   1.087   .     S
H949   C1087   1.087   .     S
H950   C1228   1.087   1_545 S
N952   N111    1.298   1_556 S
N952   C130    1.414   1_556 S
C953   O955    1.221   .     D
C953   H954    1.085   .     S
C956   O958    1.221   .     D
C956   H957    1.085   .     S
C959   C960    1.402   .     A
C959   N111    1.414   1_556 S
C959   C124    1.408   1_556 S
C960   H965    1.082   .     S
C960   C961    1.398   .     A
C961   H966    1.082   .     S
C961   C962    1.398   .     A
C962   H967    1.083   .     S
C962   C963    1.398   .     A
C963   H968    1.083   .     S
C963   C124    1.399   1_556 S
C964   H969    1.083   .     S
C970   C975    1.402   .     A
C971   H976    1.083   .     S
C971   C130    1.408   1_556 S
C971   C132    1.399   1_556 S
C972   C973    1.398   .     A
C972   H977    1.082   .     S
C973   H978    1.082   .     S
C973   C974    1.398   .     A
C974   C975    1.398   .     A
C974   H979    1.082   .     S
C975   H980    1.081   .     S
O981   C985    1.299   .     A
O981   Cu993   1.945   .     S
O982   Cu994   1.945   .     S
O982   C986    1.299   .     A
O983   Cu994   1.945   .     S
O983   C985    1.300   .     A
O984   C986    1.300   .     A
O984   Cu993   1.945   .     S
C985   C1017   1.428   .     S
C986   C1018   1.428   .     S
O987   C991    1.304   .     A
O987   Cu993   1.957   .     S
O988   C992    1.304   .     A
O988   Cu994   1.957   .     S
O989   Cu994   1.944   .     S
O989   C991    1.298   .     A
O990   C992    1.298   .     A
O990   Cu993   1.944   .     S
C991   C998    1.441   .     S
C992   C997    1.441   .     S
Cu993  N1022   2.046   .     S
Cu993  Cu994   2.723   .     S
Cu994  N1021   2.046   .     S
C995   C1005   1.415   .     A
C995   C1023   1.491   .     S
C995   C997    1.410   .     A
C996   C998    1.410   .     A
C996   C1006   1.415   .     A
C996   C1026   1.491   .     S
C997   C999    1.390   .     A
C998   C1000   1.390   .     A
C999   H1011   1.086   .     S
C999   C1001   1.385   .     A
C1000  C1002   1.385   .     A
C1000  H1012   1.086   .     S
C1001  C1007   1.396   .     A
C1001  C1003   1.410   .     A
C1002  C1008   1.396   .     A
C1002  C1004   1.410   .     A
C1003  C1005   1.422   .     A
C1003  C1074   1.408   .     S
C1004  C1006   1.422   .     A
C1004  C1073   1.408   1_455 S
C1005  C1010   1.409   .     A
C1006  C1009   1.409   .     A
C1007  H1013   1.084   .     S
C1007  C1079   1.388   .     S
C1008  H1014   1.084   .     S
C1008  C1080   1.388   1_455 S
C1009  H1015   1.079   .     S
C1009  C1077   1.388   1_455 S
C1010  H1016   1.079   .     S
C1010  C1078   1.388   .     S
C1018  C1157   1.333   .     S
C1018  H1160   1.087   .     S
H1019  C1157   1.087   .     S
N1022  N181    1.298   1_556 S
N1022  C200    1.414   1_556 S
C1023  O1025   1.221   .     D
C1023  H1024   1.085   .     S
C1026  O1028   1.221   .     D
C1026  H1027   1.085   .     S
C1029  C1030   1.402   .     A
C1029  N181    1.414   1_556 S
C1029  C194    1.408   1_556 S
C1030  H1035   1.082   .     S
C1030  C1031   1.398   .     A
C1031  H1036   1.082   .     S
C1031  C1032   1.398   .     A
C1032  H1037   1.083   .     S
C1032  C1033   1.398   .     A
C1033  H1038   1.083   .     S
C1033  C194    1.399   1_556 S
C1034  H1039   1.083   .     S
C1040  C1045   1.402   .     A
C1041  H1046   1.083   .     S
C1041  C200    1.408   1_556 S
C1041  C202    1.399   1_556 S
C1042  C1043   1.398   .     A
C1042  H1047   1.082   .     S
C1043  H1048   1.082   .     S
C1043  C1044   1.398   .     A
C1044  C1045   1.398   .     A
C1044  H1049   1.082   .     S
C1045  H1050   1.081   .     S
O1051  C1055   1.299   .     A
O1051  Cu1063  1.945   .     S
O1052  Cu1064  1.945   .     S
O1052  C1056   1.299   .     A
O1053  Cu1064  1.945   .     S
O1053  C1055   1.300   .     A
O1054  C1056   1.300   .     A
O1054  Cu1063  1.945   .     S
C1055  C1087   1.428   .     S
C1056  C1088   1.428   .     S
O1057  C1061   1.304   .     A
O1057  Cu1063  1.957   .     S
O1058  C1062   1.304   .     A
O1058  Cu1064  1.957   .     S
O1059  Cu1064  1.944   .     S
O1059  C1061   1.298   .     A
O1060  C1062   1.298   .     A
O1060  Cu1063  1.944   .     S
C1061  C1068   1.441   .     S
C1062  C1067   1.441   .     S
Cu1063 N1092   2.046   .     S
Cu1063 Cu1064  2.723   .     S
Cu1064 N1091   2.046   .     S
C1065  C1075   1.415   .     A
C1065  C1093   1.491   .     S
C1065  C1067   1.410   .     A
C1066  C1068   1.410   .     A
C1066  C1076   1.415   .     A
C1066  C1096   1.491   .     S
C1067  C1069   1.390   .     A
C1068  C1070   1.390   .     A
C1069  H1081   1.086   .     S
C1069  C1071   1.385   .     A
C1070  C1072   1.385   .     A
C1070  H1082   1.086   .     S
C1071  C1077   1.396   .     A
C1071  C1073   1.410   .     A
C1072  C1078   1.396   .     A
C1072  C1074   1.410   .     A
C1073  C1075   1.422   .     A
C1073  C1004   1.408   1_655 S
C1074  C1076   1.422   .     A
C1075  C1080   1.409   .     A
C1076  C1079   1.409   .     A
C1077  H1083   1.084   .     S
C1077  C1009   1.388   1_655 S
C1078  H1084   1.084   .     S
C1079  H1085   1.079   .     S
C1080  H1086   1.079   .     S
C1080  C1008   1.388   1_655 S
C1088  C1227   1.333   .     S
C1088  H1230   1.087   .     S
H1089  C1227   1.087   .     S
N1092  N251    1.298   1_556 S
N1092  C270    1.414   1_556 S
C1093  O1095   1.221   .     D
C1093  H1094   1.085   .     S
C1096  O1098   1.221   .     D
C1096  H1097   1.085   .     S
C1099  C1100   1.402   .     A
C1099  N251    1.414   1_556 S
C1099  C264    1.408   1_556 S
C1100  H1105   1.082   .     S
C1100  C1101   1.398   .     A
C1101  H1106   1.082   .     S
C1101  C1102   1.398   .     A
C1102  H1107   1.083   .     S
C1102  C1103   1.398   .     A
C1103  H1108   1.083   .     S
C1103  C264    1.399   1_556 S
C1104  H1109   1.083   .     S
C1110  C1115   1.402   .     A
C1111  H1116   1.083   .     S
C1111  C270    1.408   1_556 S
C1111  C272    1.399   1_556 S
C1112  C1113   1.398   .     A
C1112  H1117   1.082   .     S
C1113  H1118   1.082   .     S
C1113  C1114   1.398   .     A
C1114  C1115   1.398   .     A
C1114  H1119   1.082   .     S
C1115  H1120   1.081   .     S
O1121  C1125   1.299   .     A
O1121  Cu1133  1.945   .     S
O1122  Cu1134  1.945   .     S
O1122  C1126   1.299   .     A
O1123  Cu1134  1.945   .     S
O1123  C1125   1.300   .     A
O1124  C1126   1.300   .     A
O1124  Cu1133  1.945   .     S
C1125  C1157   1.428   .     S
C1126  C1158   1.428   .     S
O1127  C1131   1.304   .     A
O1127  Cu1133  1.957   .     S
O1128  C1132   1.304   .     A
O1128  Cu1134  1.957   .     S
O1129  Cu1134  1.944   .     S
O1129  C1131   1.298   .     A
O1130  C1132   1.298   .     A
O1130  Cu1133  1.944   .     S
C1131  C1138   1.441   .     S
C1132  C1137   1.441   .     S
Cu1133 N1162   2.046   .     S
Cu1133 Cu1134  2.723   .     S
Cu1134 N1161   2.046   .     S
C1135  C1145   1.415   .     A
C1135  C1163   1.491   .     S
C1135  C1137   1.410   .     A
C1136  C1138   1.410   .     A
C1136  C1146   1.415   .     A
C1136  C1166   1.491   .     S
C1137  C1139   1.390   .     A
C1138  C1140   1.390   .     A
C1139  H1151   1.086   .     S
C1139  C1141   1.385   .     A
C1140  C1142   1.385   .     A
C1140  H1152   1.086   .     S
C1141  C1147   1.396   .     A
C1141  C1143   1.410   .     A
C1142  C1148   1.396   .     A
C1142  C1144   1.410   .     A
C1143  C1145   1.422   .     A
C1143  C1214   1.408   .     S
C1144  C1146   1.422   .     A
C1144  C1213   1.408   1_455 S
C1145  C1150   1.409   .     A
C1146  C1149   1.409   .     A
C1147  H1153   1.084   .     S
C1147  C1219   1.388   .     S
C1148  H1154   1.084   .     S
C1148  C1220   1.388   1_455 S
C1149  H1155   1.079   .     S
C1149  C1217   1.388   1_455 S
C1150  H1156   1.079   .     S
C1150  C1218   1.388   .     S
C1158  C877    1.333   1_565 S
C1158  H880    1.087   1_565 S
H1159  C877    1.087   1_565 S
N1162  N321    1.298   1_556 S
N1162  C340    1.414   1_556 S
C1163  O1165   1.221   .     D
C1163  H1164   1.085   .     S
C1166  O1168   1.221   .     D
C1166  H1167   1.085   .     S
C1169  C1170   1.402   .     A
C1169  N321    1.414   1_556 S
C1169  C334    1.408   1_556 S
C1170  H1175   1.082   .     S
C1170  C1171   1.398   .     A
C1171  H1176   1.082   .     S
C1171  C1172   1.398   .     A
C1172  H1177   1.083   .     S
C1172  C1173   1.398   .     A
C1173  H1178   1.083   .     S
C1173  C334    1.399   1_556 S
C1174  H1179   1.083   .     S
C1180  C1185   1.402   .     A
C1181  H1186   1.083   .     S
C1181  C340    1.408   1_556 S
C1181  C342    1.399   1_556 S
C1182  C1183   1.398   .     A
C1182  H1187   1.082   .     S
C1183  H1188   1.082   .     S
C1183  C1184   1.398   .     A
C1184  C1185   1.398   .     A
C1184  H1189   1.082   .     S
C1185  H1190   1.081   .     S
O1191  C1195   1.299   .     A
O1191  Cu1203  1.945   .     S
O1192  Cu1204  1.945   .     S
O1192  C1196   1.299   .     A
O1193  Cu1204  1.945   .     S
O1193  C1195   1.300   .     A
O1194  C1196   1.300   .     A
O1194  Cu1203  1.945   .     S
C1195  C1227   1.428   .     S
C1196  C1228   1.428   .     S
O1197  C1201   1.304   .     A
O1197  Cu1203  1.957   .     S
O1198  C1202   1.304   .     A
O1198  Cu1204  1.957   .     S
O1199  Cu1204  1.944   .     S
O1199  C1201   1.298   .     A
O1200  C1202   1.298   .     A
O1200  Cu1203  1.944   .     S
C1201  C1208   1.441   .     S
C1202  C1207   1.441   .     S
Cu1203 N1232   2.046   .     S
Cu1203 Cu1204  2.723   .     S
Cu1204 N1231   2.046   .     S
C1205  C1215   1.415   .     A
C1205  C1233   1.491   .     S
C1205  C1207   1.410   .     A
C1206  C1208   1.410   .     A
C1206  C1216   1.415   .     A
C1206  C1236   1.491   .     S
C1207  C1209   1.390   .     A
C1208  C1210   1.390   .     A
C1209  H1221   1.086   .     S
C1209  C1211   1.385   .     A
C1210  C1212   1.385   .     A
C1210  H1222   1.086   .     S
C1211  C1217   1.396   .     A
C1211  C1213   1.410   .     A
C1212  C1218   1.396   .     A
C1212  C1214   1.410   .     A
C1213  C1215   1.422   .     A
C1213  C1144   1.408   1_655 S
C1214  C1216   1.422   .     A
C1215  C1220   1.409   .     A
C1216  C1219   1.409   .     A
C1217  H1223   1.084   .     S
C1217  C1149   1.388   1_655 S
C1218  H1224   1.084   .     S
C1219  H1225   1.079   .     S
C1220  H1226   1.079   .     S
C1220  C1148   1.388   1_655 S
C1228  C947    1.333   1_565 S
C1228  H950    1.087   1_565 S
H1229  C947    1.087   1_565 S
N1232  N391    1.298   1_556 S
N1232  C410    1.414   1_556 S
C1233  O1235   1.221   .     D
C1233  H1234   1.085   .     S
C1236  O1238   1.221   .     D
C1236  H1237   1.085   .     S
C1239  C1240   1.402   .     A
C1239  N391    1.414   1_556 S
C1239  C404    1.408   1_556 S
C1240  H1245   1.082   .     S
C1240  C1241   1.398   .     A
C1241  H1246   1.082   .     S
C1241  C1242   1.398   .     A
C1242  H1247   1.083   .     S
C1242  C1243   1.398   .     A
C1243  H1248   1.083   .     S
C1243  C404    1.399   1_556 S
C1244  H1249   1.083   .     S
C1250  C1255   1.402   .     A
C1251  H1256   1.083   .     S
C1251  C410    1.408   1_556 S
C1251  C412    1.399   1_556 S
C1252  C1253   1.398   .     A
C1252  H1257   1.082   .     S
C1253  H1258   1.082   .     S
C1253  C1254   1.398   .     A
C1254  C1255   1.398   .     A
C1254  H1259   1.082   .     S
C1255  H1260   1.081   .     S
