data_str_m2_o10_o17_pcu_sym.123
_audit_creation_date              2020-01-03
_audit_creation_method            'Materials Studio'
_symmetry_space_group_name_H-M    'P1'
_symmetry_Int_Tables_number       1
_symmetry_cell_setting            triclinic
loop_
_symmetry_equiv_pos_as_xyz
  x,y,z
_cell_length_a                    29.9313
_cell_length_b                    26.0296
_cell_length_c                    22.3591
_cell_angle_alpha                 102.8426
_cell_angle_beta                  93.9167
_cell_angle_gamma                 92.3638
loop_
_atom_site_label
_atom_site_type_symbol
_atom_site_fract_x
_atom_site_fract_y
_atom_site_fract_z
_atom_site_U_iso_or_equiv
_atom_site_adp_type
_atom_site_occupancy
C1     C     0.24865   0.06661   0.15113   0.00000  Uiso   1.00
C2     C     0.25135   0.26673   0.18221   0.00000  Uiso   1.00
C3     C     0.01665   0.07564   0.10457   0.00000  Uiso   1.00
C4     C     0.48335   0.25769   0.22876   0.00000  Uiso   1.00
C5     C     0.24800   0.01065   0.14237   0.00000  Uiso   1.00
C6     C     0.25200   0.32269   0.19096   0.00000  Uiso   1.00
C7     C     0.16455   0.16641   0.16759   0.00000  Uiso   1.00
C8     C     0.33545   0.16692   0.16574   0.00000  Uiso   1.00
C9     C     0.40963   0.21184   0.19676   0.00000  Uiso   1.00
C10    C     0.09037   0.12149   0.13657   0.00000  Uiso   1.00
C11    C     0.38355   0.16761   0.16386   0.00000  Uiso   1.00
C12    C     0.11645   0.16572   0.16947   0.00000  Uiso   1.00
C13    C     0.40326   0.12349   0.13122   0.00000  Uiso   1.00
C14    C     0.09674   0.20984   0.20211   0.00000  Uiso   1.00
C15    C     0.44983   0.12254   0.13282   0.00000  Uiso   1.00
C16    C     0.05017   0.21079   0.20051   0.00000  Uiso   1.00
C17    C     0.47658   0.16716   0.16588   0.00000  Uiso   1.00
C18    C     0.02342   0.16618   0.16746   0.00000  Uiso   1.00
C19    C     0.45641   0.21268   0.19730   0.00000  Uiso   1.00
C20    C     0.04359   0.12065   0.13603   0.00000  Uiso   1.00
C21    C     0.46985   0.07733   0.10272   0.00000  Uiso   1.00
C22    C     0.03015   0.25600   0.23061   0.00000  Uiso   1.00
Cu23   Cu    0.25501   0.17246   0.22813   0.00000  Uiso   1.00
Cu24   Cu    0.24500   0.16087   0.10521   0.00000  Uiso   1.00
H25    H     0.39305   0.24538   0.22163   0.00000  Uiso   1.00
H26    H     0.10695   0.08796   0.11171   0.00000  Uiso   1.00
H27    H     0.38229   0.08941   0.10633   0.00000  Uiso   1.00
H28    H     0.11771   0.24392   0.22700   0.00000  Uiso   1.00
H29    H     0.44897   0.04307   0.07824   0.00000  Uiso   1.00
H30    H     0.05103   0.29027   0.25509   0.00000  Uiso   1.00
H31    H     0.24423   0.32018   0.09552   0.00000  Uiso   1.00
H32    H     0.25577   0.01315   0.23781   0.00000  Uiso   1.00
H33    H     0.21506   0.12594   0.31628   0.00000  Uiso   1.00
H34    H     0.28494   0.20739   0.01705   0.00000  Uiso   1.00
N35    N     0.23745   0.15214   0.01284   0.00000  Uiso   1.00
N36    N     0.26256   0.18119   0.32049   0.00000  Uiso   1.00
O37    O     0.25326   0.09538   0.20659   0.00000  Uiso   1.00
O38    O     0.24675   0.23796   0.12674   0.00000  Uiso   1.00
O39    O     0.24480   0.08559   0.10279   0.00000  Uiso   1.00
O40    O     0.25520   0.24774   0.23055   0.00000  Uiso   1.00
O41    O     0.18936   0.17155   0.21857   0.00000  Uiso   1.00
O42    O     0.31065   0.16179   0.11476   0.00000  Uiso   1.00
O43    O     0.18090   0.16176   0.11477   0.00000  Uiso   1.00
O44    O     0.31910   0.17157   0.21857   0.00000  Uiso   1.00
N45    N     0.03687   0.02832   0.07519   0.00000  Uiso   1.00
H46    H     0.01226   0.33285   0.05281   0.00000  Uiso   1.00
H47    H     0.05289   0.01301   0.10990   0.00000  Uiso   1.00
N48    N     0.46314   0.30501   0.25814   0.00000  Uiso   1.00
H49    H     0.48775   0.00049   0.28053   0.00000  Uiso   1.00
H50    H     0.44711   0.32032   0.22343   0.00000  Uiso   1.00
C51    C     0.74865   0.06661   0.15113   0.00000  Uiso   1.00
C52    C     0.75135   0.26673   0.18221   0.00000  Uiso   1.00
C53    C     0.51665   0.07564   0.10457   0.00000  Uiso   1.00
C54    C     0.98335   0.25769   0.22876   0.00000  Uiso   1.00
C55    C     0.74800   0.01065   0.14237   0.00000  Uiso   1.00
C56    C     0.75200   0.32269   0.19096   0.00000  Uiso   1.00
C57    C     0.66455   0.16641   0.16759   0.00000  Uiso   1.00
C58    C     0.83545   0.16692   0.16574   0.00000  Uiso   1.00
C59    C     0.90963   0.21184   0.19676   0.00000  Uiso   1.00
C60    C     0.59037   0.12149   0.13657   0.00000  Uiso   1.00
C61    C     0.88355   0.16761   0.16386   0.00000  Uiso   1.00
C62    C     0.61645   0.16572   0.16947   0.00000  Uiso   1.00
C63    C     0.90326   0.12349   0.13122   0.00000  Uiso   1.00
C64    C     0.59674   0.20984   0.20211   0.00000  Uiso   1.00
C65    C     0.94983   0.12254   0.13282   0.00000  Uiso   1.00
C66    C     0.55017   0.21079   0.20051   0.00000  Uiso   1.00
C67    C     0.97658   0.16716   0.16588   0.00000  Uiso   1.00
C68    C     0.52342   0.16618   0.16746   0.00000  Uiso   1.00
C69    C     0.95641   0.21268   0.19730   0.00000  Uiso   1.00
C70    C     0.54359   0.12065   0.13603   0.00000  Uiso   1.00
C71    C     0.96985   0.07733   0.10272   0.00000  Uiso   1.00
C72    C     0.53015   0.25600   0.23061   0.00000  Uiso   1.00
Cu73   Cu    0.75501   0.17246   0.22813   0.00000  Uiso   1.00
Cu74   Cu    0.74500   0.16087   0.10521   0.00000  Uiso   1.00
H75    H     0.89305   0.24538   0.22163   0.00000  Uiso   1.00
H76    H     0.60695   0.08796   0.11171   0.00000  Uiso   1.00
H77    H     0.88229   0.08941   0.10633   0.00000  Uiso   1.00
H78    H     0.61771   0.24392   0.22700   0.00000  Uiso   1.00
H79    H     0.94897   0.04307   0.07824   0.00000  Uiso   1.00
H80    H     0.55103   0.29027   0.25509   0.00000  Uiso   1.00
H81    H     0.74423   0.32018   0.09552   0.00000  Uiso   1.00
H82    H     0.75577   0.01315   0.23781   0.00000  Uiso   1.00
H83    H     0.71506   0.12594   0.31628   0.00000  Uiso   1.00
H84    H     0.78494   0.20739   0.01705   0.00000  Uiso   1.00
N85    N     0.73745   0.15214   0.01284   0.00000  Uiso   1.00
N86    N     0.76256   0.18119   0.32049   0.00000  Uiso   1.00
O87    O     0.75326   0.09538   0.20659   0.00000  Uiso   1.00
O88    O     0.74675   0.23796   0.12674   0.00000  Uiso   1.00
O89    O     0.74480   0.08559   0.10279   0.00000  Uiso   1.00
O90    O     0.75520   0.24774   0.23055   0.00000  Uiso   1.00
O91    O     0.68936   0.17155   0.21857   0.00000  Uiso   1.00
O92    O     0.81065   0.16179   0.11476   0.00000  Uiso   1.00
O93    O     0.68090   0.16176   0.11477   0.00000  Uiso   1.00
O94    O     0.81910   0.17157   0.21857   0.00000  Uiso   1.00
N95    N     0.53687   0.02832   0.07519   0.00000  Uiso   1.00
H96    H     0.51226   0.33285   0.05281   0.00000  Uiso   1.00
H97    H     0.55289   0.01301   0.10990   0.00000  Uiso   1.00
N98    N     0.96314   0.30501   0.25814   0.00000  Uiso   1.00
H99    H     0.98775   0.00049   0.28053   0.00000  Uiso   1.00
H100   H     0.94711   0.32032   0.22343   0.00000  Uiso   1.00
C101   C     0.24865   0.39994   0.15113   0.00000  Uiso   1.00
C102   C     0.25135   0.60006   0.18221   0.00000  Uiso   1.00
C103   C     0.01665   0.40898   0.10457   0.00000  Uiso   1.00
C104   C     0.48335   0.59102   0.22876   0.00000  Uiso   1.00
C105   C     0.24800   0.34398   0.14237   0.00000  Uiso   1.00
C106   C     0.25200   0.65602   0.19096   0.00000  Uiso   1.00
C107   C     0.16455   0.49974   0.16759   0.00000  Uiso   1.00
C108   C     0.33545   0.50026   0.16574   0.00000  Uiso   1.00
C109   C     0.40963   0.54517   0.19676   0.00000  Uiso   1.00
C110   C     0.09037   0.45483   0.13657   0.00000  Uiso   1.00
C111   C     0.38355   0.50095   0.16386   0.00000  Uiso   1.00
C112   C     0.11645   0.49905   0.16947   0.00000  Uiso   1.00
C113   C     0.40326   0.45682   0.13122   0.00000  Uiso   1.00
C114   C     0.09674   0.54318   0.20211   0.00000  Uiso   1.00
C115   C     0.44983   0.45588   0.13282   0.00000  Uiso   1.00
C116   C     0.05017   0.54412   0.20051   0.00000  Uiso   1.00
C117   C     0.47658   0.50049   0.16588   0.00000  Uiso   1.00
C118   C     0.02342   0.49951   0.16746   0.00000  Uiso   1.00
C119   C     0.45641   0.54601   0.19730   0.00000  Uiso   1.00
C120   C     0.04359   0.45399   0.13603   0.00000  Uiso   1.00
C121   C     0.46985   0.41066   0.10272   0.00000  Uiso   1.00
C122   C     0.03015   0.58934   0.23061   0.00000  Uiso   1.00
Cu123  Cu    0.25501   0.50579   0.22813   0.00000  Uiso   1.00
Cu124  Cu    0.24500   0.49421   0.10521   0.00000  Uiso   1.00
H125   H     0.39305   0.57871   0.22163   0.00000  Uiso   1.00
H126   H     0.10695   0.42129   0.11171   0.00000  Uiso   1.00
H127   H     0.38229   0.42275   0.10633   0.00000  Uiso   1.00
H128   H     0.11771   0.57725   0.22700   0.00000  Uiso   1.00
H129   H     0.44897   0.37640   0.07824   0.00000  Uiso   1.00
H130   H     0.05103   0.62360   0.25509   0.00000  Uiso   1.00
H131   H     0.24423   0.65352   0.09552   0.00000  Uiso   1.00
H132   H     0.25577   0.34648   0.23781   0.00000  Uiso   1.00
H133   H     0.21506   0.45927   0.31628   0.00000  Uiso   1.00
H134   H     0.28494   0.54072   0.01705   0.00000  Uiso   1.00
N135   N     0.23745   0.48547   0.01284   0.00000  Uiso   1.00
N136   N     0.26256   0.51453   0.32049   0.00000  Uiso   1.00
O137   O     0.25326   0.42871   0.20659   0.00000  Uiso   1.00
O138   O     0.24675   0.57129   0.12674   0.00000  Uiso   1.00
O139   O     0.24480   0.41892   0.10279   0.00000  Uiso   1.00
O140   O     0.25520   0.58108   0.23055   0.00000  Uiso   1.00
O141   O     0.18936   0.50488   0.21857   0.00000  Uiso   1.00
O142   O     0.31065   0.49512   0.11476   0.00000  Uiso   1.00
O143   O     0.18090   0.49510   0.11477   0.00000  Uiso   1.00
O144   O     0.31910   0.50490   0.21857   0.00000  Uiso   1.00
N145   N     0.03687   0.36165   0.07519   0.00000  Uiso   1.00
H146   H     0.01226   0.66618   0.05281   0.00000  Uiso   1.00
H147   H     0.05289   0.34635   0.10990   0.00000  Uiso   1.00
N148   N     0.46314   0.63835   0.25814   0.00000  Uiso   1.00
H149   H     0.48775   0.33382   0.28053   0.00000  Uiso   1.00
H150   H     0.44711   0.65365   0.22343   0.00000  Uiso   1.00
C151   C     0.74865   0.39994   0.15113   0.00000  Uiso   1.00
C152   C     0.75135   0.60006   0.18221   0.00000  Uiso   1.00
C153   C     0.51665   0.40898   0.10457   0.00000  Uiso   1.00
C154   C     0.98335   0.59102   0.22876   0.00000  Uiso   1.00
C155   C     0.74800   0.34398   0.14237   0.00000  Uiso   1.00
C156   C     0.75200   0.65602   0.19096   0.00000  Uiso   1.00
C157   C     0.66455   0.49974   0.16759   0.00000  Uiso   1.00
C158   C     0.83545   0.50026   0.16574   0.00000  Uiso   1.00
C159   C     0.90963   0.54517   0.19676   0.00000  Uiso   1.00
C160   C     0.59037   0.45483   0.13657   0.00000  Uiso   1.00
C161   C     0.88355   0.50095   0.16386   0.00000  Uiso   1.00
C162   C     0.61645   0.49905   0.16947   0.00000  Uiso   1.00
C163   C     0.90326   0.45682   0.13122   0.00000  Uiso   1.00
C164   C     0.59674   0.54318   0.20211   0.00000  Uiso   1.00
C165   C     0.94983   0.45588   0.13282   0.00000  Uiso   1.00
C166   C     0.55017   0.54412   0.20051   0.00000  Uiso   1.00
C167   C     0.97658   0.50049   0.16588   0.00000  Uiso   1.00
C168   C     0.52342   0.49951   0.16746   0.00000  Uiso   1.00
C169   C     0.95641   0.54601   0.19730   0.00000  Uiso   1.00
C170   C     0.54359   0.45399   0.13603   0.00000  Uiso   1.00
C171   C     0.96985   0.41066   0.10272   0.00000  Uiso   1.00
C172   C     0.53015   0.58934   0.23061   0.00000  Uiso   1.00
Cu173  Cu    0.75501   0.50579   0.22813   0.00000  Uiso   1.00
Cu174  Cu    0.74500   0.49421   0.10521   0.00000  Uiso   1.00
H175   H     0.89305   0.57871   0.22163   0.00000  Uiso   1.00
H176   H     0.60695   0.42129   0.11171   0.00000  Uiso   1.00
H177   H     0.88229   0.42275   0.10633   0.00000  Uiso   1.00
H178   H     0.61771   0.57725   0.22700   0.00000  Uiso   1.00
H179   H     0.94897   0.37640   0.07824   0.00000  Uiso   1.00
H180   H     0.55103   0.62360   0.25509   0.00000  Uiso   1.00
H181   H     0.74423   0.65352   0.09552   0.00000  Uiso   1.00
H182   H     0.75577   0.34648   0.23781   0.00000  Uiso   1.00
H183   H     0.71506   0.45927   0.31628   0.00000  Uiso   1.00
H184   H     0.78494   0.54072   0.01705   0.00000  Uiso   1.00
N185   N     0.73745   0.48547   0.01284   0.00000  Uiso   1.00
N186   N     0.76256   0.51453   0.32049   0.00000  Uiso   1.00
O187   O     0.75326   0.42871   0.20659   0.00000  Uiso   1.00
O188   O     0.74675   0.57129   0.12674   0.00000  Uiso   1.00
O189   O     0.74480   0.41892   0.10279   0.00000  Uiso   1.00
O190   O     0.75520   0.58108   0.23055   0.00000  Uiso   1.00
O191   O     0.68936   0.50488   0.21857   0.00000  Uiso   1.00
O192   O     0.81065   0.49512   0.11476   0.00000  Uiso   1.00
O193   O     0.68090   0.49510   0.11477   0.00000  Uiso   1.00
O194   O     0.81910   0.50490   0.21857   0.00000  Uiso   1.00
N195   N     0.53687   0.36165   0.07519   0.00000  Uiso   1.00
H196   H     0.51226   0.66618   0.05281   0.00000  Uiso   1.00
H197   H     0.55289   0.34635   0.10990   0.00000  Uiso   1.00
N198   N     0.96314   0.63835   0.25814   0.00000  Uiso   1.00
H199   H     0.98775   0.33382   0.28053   0.00000  Uiso   1.00
H200   H     0.94711   0.65365   0.22343   0.00000  Uiso   1.00
C201   C     0.24865   0.73327   0.15113   0.00000  Uiso   1.00
C202   C     0.25135   0.93339   0.18221   0.00000  Uiso   1.00
C203   C     0.01665   0.74231   0.10457   0.00000  Uiso   1.00
C204   C     0.48335   0.92436   0.22876   0.00000  Uiso   1.00
C205   C     0.24800   0.67731   0.14237   0.00000  Uiso   1.00
C206   C     0.25200   0.98935   0.19096   0.00000  Uiso   1.00
C207   C     0.16455   0.83308   0.16759   0.00000  Uiso   1.00
C208   C     0.33545   0.83359   0.16574   0.00000  Uiso   1.00
C209   C     0.40963   0.87851   0.19676   0.00000  Uiso   1.00
C210   C     0.09037   0.78816   0.13657   0.00000  Uiso   1.00
C211   C     0.38355   0.83428   0.16386   0.00000  Uiso   1.00
C212   C     0.11645   0.83239   0.16947   0.00000  Uiso   1.00
C213   C     0.40326   0.79016   0.13122   0.00000  Uiso   1.00
C214   C     0.09674   0.87651   0.20211   0.00000  Uiso   1.00
C215   C     0.44983   0.78921   0.13282   0.00000  Uiso   1.00
C216   C     0.05017   0.87746   0.20051   0.00000  Uiso   1.00
C217   C     0.47658   0.83382   0.16588   0.00000  Uiso   1.00
C218   C     0.02342   0.83284   0.16746   0.00000  Uiso   1.00
C219   C     0.45641   0.87935   0.19730   0.00000  Uiso   1.00
C220   C     0.04359   0.78732   0.13603   0.00000  Uiso   1.00
C221   C     0.46985   0.74400   0.10272   0.00000  Uiso   1.00
C222   C     0.03015   0.92267   0.23061   0.00000  Uiso   1.00
Cu223  Cu    0.25501   0.83913   0.22813   0.00000  Uiso   1.00
Cu224  Cu    0.24500   0.82754   0.10521   0.00000  Uiso   1.00
H225   H     0.39305   0.91204   0.22163   0.00000  Uiso   1.00
H226   H     0.10695   0.75462   0.11171   0.00000  Uiso   1.00
H227   H     0.38229   0.75608   0.10633   0.00000  Uiso   1.00
H228   H     0.11771   0.91059   0.22700   0.00000  Uiso   1.00
H229   H     0.44897   0.70973   0.07824   0.00000  Uiso   1.00
H230   H     0.05103   0.95693   0.25509   0.00000  Uiso   1.00
H231   H     0.24423   0.98685   0.09552   0.00000  Uiso   1.00
H232   H     0.25577   0.67982   0.23781   0.00000  Uiso   1.00
H233   H     0.21506   0.79261   0.31628   0.00000  Uiso   1.00
H234   H     0.28494   0.87406   0.01705   0.00000  Uiso   1.00
N235   N     0.23745   0.81881   0.01284   0.00000  Uiso   1.00
N236   N     0.26256   0.84786   0.32049   0.00000  Uiso   1.00
O237   O     0.25326   0.76204   0.20659   0.00000  Uiso   1.00
O238   O     0.24675   0.90462   0.12674   0.00000  Uiso   1.00
O239   O     0.24480   0.75226   0.10279   0.00000  Uiso   1.00
O240   O     0.25520   0.91441   0.23055   0.00000  Uiso   1.00
O241   O     0.18936   0.83821   0.21857   0.00000  Uiso   1.00
O242   O     0.31065   0.82845   0.11476   0.00000  Uiso   1.00
O243   O     0.18090   0.82843   0.11477   0.00000  Uiso   1.00
O244   O     0.31910   0.83824   0.21857   0.00000  Uiso   1.00
N245   N     0.03687   0.69499   0.07519   0.00000  Uiso   1.00
H246   H     0.01226   0.99952   0.05281   0.00000  Uiso   1.00
H247   H     0.05289   0.67968   0.10990   0.00000  Uiso   1.00
N248   N     0.46314   0.97168   0.25814   0.00000  Uiso   1.00
H249   H     0.48775   0.66715   0.28053   0.00000  Uiso   1.00
H250   H     0.44711   0.98699   0.22343   0.00000  Uiso   1.00
C251   C     0.74865   0.73327   0.15113   0.00000  Uiso   1.00
C252   C     0.75135   0.93339   0.18221   0.00000  Uiso   1.00
C253   C     0.51665   0.74231   0.10457   0.00000  Uiso   1.00
C254   C     0.98335   0.92436   0.22876   0.00000  Uiso   1.00
C255   C     0.74800   0.67731   0.14237   0.00000  Uiso   1.00
C256   C     0.75200   0.98935   0.19096   0.00000  Uiso   1.00
C257   C     0.66455   0.83308   0.16759   0.00000  Uiso   1.00
C258   C     0.83545   0.83359   0.16574   0.00000  Uiso   1.00
C259   C     0.90963   0.87851   0.19676   0.00000  Uiso   1.00
C260   C     0.59037   0.78816   0.13657   0.00000  Uiso   1.00
C261   C     0.88355   0.83428   0.16386   0.00000  Uiso   1.00
C262   C     0.61645   0.83239   0.16947   0.00000  Uiso   1.00
C263   C     0.90326   0.79016   0.13122   0.00000  Uiso   1.00
C264   C     0.59674   0.87651   0.20211   0.00000  Uiso   1.00
C265   C     0.94983   0.78921   0.13282   0.00000  Uiso   1.00
C266   C     0.55017   0.87746   0.20051   0.00000  Uiso   1.00
C267   C     0.97658   0.83382   0.16588   0.00000  Uiso   1.00
C268   C     0.52342   0.83284   0.16746   0.00000  Uiso   1.00
C269   C     0.95641   0.87935   0.19730   0.00000  Uiso   1.00
C270   C     0.54359   0.78732   0.13603   0.00000  Uiso   1.00
C271   C     0.96985   0.74400   0.10272   0.00000  Uiso   1.00
C272   C     0.53015   0.92267   0.23061   0.00000  Uiso   1.00
Cu273  Cu    0.75501   0.83913   0.22813   0.00000  Uiso   1.00
Cu274  Cu    0.74500   0.82754   0.10521   0.00000  Uiso   1.00
H275   H     0.89305   0.91204   0.22163   0.00000  Uiso   1.00
H276   H     0.60695   0.75462   0.11171   0.00000  Uiso   1.00
H277   H     0.88229   0.75608   0.10633   0.00000  Uiso   1.00
H278   H     0.61771   0.91059   0.22700   0.00000  Uiso   1.00
H279   H     0.94897   0.70973   0.07824   0.00000  Uiso   1.00
H280   H     0.55103   0.95693   0.25509   0.00000  Uiso   1.00
H281   H     0.74423   0.98685   0.09552   0.00000  Uiso   1.00
H282   H     0.75577   0.67982   0.23781   0.00000  Uiso   1.00
H283   H     0.71506   0.79261   0.31628   0.00000  Uiso   1.00
H284   H     0.78494   0.87406   0.01705   0.00000  Uiso   1.00
N285   N     0.73745   0.81881   0.01284   0.00000  Uiso   1.00
N286   N     0.76256   0.84786   0.32049   0.00000  Uiso   1.00
O287   O     0.75326   0.76204   0.20659   0.00000  Uiso   1.00
O288   O     0.74675   0.90462   0.12674   0.00000  Uiso   1.00
O289   O     0.74480   0.75226   0.10279   0.00000  Uiso   1.00
O290   O     0.75520   0.91441   0.23055   0.00000  Uiso   1.00
O291   O     0.68936   0.83821   0.21857   0.00000  Uiso   1.00
O292   O     0.81065   0.82845   0.11476   0.00000  Uiso   1.00
O293   O     0.68090   0.82843   0.11477   0.00000  Uiso   1.00
O294   O     0.81910   0.83824   0.21857   0.00000  Uiso   1.00
N295   N     0.53687   0.69499   0.07519   0.00000  Uiso   1.00
H296   H     0.51226   0.99952   0.05281   0.00000  Uiso   1.00
H297   H     0.55289   0.67968   0.10990   0.00000  Uiso   1.00
N298   N     0.96314   0.97168   0.25814   0.00000  Uiso   1.00
H299   H     0.98775   0.66715   0.28053   0.00000  Uiso   1.00
H300   H     0.94711   0.98699   0.22343   0.00000  Uiso   1.00
C301   C     0.24865   0.06661   0.48446   0.00000  Uiso   1.00
C302   C     0.25135   0.26673   0.51554   0.00000  Uiso   1.00
C303   C     0.01665   0.07564   0.43790   0.00000  Uiso   1.00
C304   C     0.48335   0.25769   0.56210   0.00000  Uiso   1.00
C305   C     0.24800   0.01065   0.47570   0.00000  Uiso   1.00
C306   C     0.25200   0.32269   0.52430   0.00000  Uiso   1.00
C307   C     0.16455   0.16641   0.50093   0.00000  Uiso   1.00
C308   C     0.33545   0.16692   0.49907   0.00000  Uiso   1.00
C309   C     0.40963   0.21184   0.53009   0.00000  Uiso   1.00
C310   C     0.09037   0.12149   0.46991   0.00000  Uiso   1.00
C311   C     0.38355   0.16761   0.49720   0.00000  Uiso   1.00
C312   C     0.11645   0.16572   0.50280   0.00000  Uiso   1.00
C313   C     0.40326   0.12349   0.46456   0.00000  Uiso   1.00
C314   C     0.09674   0.20984   0.53544   0.00000  Uiso   1.00
C315   C     0.44983   0.12254   0.46616   0.00000  Uiso   1.00
C316   C     0.05017   0.21079   0.53384   0.00000  Uiso   1.00
C317   C     0.47658   0.16716   0.49921   0.00000  Uiso   1.00
C318   C     0.02342   0.16618   0.50079   0.00000  Uiso   1.00
C319   C     0.45641   0.21268   0.53064   0.00000  Uiso   1.00
C320   C     0.04359   0.12065   0.46936   0.00000  Uiso   1.00
C321   C     0.46985   0.07733   0.43605   0.00000  Uiso   1.00
C322   C     0.03015   0.25600   0.56395   0.00000  Uiso   1.00
Cu323  Cu    0.25501   0.17246   0.56146   0.00000  Uiso   1.00
Cu324  Cu    0.24500   0.16087   0.43854   0.00000  Uiso   1.00
H325   H     0.39305   0.24538   0.55496   0.00000  Uiso   1.00
H326   H     0.10695   0.08796   0.44504   0.00000  Uiso   1.00
H327   H     0.38229   0.08941   0.43967   0.00000  Uiso   1.00
H328   H     0.11771   0.24392   0.56033   0.00000  Uiso   1.00
H329   H     0.44897   0.04307   0.41158   0.00000  Uiso   1.00
H330   H     0.05103   0.29027   0.58842   0.00000  Uiso   1.00
H331   H     0.24423   0.32018   0.42886   0.00000  Uiso   1.00
H332   H     0.25577   0.01315   0.57115   0.00000  Uiso   1.00
H333   H     0.21506   0.12594   0.64962   0.00000  Uiso   1.00
H334   H     0.28494   0.20739   0.35038   0.00000  Uiso   1.00
N335   N     0.23745   0.15214   0.34617   0.00000  Uiso   1.00
N336   N     0.26256   0.18119   0.65383   0.00000  Uiso   1.00
O337   O     0.25326   0.09538   0.53992   0.00000  Uiso   1.00
O338   O     0.24675   0.23796   0.46008   0.00000  Uiso   1.00
O339   O     0.24480   0.08559   0.43612   0.00000  Uiso   1.00
O340   O     0.25520   0.24774   0.56388   0.00000  Uiso   1.00
O341   O     0.18936   0.17155   0.55191   0.00000  Uiso   1.00
O342   O     0.31065   0.16179   0.44809   0.00000  Uiso   1.00
O343   O     0.18090   0.16176   0.44810   0.00000  Uiso   1.00
O344   O     0.31910   0.17157   0.55190   0.00000  Uiso   1.00
N345   N     0.03687   0.02832   0.40852   0.00000  Uiso   1.00
H346   H     0.01226   0.33285   0.38614   0.00000  Uiso   1.00
H347   H     0.05289   0.01301   0.44323   0.00000  Uiso   1.00
N348   N     0.46314   0.30501   0.59148   0.00000  Uiso   1.00
H349   H     0.48775   0.00049   0.61386   0.00000  Uiso   1.00
H350   H     0.44711   0.32032   0.55677   0.00000  Uiso   1.00
C351   C     0.74865   0.06661   0.48446   0.00000  Uiso   1.00
C352   C     0.75135   0.26673   0.51554   0.00000  Uiso   1.00
C353   C     0.51665   0.07564   0.43790   0.00000  Uiso   1.00
C354   C     0.98335   0.25769   0.56210   0.00000  Uiso   1.00
C355   C     0.74800   0.01065   0.47570   0.00000  Uiso   1.00
C356   C     0.75200   0.32269   0.52430   0.00000  Uiso   1.00
C357   C     0.66455   0.16641   0.50093   0.00000  Uiso   1.00
C358   C     0.83545   0.16692   0.49907   0.00000  Uiso   1.00
C359   C     0.90963   0.21184   0.53009   0.00000  Uiso   1.00
C360   C     0.59037   0.12149   0.46991   0.00000  Uiso   1.00
C361   C     0.88355   0.16761   0.49720   0.00000  Uiso   1.00
C362   C     0.61645   0.16572   0.50280   0.00000  Uiso   1.00
C363   C     0.90326   0.12349   0.46456   0.00000  Uiso   1.00
C364   C     0.59674   0.20984   0.53544   0.00000  Uiso   1.00
C365   C     0.94983   0.12254   0.46616   0.00000  Uiso   1.00
C366   C     0.55017   0.21079   0.53384   0.00000  Uiso   1.00
C367   C     0.97658   0.16716   0.49921   0.00000  Uiso   1.00
C368   C     0.52342   0.16618   0.50079   0.00000  Uiso   1.00
C369   C     0.95641   0.21268   0.53064   0.00000  Uiso   1.00
C370   C     0.54359   0.12065   0.46936   0.00000  Uiso   1.00
C371   C     0.96985   0.07733   0.43605   0.00000  Uiso   1.00
C372   C     0.53015   0.25600   0.56395   0.00000  Uiso   1.00
Cu373  Cu    0.75501   0.17246   0.56146   0.00000  Uiso   1.00
Cu374  Cu    0.74500   0.16087   0.43854   0.00000  Uiso   1.00
H375   H     0.89305   0.24538   0.55496   0.00000  Uiso   1.00
H376   H     0.60695   0.08796   0.44504   0.00000  Uiso   1.00
H377   H     0.88229   0.08941   0.43967   0.00000  Uiso   1.00
H378   H     0.61771   0.24392   0.56033   0.00000  Uiso   1.00
H379   H     0.94897   0.04307   0.41158   0.00000  Uiso   1.00
H380   H     0.55103   0.29027   0.58842   0.00000  Uiso   1.00
H381   H     0.74423   0.32018   0.42886   0.00000  Uiso   1.00
H382   H     0.75577   0.01315   0.57115   0.00000  Uiso   1.00
H383   H     0.71506   0.12594   0.64962   0.00000  Uiso   1.00
H384   H     0.78494   0.20739   0.35038   0.00000  Uiso   1.00
N385   N     0.73745   0.15214   0.34617   0.00000  Uiso   1.00
N386   N     0.76256   0.18119   0.65383   0.00000  Uiso   1.00
O387   O     0.75326   0.09538   0.53992   0.00000  Uiso   1.00
O388   O     0.74675   0.23796   0.46008   0.00000  Uiso   1.00
O389   O     0.74480   0.08559   0.43612   0.00000  Uiso   1.00
O390   O     0.75520   0.24774   0.56388   0.00000  Uiso   1.00
O391   O     0.68936   0.17155   0.55191   0.00000  Uiso   1.00
O392   O     0.81065   0.16179   0.44809   0.00000  Uiso   1.00
O393   O     0.68090   0.16176   0.44810   0.00000  Uiso   1.00
O394   O     0.81910   0.17157   0.55190   0.00000  Uiso   1.00
N395   N     0.53687   0.02832   0.40852   0.00000  Uiso   1.00
H396   H     0.51226   0.33285   0.38614   0.00000  Uiso   1.00
H397   H     0.55289   0.01301   0.44323   0.00000  Uiso   1.00
N398   N     0.96314   0.30501   0.59148   0.00000  Uiso   1.00
H399   H     0.98775   0.00049   0.61386   0.00000  Uiso   1.00
H400   H     0.94711   0.32032   0.55677   0.00000  Uiso   1.00
C401   C     0.24865   0.39994   0.48446   0.00000  Uiso   1.00
C402   C     0.25135   0.60006   0.51554   0.00000  Uiso   1.00
C403   C     0.01665   0.40898   0.43790   0.00000  Uiso   1.00
C404   C     0.48335   0.59102   0.56210   0.00000  Uiso   1.00
C405   C     0.24800   0.34398   0.47570   0.00000  Uiso   1.00
C406   C     0.25200   0.65602   0.52430   0.00000  Uiso   1.00
C407   C     0.16455   0.49974   0.50093   0.00000  Uiso   1.00
C408   C     0.33545   0.50026   0.49907   0.00000  Uiso   1.00
C409   C     0.40963   0.54517   0.53009   0.00000  Uiso   1.00
C410   C     0.09037   0.45483   0.46991   0.00000  Uiso   1.00
C411   C     0.38355   0.50095   0.49720   0.00000  Uiso   1.00
C412   C     0.11645   0.49905   0.50280   0.00000  Uiso   1.00
C413   C     0.40326   0.45682   0.46456   0.00000  Uiso   1.00
C414   C     0.09674   0.54318   0.53544   0.00000  Uiso   1.00
C415   C     0.44983   0.45588   0.46616   0.00000  Uiso   1.00
C416   C     0.05017   0.54412   0.53384   0.00000  Uiso   1.00
C417   C     0.47658   0.50049   0.49921   0.00000  Uiso   1.00
C418   C     0.02342   0.49951   0.50079   0.00000  Uiso   1.00
C419   C     0.45641   0.54601   0.53064   0.00000  Uiso   1.00
C420   C     0.04359   0.45399   0.46936   0.00000  Uiso   1.00
C421   C     0.46985   0.41066   0.43605   0.00000  Uiso   1.00
C422   C     0.03015   0.58934   0.56395   0.00000  Uiso   1.00
Cu423  Cu    0.25501   0.50579   0.56146   0.00000  Uiso   1.00
Cu424  Cu    0.24500   0.49421   0.43854   0.00000  Uiso   1.00
H425   H     0.39305   0.57871   0.55496   0.00000  Uiso   1.00
H426   H     0.10695   0.42129   0.44504   0.00000  Uiso   1.00
H427   H     0.38229   0.42275   0.43967   0.00000  Uiso   1.00
H428   H     0.11771   0.57725   0.56033   0.00000  Uiso   1.00
H429   H     0.44897   0.37640   0.41158   0.00000  Uiso   1.00
H430   H     0.05103   0.62360   0.58842   0.00000  Uiso   1.00
H431   H     0.24423   0.65352   0.42886   0.00000  Uiso   1.00
H432   H     0.25577   0.34648   0.57115   0.00000  Uiso   1.00
H433   H     0.21506   0.45927   0.64962   0.00000  Uiso   1.00
H434   H     0.28494   0.54072   0.35038   0.00000  Uiso   1.00
N435   N     0.23745   0.48547   0.34617   0.00000  Uiso   1.00
N436   N     0.26256   0.51453   0.65383   0.00000  Uiso   1.00
O437   O     0.25326   0.42871   0.53992   0.00000  Uiso   1.00
O438   O     0.24675   0.57129   0.46008   0.00000  Uiso   1.00
O439   O     0.24480   0.41892   0.43612   0.00000  Uiso   1.00
O440   O     0.25520   0.58108   0.56388   0.00000  Uiso   1.00
O441   O     0.18936   0.50488   0.55191   0.00000  Uiso   1.00
O442   O     0.31065   0.49512   0.44809   0.00000  Uiso   1.00
O443   O     0.18090   0.49510   0.44810   0.00000  Uiso   1.00
O444   O     0.31910   0.50490   0.55190   0.00000  Uiso   1.00
N445   N     0.03687   0.36165   0.40852   0.00000  Uiso   1.00
H446   H     0.01226   0.66618   0.38614   0.00000  Uiso   1.00
H447   H     0.05289   0.34635   0.44323   0.00000  Uiso   1.00
N448   N     0.46314   0.63835   0.59148   0.00000  Uiso   1.00
H449   H     0.48775   0.33382   0.61386   0.00000  Uiso   1.00
H450   H     0.44711   0.65365   0.55677   0.00000  Uiso   1.00
C451   C     0.74865   0.39994   0.48446   0.00000  Uiso   1.00
C452   C     0.75135   0.60006   0.51554   0.00000  Uiso   1.00
C453   C     0.51665   0.40898   0.43790   0.00000  Uiso   1.00
C454   C     0.98335   0.59102   0.56210   0.00000  Uiso   1.00
C455   C     0.74800   0.34398   0.47570   0.00000  Uiso   1.00
C456   C     0.75200   0.65602   0.52430   0.00000  Uiso   1.00
C457   C     0.66455   0.49974   0.50093   0.00000  Uiso   1.00
C458   C     0.83545   0.50026   0.49907   0.00000  Uiso   1.00
C459   C     0.90963   0.54517   0.53009   0.00000  Uiso   1.00
C460   C     0.59037   0.45483   0.46991   0.00000  Uiso   1.00
C461   C     0.88355   0.50095   0.49720   0.00000  Uiso   1.00
C462   C     0.61645   0.49905   0.50280   0.00000  Uiso   1.00
C463   C     0.90326   0.45682   0.46456   0.00000  Uiso   1.00
C464   C     0.59674   0.54318   0.53544   0.00000  Uiso   1.00
C465   C     0.94983   0.45588   0.46616   0.00000  Uiso   1.00
C466   C     0.55017   0.54412   0.53384   0.00000  Uiso   1.00
C467   C     0.97658   0.50049   0.49921   0.00000  Uiso   1.00
C468   C     0.52342   0.49951   0.50079   0.00000  Uiso   1.00
C469   C     0.95641   0.54601   0.53064   0.00000  Uiso   1.00
C470   C     0.54359   0.45399   0.46936   0.00000  Uiso   1.00
C471   C     0.96985   0.41066   0.43605   0.00000  Uiso   1.00
C472   C     0.53015   0.58934   0.56395   0.00000  Uiso   1.00
Cu473  Cu    0.75501   0.50579   0.56146   0.00000  Uiso   1.00
Cu474  Cu    0.74500   0.49421   0.43854   0.00000  Uiso   1.00
H475   H     0.89305   0.57871   0.55496   0.00000  Uiso   1.00
H476   H     0.60695   0.42129   0.44504   0.00000  Uiso   1.00
H477   H     0.88229   0.42275   0.43967   0.00000  Uiso   1.00
H478   H     0.61771   0.57725   0.56033   0.00000  Uiso   1.00
H479   H     0.94897   0.37640   0.41158   0.00000  Uiso   1.00
H480   H     0.55103   0.62360   0.58842   0.00000  Uiso   1.00
H481   H     0.74423   0.65352   0.42886   0.00000  Uiso   1.00
H482   H     0.75577   0.34648   0.57115   0.00000  Uiso   1.00
H483   H     0.71506   0.45927   0.64962   0.00000  Uiso   1.00
H484   H     0.78494   0.54072   0.35038   0.00000  Uiso   1.00
N485   N     0.73745   0.48547   0.34617   0.00000  Uiso   1.00
N486   N     0.76256   0.51453   0.65383   0.00000  Uiso   1.00
O487   O     0.75326   0.42871   0.53992   0.00000  Uiso   1.00
O488   O     0.74675   0.57129   0.46008   0.00000  Uiso   1.00
O489   O     0.74480   0.41892   0.43612   0.00000  Uiso   1.00
O490   O     0.75520   0.58108   0.56388   0.00000  Uiso   1.00
O491   O     0.68936   0.50488   0.55191   0.00000  Uiso   1.00
O492   O     0.81065   0.49512   0.44809   0.00000  Uiso   1.00
O493   O     0.68090   0.49510   0.44810   0.00000  Uiso   1.00
O494   O     0.81910   0.50490   0.55190   0.00000  Uiso   1.00
N495   N     0.53687   0.36165   0.40852   0.00000  Uiso   1.00
H496   H     0.51226   0.66618   0.38614   0.00000  Uiso   1.00
H497   H     0.55289   0.34635   0.44323   0.00000  Uiso   1.00
N498   N     0.96314   0.63835   0.59148   0.00000  Uiso   1.00
H499   H     0.98775   0.33382   0.61386   0.00000  Uiso   1.00
H500   H     0.94711   0.65365   0.55677   0.00000  Uiso   1.00
C501   C     0.24865   0.73327   0.48446   0.00000  Uiso   1.00
C502   C     0.25135   0.93339   0.51554   0.00000  Uiso   1.00
C503   C     0.01665   0.74231   0.43790   0.00000  Uiso   1.00
C504   C     0.48335   0.92436   0.56210   0.00000  Uiso   1.00
C505   C     0.24800   0.67731   0.47570   0.00000  Uiso   1.00
C506   C     0.25200   0.98935   0.52430   0.00000  Uiso   1.00
C507   C     0.16455   0.83308   0.50093   0.00000  Uiso   1.00
C508   C     0.33545   0.83359   0.49907   0.00000  Uiso   1.00
C509   C     0.40963   0.87851   0.53009   0.00000  Uiso   1.00
C510   C     0.09037   0.78816   0.46991   0.00000  Uiso   1.00
C511   C     0.38355   0.83428   0.49720   0.00000  Uiso   1.00
C512   C     0.11645   0.83239   0.50280   0.00000  Uiso   1.00
C513   C     0.40326   0.79016   0.46456   0.00000  Uiso   1.00
C514   C     0.09674   0.87651   0.53544   0.00000  Uiso   1.00
C515   C     0.44983   0.78921   0.46616   0.00000  Uiso   1.00
C516   C     0.05017   0.87746   0.53384   0.00000  Uiso   1.00
C517   C     0.47658   0.83382   0.49921   0.00000  Uiso   1.00
C518   C     0.02342   0.83284   0.50079   0.00000  Uiso   1.00
C519   C     0.45641   0.87935   0.53064   0.00000  Uiso   1.00
C520   C     0.04359   0.78732   0.46936   0.00000  Uiso   1.00
C521   C     0.46985   0.74400   0.43605   0.00000  Uiso   1.00
C522   C     0.03015   0.92267   0.56395   0.00000  Uiso   1.00
Cu523  Cu    0.25501   0.83913   0.56146   0.00000  Uiso   1.00
Cu524  Cu    0.24500   0.82754   0.43854   0.00000  Uiso   1.00
H525   H     0.39305   0.91204   0.55496   0.00000  Uiso   1.00
H526   H     0.10695   0.75462   0.44504   0.00000  Uiso   1.00
H527   H     0.38229   0.75608   0.43967   0.00000  Uiso   1.00
H528   H     0.11771   0.91059   0.56033   0.00000  Uiso   1.00
H529   H     0.44897   0.70973   0.41158   0.00000  Uiso   1.00
H530   H     0.05103   0.95693   0.58842   0.00000  Uiso   1.00
H531   H     0.24423   0.98685   0.42886   0.00000  Uiso   1.00
H532   H     0.25577   0.67982   0.57115   0.00000  Uiso   1.00
H533   H     0.21506   0.79261   0.64962   0.00000  Uiso   1.00
H534   H     0.28494   0.87406   0.35038   0.00000  Uiso   1.00
N535   N     0.23745   0.81881   0.34617   0.00000  Uiso   1.00
N536   N     0.26256   0.84786   0.65383   0.00000  Uiso   1.00
O537   O     0.25326   0.76204   0.53992   0.00000  Uiso   1.00
O538   O     0.24675   0.90462   0.46008   0.00000  Uiso   1.00
O539   O     0.24480   0.75226   0.43612   0.00000  Uiso   1.00
O540   O     0.25520   0.91441   0.56388   0.00000  Uiso   1.00
O541   O     0.18936   0.83821   0.55191   0.00000  Uiso   1.00
O542   O     0.31065   0.82845   0.44809   0.00000  Uiso   1.00
O543   O     0.18090   0.82843   0.44810   0.00000  Uiso   1.00
O544   O     0.31910   0.83824   0.55190   0.00000  Uiso   1.00
N545   N     0.03687   0.69499   0.40852   0.00000  Uiso   1.00
H546   H     0.01226   0.99952   0.38614   0.00000  Uiso   1.00
H547   H     0.05289   0.67968   0.44323   0.00000  Uiso   1.00
N548   N     0.46314   0.97168   0.59148   0.00000  Uiso   1.00
H549   H     0.48775   0.66715   0.61386   0.00000  Uiso   1.00
H550   H     0.44711   0.98699   0.55677   0.00000  Uiso   1.00
C551   C     0.74865   0.73327   0.48446   0.00000  Uiso   1.00
C552   C     0.75135   0.93339   0.51554   0.00000  Uiso   1.00
C553   C     0.51665   0.74231   0.43790   0.00000  Uiso   1.00
C554   C     0.98335   0.92436   0.56210   0.00000  Uiso   1.00
C555   C     0.74800   0.67731   0.47570   0.00000  Uiso   1.00
C556   C     0.75200   0.98935   0.52430   0.00000  Uiso   1.00
C557   C     0.66455   0.83308   0.50093   0.00000  Uiso   1.00
C558   C     0.83545   0.83359   0.49907   0.00000  Uiso   1.00
C559   C     0.90963   0.87851   0.53009   0.00000  Uiso   1.00
C560   C     0.59037   0.78816   0.46991   0.00000  Uiso   1.00
C561   C     0.88355   0.83428   0.49720   0.00000  Uiso   1.00
C562   C     0.61645   0.83239   0.50280   0.00000  Uiso   1.00
C563   C     0.90326   0.79016   0.46456   0.00000  Uiso   1.00
C564   C     0.59674   0.87651   0.53544   0.00000  Uiso   1.00
C565   C     0.94983   0.78921   0.46616   0.00000  Uiso   1.00
C566   C     0.55017   0.87746   0.53384   0.00000  Uiso   1.00
C567   C     0.97658   0.83382   0.49921   0.00000  Uiso   1.00
C568   C     0.52342   0.83284   0.50079   0.00000  Uiso   1.00
C569   C     0.95641   0.87935   0.53064   0.00000  Uiso   1.00
C570   C     0.54359   0.78732   0.46936   0.00000  Uiso   1.00
C571   C     0.96985   0.74400   0.43605   0.00000  Uiso   1.00
C572   C     0.53015   0.92267   0.56395   0.00000  Uiso   1.00
Cu573  Cu    0.75501   0.83913   0.56146   0.00000  Uiso   1.00
Cu574  Cu    0.74500   0.82754   0.43854   0.00000  Uiso   1.00
H575   H     0.89305   0.91204   0.55496   0.00000  Uiso   1.00
H576   H     0.60695   0.75462   0.44504   0.00000  Uiso   1.00
H577   H     0.88229   0.75608   0.43967   0.00000  Uiso   1.00
H578   H     0.61771   0.91059   0.56033   0.00000  Uiso   1.00
H579   H     0.94897   0.70973   0.41158   0.00000  Uiso   1.00
H580   H     0.55103   0.95693   0.58842   0.00000  Uiso   1.00
H581   H     0.74423   0.98685   0.42886   0.00000  Uiso   1.00
H582   H     0.75577   0.67982   0.57115   0.00000  Uiso   1.00
H583   H     0.71506   0.79261   0.64962   0.00000  Uiso   1.00
H584   H     0.78494   0.87406   0.35038   0.00000  Uiso   1.00
N585   N     0.73745   0.81881   0.34617   0.00000  Uiso   1.00
N586   N     0.76256   0.84786   0.65383   0.00000  Uiso   1.00
O587   O     0.75326   0.76204   0.53992   0.00000  Uiso   1.00
O588   O     0.74675   0.90462   0.46008   0.00000  Uiso   1.00
O589   O     0.74480   0.75226   0.43612   0.00000  Uiso   1.00
O590   O     0.75520   0.91441   0.56388   0.00000  Uiso   1.00
O591   O     0.68936   0.83821   0.55191   0.00000  Uiso   1.00
O592   O     0.81065   0.82845   0.44809   0.00000  Uiso   1.00
O593   O     0.68090   0.82843   0.44810   0.00000  Uiso   1.00
O594   O     0.81910   0.83824   0.55190   0.00000  Uiso   1.00
N595   N     0.53687   0.69499   0.40852   0.00000  Uiso   1.00
H596   H     0.51226   0.99952   0.38614   0.00000  Uiso   1.00
H597   H     0.55289   0.67968   0.44323   0.00000  Uiso   1.00
N598   N     0.96314   0.97168   0.59148   0.00000  Uiso   1.00
H599   H     0.98775   0.66715   0.61386   0.00000  Uiso   1.00
H600   H     0.94711   0.98699   0.55677   0.00000  Uiso   1.00
C601   C     0.24865   0.06661   0.81779   0.00000  Uiso   1.00
C602   C     0.25135   0.26673   0.84887   0.00000  Uiso   1.00
C603   C     0.01665   0.07564   0.77123   0.00000  Uiso   1.00
C604   C     0.48335   0.25769   0.89543   0.00000  Uiso   1.00
C605   C     0.24800   0.01065   0.80904   0.00000  Uiso   1.00
C606   C     0.25200   0.32269   0.85763   0.00000  Uiso   1.00
C607   C     0.16455   0.16641   0.83426   0.00000  Uiso   1.00
C608   C     0.33545   0.16692   0.83241   0.00000  Uiso   1.00
C609   C     0.40963   0.21184   0.86343   0.00000  Uiso   1.00
C610   C     0.09037   0.12149   0.80324   0.00000  Uiso   1.00
C611   C     0.38355   0.16761   0.83053   0.00000  Uiso   1.00
C612   C     0.11645   0.16572   0.83614   0.00000  Uiso   1.00
C613   C     0.40326   0.12349   0.79789   0.00000  Uiso   1.00
C614   C     0.09674   0.20984   0.86878   0.00000  Uiso   1.00
C615   C     0.44983   0.12254   0.79949   0.00000  Uiso   1.00
C616   C     0.05017   0.21079   0.86717   0.00000  Uiso   1.00
C617   C     0.47658   0.16716   0.83254   0.00000  Uiso   1.00
C618   C     0.02342   0.16618   0.83412   0.00000  Uiso   1.00
C619   C     0.45641   0.21268   0.86397   0.00000  Uiso   1.00
C620   C     0.04359   0.12065   0.80270   0.00000  Uiso   1.00
C621   C     0.46985   0.07733   0.76939   0.00000  Uiso   1.00
C622   C     0.03015   0.25600   0.89728   0.00000  Uiso   1.00
Cu623  Cu    0.25501   0.17246   0.89479   0.00000  Uiso   1.00
Cu624  Cu    0.24500   0.16087   0.77187   0.00000  Uiso   1.00
H625   H     0.39305   0.24538   0.88829   0.00000  Uiso   1.00
H626   H     0.10695   0.08796   0.77837   0.00000  Uiso   1.00
H627   H     0.38229   0.08941   0.77300   0.00000  Uiso   1.00
H628   H     0.11771   0.24392   0.89367   0.00000  Uiso   1.00
H629   H     0.44897   0.04307   0.74491   0.00000  Uiso   1.00
H630   H     0.05103   0.29027   0.92176   0.00000  Uiso   1.00
H631   H     0.24423   0.32018   0.76219   0.00000  Uiso   1.00
H632   H     0.25577   0.01315   0.90448   0.00000  Uiso   1.00
H633   H     0.21506   0.12594   0.98295   0.00000  Uiso   1.00
H634   H     0.28494   0.20739   0.68372   0.00000  Uiso   1.00
N635   N     0.23745   0.15214   0.67951   0.00000  Uiso   1.00
N636   N     0.26256   0.18119   0.98716   0.00000  Uiso   1.00
O637   O     0.25326   0.09538   0.87326   0.00000  Uiso   1.00
O638   O     0.24675   0.23796   0.79341   0.00000  Uiso   1.00
O639   O     0.24480   0.08559   0.76945   0.00000  Uiso   1.00
O640   O     0.25520   0.24774   0.89721   0.00000  Uiso   1.00
O641   O     0.18936   0.17155   0.88524   0.00000  Uiso   1.00
O642   O     0.31065   0.16179   0.78143   0.00000  Uiso   1.00
O643   O     0.18090   0.16176   0.78143   0.00000  Uiso   1.00
O644   O     0.31910   0.17157   0.88523   0.00000  Uiso   1.00
N645   N     0.03687   0.02832   0.74186   0.00000  Uiso   1.00
H646   H     0.01226   0.33285   0.71947   0.00000  Uiso   1.00
H647   H     0.05289   0.01301   0.77657   0.00000  Uiso   1.00
N648   N     0.46314   0.30501   0.92481   0.00000  Uiso   1.00
H649   H     0.48775   0.00049   0.94719   0.00000  Uiso   1.00
H650   H     0.44711   0.32032   0.89010   0.00000  Uiso   1.00
C651   C     0.74865   0.06661   0.81779   0.00000  Uiso   1.00
C652   C     0.75135   0.26673   0.84887   0.00000  Uiso   1.00
C653   C     0.51665   0.07564   0.77123   0.00000  Uiso   1.00
C654   C     0.98335   0.25769   0.89543   0.00000  Uiso   1.00
C655   C     0.74800   0.01065   0.80904   0.00000  Uiso   1.00
C656   C     0.75200   0.32269   0.85763   0.00000  Uiso   1.00
C657   C     0.66455   0.16641   0.83426   0.00000  Uiso   1.00
C658   C     0.83545   0.16692   0.83241   0.00000  Uiso   1.00
C659   C     0.90963   0.21184   0.86343   0.00000  Uiso   1.00
C660   C     0.59037   0.12149   0.80324   0.00000  Uiso   1.00
C661   C     0.88355   0.16761   0.83053   0.00000  Uiso   1.00
C662   C     0.61645   0.16572   0.83614   0.00000  Uiso   1.00
C663   C     0.90326   0.12349   0.79789   0.00000  Uiso   1.00
C664   C     0.59674   0.20984   0.86878   0.00000  Uiso   1.00
C665   C     0.94983   0.12254   0.79949   0.00000  Uiso   1.00
C666   C     0.55017   0.21079   0.86717   0.00000  Uiso   1.00
C667   C     0.97658   0.16716   0.83254   0.00000  Uiso   1.00
C668   C     0.52342   0.16618   0.83412   0.00000  Uiso   1.00
C669   C     0.95641   0.21268   0.86397   0.00000  Uiso   1.00
C670   C     0.54359   0.12065   0.80270   0.00000  Uiso   1.00
C671   C     0.96985   0.07733   0.76939   0.00000  Uiso   1.00
C672   C     0.53015   0.25600   0.89728   0.00000  Uiso   1.00
Cu673  Cu    0.75501   0.17246   0.89479   0.00000  Uiso   1.00
Cu674  Cu    0.74500   0.16087   0.77187   0.00000  Uiso   1.00
H675   H     0.89305   0.24538   0.88829   0.00000  Uiso   1.00
H676   H     0.60695   0.08796   0.77837   0.00000  Uiso   1.00
H677   H     0.88229   0.08941   0.77300   0.00000  Uiso   1.00
H678   H     0.61771   0.24392   0.89367   0.00000  Uiso   1.00
H679   H     0.94897   0.04307   0.74491   0.00000  Uiso   1.00
H680   H     0.55103   0.29027   0.92176   0.00000  Uiso   1.00
H681   H     0.74423   0.32018   0.76219   0.00000  Uiso   1.00
H682   H     0.75577   0.01315   0.90448   0.00000  Uiso   1.00
H683   H     0.71506   0.12594   0.98295   0.00000  Uiso   1.00
H684   H     0.78494   0.20739   0.68372   0.00000  Uiso   1.00
N685   N     0.73745   0.15214   0.67951   0.00000  Uiso   1.00
N686   N     0.76256   0.18119   0.98716   0.00000  Uiso   1.00
O687   O     0.75326   0.09538   0.87326   0.00000  Uiso   1.00
O688   O     0.74675   0.23796   0.79341   0.00000  Uiso   1.00
O689   O     0.74480   0.08559   0.76945   0.00000  Uiso   1.00
O690   O     0.75520   0.24774   0.89721   0.00000  Uiso   1.00
O691   O     0.68936   0.17155   0.88524   0.00000  Uiso   1.00
O692   O     0.81065   0.16179   0.78143   0.00000  Uiso   1.00
O693   O     0.68090   0.16176   0.78143   0.00000  Uiso   1.00
O694   O     0.81910   0.17157   0.88523   0.00000  Uiso   1.00
N695   N     0.53687   0.02832   0.74186   0.00000  Uiso   1.00
H696   H     0.51226   0.33285   0.71947   0.00000  Uiso   1.00
H697   H     0.55289   0.01301   0.77657   0.00000  Uiso   1.00
N698   N     0.96314   0.30501   0.92481   0.00000  Uiso   1.00
H699   H     0.98775   0.00049   0.94719   0.00000  Uiso   1.00
H700   H     0.94711   0.32032   0.89010   0.00000  Uiso   1.00
C701   C     0.24865   0.39994   0.81779   0.00000  Uiso   1.00
C702   C     0.25135   0.60006   0.84887   0.00000  Uiso   1.00
C703   C     0.01665   0.40898   0.77123   0.00000  Uiso   1.00
C704   C     0.48335   0.59102   0.89543   0.00000  Uiso   1.00
C705   C     0.24800   0.34398   0.80904   0.00000  Uiso   1.00
C706   C     0.25200   0.65602   0.85763   0.00000  Uiso   1.00
C707   C     0.16455   0.49974   0.83426   0.00000  Uiso   1.00
C708   C     0.33545   0.50026   0.83241   0.00000  Uiso   1.00
C709   C     0.40963   0.54517   0.86343   0.00000  Uiso   1.00
C710   C     0.09037   0.45483   0.80324   0.00000  Uiso   1.00
C711   C     0.38355   0.50095   0.83053   0.00000  Uiso   1.00
C712   C     0.11645   0.49905   0.83614   0.00000  Uiso   1.00
C713   C     0.40326   0.45682   0.79789   0.00000  Uiso   1.00
C714   C     0.09674   0.54318   0.86878   0.00000  Uiso   1.00
C715   C     0.44983   0.45588   0.79949   0.00000  Uiso   1.00
C716   C     0.05017   0.54412   0.86717   0.00000  Uiso   1.00
C717   C     0.47658   0.50049   0.83254   0.00000  Uiso   1.00
C718   C     0.02342   0.49951   0.83412   0.00000  Uiso   1.00
C719   C     0.45641   0.54601   0.86397   0.00000  Uiso   1.00
C720   C     0.04359   0.45399   0.80270   0.00000  Uiso   1.00
C721   C     0.46985   0.41066   0.76939   0.00000  Uiso   1.00
C722   C     0.03015   0.58934   0.89728   0.00000  Uiso   1.00
Cu723  Cu    0.25501   0.50579   0.89479   0.00000  Uiso   1.00
Cu724  Cu    0.24500   0.49421   0.77187   0.00000  Uiso   1.00
H725   H     0.39305   0.57871   0.88829   0.00000  Uiso   1.00
H726   H     0.10695   0.42129   0.77837   0.00000  Uiso   1.00
H727   H     0.38229   0.42275   0.77300   0.00000  Uiso   1.00
H728   H     0.11771   0.57725   0.89367   0.00000  Uiso   1.00
H729   H     0.44897   0.37640   0.74491   0.00000  Uiso   1.00
H730   H     0.05103   0.62360   0.92176   0.00000  Uiso   1.00
H731   H     0.24423   0.65352   0.76219   0.00000  Uiso   1.00
H732   H     0.25577   0.34648   0.90448   0.00000  Uiso   1.00
H733   H     0.21506   0.45927   0.98295   0.00000  Uiso   1.00
H734   H     0.28494   0.54072   0.68372   0.00000  Uiso   1.00
N735   N     0.23745   0.48547   0.67951   0.00000  Uiso   1.00
N736   N     0.26256   0.51453   0.98716   0.00000  Uiso   1.00
O737   O     0.25326   0.42871   0.87326   0.00000  Uiso   1.00
O738   O     0.24675   0.57129   0.79341   0.00000  Uiso   1.00
O739   O     0.24480   0.41892   0.76945   0.00000  Uiso   1.00
O740   O     0.25520   0.58108   0.89721   0.00000  Uiso   1.00
O741   O     0.18936   0.50488   0.88524   0.00000  Uiso   1.00
O742   O     0.31065   0.49512   0.78143   0.00000  Uiso   1.00
O743   O     0.18090   0.49510   0.78143   0.00000  Uiso   1.00
O744   O     0.31910   0.50490   0.88523   0.00000  Uiso   1.00
N745   N     0.03687   0.36165   0.74186   0.00000  Uiso   1.00
H746   H     0.01226   0.66618   0.71947   0.00000  Uiso   1.00
H747   H     0.05289   0.34635   0.77657   0.00000  Uiso   1.00
N748   N     0.46314   0.63835   0.92481   0.00000  Uiso   1.00
H749   H     0.48775   0.33382   0.94719   0.00000  Uiso   1.00
H750   H     0.44711   0.65365   0.89010   0.00000  Uiso   1.00
C751   C     0.74865   0.39994   0.81779   0.00000  Uiso   1.00
C752   C     0.75135   0.60006   0.84887   0.00000  Uiso   1.00
C753   C     0.51665   0.40898   0.77123   0.00000  Uiso   1.00
C754   C     0.98335   0.59102   0.89543   0.00000  Uiso   1.00
C755   C     0.74800   0.34398   0.80904   0.00000  Uiso   1.00
C756   C     0.75200   0.65602   0.85763   0.00000  Uiso   1.00
C757   C     0.66455   0.49974   0.83426   0.00000  Uiso   1.00
C758   C     0.83545   0.50026   0.83241   0.00000  Uiso   1.00
C759   C     0.90963   0.54517   0.86343   0.00000  Uiso   1.00
C760   C     0.59037   0.45483   0.80324   0.00000  Uiso   1.00
C761   C     0.88355   0.50095   0.83053   0.00000  Uiso   1.00
C762   C     0.61645   0.49905   0.83614   0.00000  Uiso   1.00
C763   C     0.90326   0.45682   0.79789   0.00000  Uiso   1.00
C764   C     0.59674   0.54318   0.86878   0.00000  Uiso   1.00
C765   C     0.94983   0.45588   0.79949   0.00000  Uiso   1.00
C766   C     0.55017   0.54412   0.86717   0.00000  Uiso   1.00
C767   C     0.97658   0.50049   0.83254   0.00000  Uiso   1.00
C768   C     0.52342   0.49951   0.83412   0.00000  Uiso   1.00
C769   C     0.95641   0.54601   0.86397   0.00000  Uiso   1.00
C770   C     0.54359   0.45399   0.80270   0.00000  Uiso   1.00
C771   C     0.96985   0.41066   0.76939   0.00000  Uiso   1.00
C772   C     0.53015   0.58934   0.89728   0.00000  Uiso   1.00
Cu773  Cu    0.75501   0.50579   0.89479   0.00000  Uiso   1.00
Cu774  Cu    0.74500   0.49421   0.77187   0.00000  Uiso   1.00
H775   H     0.89305   0.57871   0.88829   0.00000  Uiso   1.00
H776   H     0.60695   0.42129   0.77837   0.00000  Uiso   1.00
H777   H     0.88229   0.42275   0.77300   0.00000  Uiso   1.00
H778   H     0.61771   0.57725   0.89367   0.00000  Uiso   1.00
H779   H     0.94897   0.37640   0.74491   0.00000  Uiso   1.00
H780   H     0.55103   0.62360   0.92176   0.00000  Uiso   1.00
H781   H     0.74423   0.65352   0.76219   0.00000  Uiso   1.00
H782   H     0.75577   0.34648   0.90448   0.00000  Uiso   1.00
H783   H     0.71506   0.45927   0.98295   0.00000  Uiso   1.00
H784   H     0.78494   0.54072   0.68372   0.00000  Uiso   1.00
N785   N     0.73745   0.48547   0.67951   0.00000  Uiso   1.00
N786   N     0.76256   0.51453   0.98716   0.00000  Uiso   1.00
O787   O     0.75326   0.42871   0.87326   0.00000  Uiso   1.00
O788   O     0.74675   0.57129   0.79341   0.00000  Uiso   1.00
O789   O     0.74480   0.41892   0.76945   0.00000  Uiso   1.00
O790   O     0.75520   0.58108   0.89721   0.00000  Uiso   1.00
O791   O     0.68936   0.50488   0.88524   0.00000  Uiso   1.00
O792   O     0.81065   0.49512   0.78143   0.00000  Uiso   1.00
O793   O     0.68090   0.49510   0.78143   0.00000  Uiso   1.00
O794   O     0.81910   0.50490   0.88523   0.00000  Uiso   1.00
N795   N     0.53687   0.36165   0.74186   0.00000  Uiso   1.00
H796   H     0.51226   0.66618   0.71947   0.00000  Uiso   1.00
H797   H     0.55289   0.34635   0.77657   0.00000  Uiso   1.00
N798   N     0.96314   0.63835   0.92481   0.00000  Uiso   1.00
H799   H     0.98775   0.33382   0.94719   0.00000  Uiso   1.00
H800   H     0.94711   0.65365   0.89010   0.00000  Uiso   1.00
C801   C     0.24865   0.73327   0.81779   0.00000  Uiso   1.00
C802   C     0.25135   0.93339   0.84887   0.00000  Uiso   1.00
C803   C     0.01665   0.74231   0.77123   0.00000  Uiso   1.00
C804   C     0.48335   0.92436   0.89543   0.00000  Uiso   1.00
C805   C     0.24800   0.67731   0.80904   0.00000  Uiso   1.00
C806   C     0.25200   0.98935   0.85763   0.00000  Uiso   1.00
C807   C     0.16455   0.83308   0.83426   0.00000  Uiso   1.00
C808   C     0.33545   0.83359   0.83241   0.00000  Uiso   1.00
C809   C     0.40963   0.87851   0.86343   0.00000  Uiso   1.00
C810   C     0.09037   0.78816   0.80324   0.00000  Uiso   1.00
C811   C     0.38355   0.83428   0.83053   0.00000  Uiso   1.00
C812   C     0.11645   0.83239   0.83614   0.00000  Uiso   1.00
C813   C     0.40326   0.79016   0.79789   0.00000  Uiso   1.00
C814   C     0.09674   0.87651   0.86878   0.00000  Uiso   1.00
C815   C     0.44983   0.78921   0.79949   0.00000  Uiso   1.00
C816   C     0.05017   0.87746   0.86717   0.00000  Uiso   1.00
C817   C     0.47658   0.83382   0.83254   0.00000  Uiso   1.00
C818   C     0.02342   0.83284   0.83412   0.00000  Uiso   1.00
C819   C     0.45641   0.87935   0.86397   0.00000  Uiso   1.00
C820   C     0.04359   0.78732   0.80270   0.00000  Uiso   1.00
C821   C     0.46985   0.74400   0.76939   0.00000  Uiso   1.00
C822   C     0.03015   0.92267   0.89728   0.00000  Uiso   1.00
Cu823  Cu    0.25501   0.83913   0.89479   0.00000  Uiso   1.00
Cu824  Cu    0.24500   0.82754   0.77187   0.00000  Uiso   1.00
H825   H     0.39305   0.91204   0.88829   0.00000  Uiso   1.00
H826   H     0.10695   0.75462   0.77837   0.00000  Uiso   1.00
H827   H     0.38229   0.75608   0.77300   0.00000  Uiso   1.00
H828   H     0.11771   0.91059   0.89367   0.00000  Uiso   1.00
H829   H     0.44897   0.70973   0.74491   0.00000  Uiso   1.00
H830   H     0.05103   0.95693   0.92176   0.00000  Uiso   1.00
H831   H     0.24423   0.98685   0.76219   0.00000  Uiso   1.00
H832   H     0.25577   0.67982   0.90448   0.00000  Uiso   1.00
H833   H     0.21506   0.79261   0.98295   0.00000  Uiso   1.00
H834   H     0.28494   0.87406   0.68372   0.00000  Uiso   1.00
N835   N     0.23745   0.81881   0.67951   0.00000  Uiso   1.00
N836   N     0.26256   0.84786   0.98716   0.00000  Uiso   1.00
O837   O     0.25326   0.76204   0.87326   0.00000  Uiso   1.00
O838   O     0.24675   0.90462   0.79341   0.00000  Uiso   1.00
O839   O     0.24480   0.75226   0.76945   0.00000  Uiso   1.00
O840   O     0.25520   0.91441   0.89721   0.00000  Uiso   1.00
O841   O     0.18936   0.83821   0.88524   0.00000  Uiso   1.00
O842   O     0.31065   0.82845   0.78143   0.00000  Uiso   1.00
O843   O     0.18090   0.82843   0.78143   0.00000  Uiso   1.00
O844   O     0.31910   0.83824   0.88523   0.00000  Uiso   1.00
N845   N     0.03687   0.69499   0.74186   0.00000  Uiso   1.00
H846   H     0.01226   0.99952   0.71947   0.00000  Uiso   1.00
H847   H     0.05289   0.67968   0.77657   0.00000  Uiso   1.00
N848   N     0.46314   0.97168   0.92481   0.00000  Uiso   1.00
H849   H     0.48775   0.66715   0.94719   0.00000  Uiso   1.00
H850   H     0.44711   0.98699   0.89010   0.00000  Uiso   1.00
C851   C     0.74865   0.73327   0.81779   0.00000  Uiso   1.00
C852   C     0.75135   0.93339   0.84887   0.00000  Uiso   1.00
C853   C     0.51665   0.74231   0.77123   0.00000  Uiso   1.00
C854   C     0.98335   0.92436   0.89543   0.00000  Uiso   1.00
C855   C     0.74800   0.67731   0.80904   0.00000  Uiso   1.00
C856   C     0.75200   0.98935   0.85763   0.00000  Uiso   1.00
C857   C     0.66455   0.83308   0.83426   0.00000  Uiso   1.00
C858   C     0.83545   0.83359   0.83241   0.00000  Uiso   1.00
C859   C     0.90963   0.87851   0.86343   0.00000  Uiso   1.00
C860   C     0.59037   0.78816   0.80324   0.00000  Uiso   1.00
C861   C     0.88355   0.83428   0.83053   0.00000  Uiso   1.00
C862   C     0.61645   0.83239   0.83614   0.00000  Uiso   1.00
C863   C     0.90326   0.79016   0.79789   0.00000  Uiso   1.00
C864   C     0.59674   0.87651   0.86878   0.00000  Uiso   1.00
C865   C     0.94983   0.78921   0.79949   0.00000  Uiso   1.00
C866   C     0.55017   0.87746   0.86717   0.00000  Uiso   1.00
C867   C     0.97658   0.83382   0.83254   0.00000  Uiso   1.00
C868   C     0.52342   0.83284   0.83412   0.00000  Uiso   1.00
C869   C     0.95641   0.87935   0.86397   0.00000  Uiso   1.00
C870   C     0.54359   0.78732   0.80270   0.00000  Uiso   1.00
C871   C     0.96985   0.74400   0.76939   0.00000  Uiso   1.00
C872   C     0.53015   0.92267   0.89728   0.00000  Uiso   1.00
Cu873  Cu    0.75501   0.83913   0.89479   0.00000  Uiso   1.00
Cu874  Cu    0.74500   0.82754   0.77187   0.00000  Uiso   1.00
H875   H     0.89305   0.91204   0.88829   0.00000  Uiso   1.00
H876   H     0.60695   0.75462   0.77837   0.00000  Uiso   1.00
H877   H     0.88229   0.75608   0.77300   0.00000  Uiso   1.00
H878   H     0.61771   0.91059   0.89367   0.00000  Uiso   1.00
H879   H     0.94897   0.70973   0.74491   0.00000  Uiso   1.00
H880   H     0.55103   0.95693   0.92176   0.00000  Uiso   1.00
H881   H     0.74423   0.98685   0.76219   0.00000  Uiso   1.00
H882   H     0.75577   0.67982   0.90448   0.00000  Uiso   1.00
H883   H     0.71506   0.79261   0.98295   0.00000  Uiso   1.00
H884   H     0.78494   0.87406   0.68372   0.00000  Uiso   1.00
N885   N     0.73745   0.81881   0.67951   0.00000  Uiso   1.00
N886   N     0.76256   0.84786   0.98716   0.00000  Uiso   1.00
O887   O     0.75326   0.76204   0.87326   0.00000  Uiso   1.00
O888   O     0.74675   0.90462   0.79341   0.00000  Uiso   1.00
O889   O     0.74480   0.75226   0.76945   0.00000  Uiso   1.00
O890   O     0.75520   0.91441   0.89721   0.00000  Uiso   1.00
O891   O     0.68936   0.83821   0.88524   0.00000  Uiso   1.00
O892   O     0.81065   0.82845   0.78143   0.00000  Uiso   1.00
O893   O     0.68090   0.82843   0.78143   0.00000  Uiso   1.00
O894   O     0.81910   0.83824   0.88523   0.00000  Uiso   1.00
N895   N     0.53687   0.69499   0.74186   0.00000  Uiso   1.00
H896   H     0.51226   0.99952   0.71947   0.00000  Uiso   1.00
H897   H     0.55289   0.67968   0.77657   0.00000  Uiso   1.00
N898   N     0.96314   0.97168   0.92481   0.00000  Uiso   1.00
H899   H     0.98775   0.66715   0.94719   0.00000  Uiso   1.00
H900   H     0.94711   0.98699   0.89010   0.00000  Uiso   1.00
loop_
_geom_bond_atom_site_label_1
_geom_bond_atom_site_label_2
_geom_bond_distance
_geom_bond_site_symmetry_2
_ccdc_geom_bond_type
C1     O37     1.293   .     A
C1     C5      1.425   .     S
C1     O39     1.285   .     A
C2     O38     1.293   .     A
C2     C6      1.425   .     S
C2     O40     1.285   .     A
C3     C20     1.413   .     A
C3     N45     1.439   .     S
C3     C71     1.402   1_455 S
C4     N48     1.439   .     S
C4     C19     1.413   .     A
C4     C72     1.402   .     S
C5     C206    1.326   1_545 S
C5     H231    1.088   1_545 S
C6     C105    1.326   .     S
C6     H132    1.088   .     S
C7     O43     1.292   .     A
C7     O41     1.295   .     A
C7     C12     1.442   .     S
C8     O42     1.295   .     A
C8     C11     1.443   .     S
C8     O44     1.292   .     A
C9     H25     1.084   .     S
C9     C11     1.395   .     A
C9     C19     1.399   .     A
C10    H26     1.084   .     S
C10    C12     1.395   .     A
C10    C20     1.399   .     A
C11    C13     1.394   .     A
C12    C14     1.394   .     A
C13    C15     1.393   .     A
C13    H27     1.085   .     S
C14    H28     1.085   .     S
C14    C16     1.393   .     A
C15    C21     1.399   .     A
C15    C17     1.413   .     A
C16    C18     1.413   .     A
C16    C22     1.399   .     A
C17    C19     1.417   .     A
C17    C68     1.401   .     S
C18    C20     1.417   .     A
C18    C67     1.401   1_455 S
C21    H29     1.084   .     S
C21    C53     1.402   .     S
C22    H30     1.084   .     S
C22    C54     1.402   1_455 S
Cu23   Cu24    2.692   .     S
Cu23   O41     1.961   .     S
Cu23   O40     1.948   .     S
Cu23   N36     2.023   .     S
Cu23   O37     1.954   .     S
Cu23   O44     1.945   .     S
Cu24   O38     1.954   .     S
Cu24   O42     1.961   .     S
Cu24   N35     2.023   .     S
Cu24   O39     1.948   .     S
Cu24   O43     1.945   .     S
H31    C105    1.088   .     S
H32    C206    1.088   1_545 S
H33    N335    1.029   .     S
H34    N636    1.029   1_554 S
N35    H633    1.029   1_554 S
N35    N636    1.293   1_554 S
N36    N335    1.293   .     S
N36    H334    1.029   .     S
N45    H47     1.046   .     S
N45    H246    1.045   1_545 S
H46    N145    1.045   .     S
N48    H50     1.046   .     S
N48    H149    1.045   .     S
H49    N248    1.045   1_545 S
C51    O87     1.293   .     A
C51    C55     1.425   .     S
C51    O89     1.285   .     A
C52    O88     1.293   .     A
C52    C56     1.425   .     S
C52    O90     1.285   .     A
C53    C70     1.413   .     A
C53    N95     1.439   .     S
C54    N98     1.439   .     S
C54    C69     1.413   .     A
C54    C22     1.402   1_655 S
C55    C256    1.326   1_545 S
C55    H281    1.088   1_545 S
C56    C155    1.326   .     S
C56    H182    1.088   .     S
C57    O93     1.292   .     A
C57    O91     1.295   .     A
C57    C62     1.442   .     S
C58    O92     1.295   .     A
C58    C61     1.443   .     S
C58    O94     1.292   .     A
C59    H75     1.084   .     S
C59    C61     1.395   .     A
C59    C69     1.399   .     A
C60    H76     1.084   .     S
C60    C62     1.395   .     A
C60    C70     1.399   .     A
C61    C63     1.394   .     A
C62    C64     1.394   .     A
C63    C65     1.393   .     A
C63    H77     1.085   .     S
C64    H78     1.085   .     S
C64    C66     1.393   .     A
C65    C71     1.399   .     A
C65    C67     1.413   .     A
C66    C68     1.413   .     A
C66    C72     1.399   .     A
C67    C69     1.417   .     A
C67    C18     1.401   1_655 S
C68    C70     1.417   .     A
C71    H79     1.084   .     S
C71    C3      1.402   1_655 S
C72    H80     1.084   .     S
Cu73   Cu74    2.692   .     S
Cu73   O91     1.961   .     S
Cu73   O90     1.948   .     S
Cu73   N86     2.023   .     S
Cu73   O87     1.954   .     S
Cu73   O94     1.945   .     S
Cu74   O88     1.954   .     S
Cu74   O92     1.961   .     S
Cu74   N85     2.023   .     S
Cu74   O89     1.948   .     S
Cu74   O93     1.945   .     S
H81    C155    1.088   .     S
H82    C256    1.088   1_545 S
H83    N385    1.029   .     S
H84    N686    1.029   1_554 S
N85    H683    1.029   1_554 S
N85    N686    1.293   1_554 S
N86    N385    1.293   .     S
N86    H384    1.029   .     S
N95    H97     1.046   .     S
N95    H296    1.045   1_545 S
H96    N195    1.045   .     S
N98    H100    1.046   .     S
N98    H199    1.045   .     S
H99    N298    1.045   1_545 S
C101   O137    1.293   .     A
C101   C105    1.425   .     S
C101   O139    1.285   .     A
C102   O138    1.293   .     A
C102   C106    1.425   .     S
C102   O140    1.285   .     A
C103   C120    1.413   .     A
C103   N145    1.439   .     S
C103   C171    1.402   1_455 S
C104   N148    1.439   .     S
C104   C119    1.413   .     A
C104   C172    1.402   .     S
C106   C205    1.326   .     S
C106   H232    1.088   .     S
C107   O143    1.292   .     A
C107   O141    1.295   .     A
C107   C112    1.442   .     S
C108   O142    1.295   .     A
C108   C111    1.443   .     S
C108   O144    1.292   .     A
C109   H125    1.084   .     S
C109   C111    1.395   .     A
C109   C119    1.399   .     A
C110   H126    1.084   .     S
C110   C112    1.395   .     A
C110   C120    1.399   .     A
C111   C113    1.394   .     A
C112   C114    1.394   .     A
C113   C115    1.393   .     A
C113   H127    1.085   .     S
C114   H128    1.085   .     S
C114   C116    1.393   .     A
C115   C121    1.399   .     A
C115   C117    1.413   .     A
C116   C118    1.413   .     A
C116   C122    1.399   .     A
C117   C119    1.417   .     A
C117   C168    1.401   .     S
C118   C120    1.417   .     A
C118   C167    1.401   1_455 S
C121   H129    1.084   .     S
C121   C153    1.402   .     S
C122   H130    1.084   .     S
C122   C154    1.402   1_455 S
Cu123  Cu124   2.692   .     S
Cu123  O141    1.961   .     S
Cu123  O140    1.948   .     S
Cu123  N136    2.023   .     S
Cu123  O137    1.954   .     S
Cu123  O144    1.945   .     S
Cu124  O138    1.954   .     S
Cu124  O142    1.961   .     S
Cu124  N135    2.023   .     S
Cu124  O139    1.948   .     S
Cu124  O143    1.945   .     S
H131   C205    1.088   .     S
H133   N435    1.029   .     S
H134   N736    1.029   1_554 S
N135   H733    1.029   1_554 S
N135   N736    1.293   1_554 S
N136   N435    1.293   .     S
N136   H434    1.029   .     S
N145   H147    1.046   .     S
H146   N245    1.045   .     S
N148   H150    1.046   .     S
N148   H249    1.045   .     S
C151   O187    1.293   .     A
C151   C155    1.425   .     S
C151   O189    1.285   .     A
C152   O188    1.293   .     A
C152   C156    1.425   .     S
C152   O190    1.285   .     A
C153   C170    1.413   .     A
C153   N195    1.439   .     S
C154   N198    1.439   .     S
C154   C169    1.413   .     A
C154   C122    1.402   1_655 S
C156   C255    1.326   .     S
C156   H282    1.088   .     S
C157   O193    1.292   .     A
C157   O191    1.295   .     A
C157   C162    1.442   .     S
C158   O192    1.295   .     A
C158   C161    1.443   .     S
C158   O194    1.292   .     A
C159   H175    1.084   .     S
C159   C161    1.395   .     A
C159   C169    1.399   .     A
C160   H176    1.084   .     S
C160   C162    1.395   .     A
C160   C170    1.399   .     A
C161   C163    1.394   .     A
C162   C164    1.394   .     A
C163   C165    1.393   .     A
C163   H177    1.085   .     S
C164   H178    1.085   .     S
C164   C166    1.393   .     A
C165   C171    1.399   .     A
C165   C167    1.413   .     A
C166   C168    1.413   .     A
C166   C172    1.399   .     A
C167   C169    1.417   .     A
C167   C118    1.401   1_655 S
C168   C170    1.417   .     A
C171   H179    1.084   .     S
C171   C103    1.402   1_655 S
C172   H180    1.084   .     S
Cu173  Cu174   2.692   .     S
Cu173  O191    1.961   .     S
Cu173  O190    1.948   .     S
Cu173  N186    2.023   .     S
Cu173  O187    1.954   .     S
Cu173  O194    1.945   .     S
Cu174  O188    1.954   .     S
Cu174  O192    1.961   .     S
Cu174  N185    2.023   .     S
Cu174  O189    1.948   .     S
Cu174  O193    1.945   .     S
H181   C255    1.088   .     S
H183   N485    1.029   .     S
H184   N786    1.029   1_554 S
N185   H783    1.029   1_554 S
N185   N786    1.293   1_554 S
N186   N485    1.293   .     S
N186   H484    1.029   .     S
N195   H197    1.046   .     S
H196   N295    1.045   .     S
N198   H200    1.046   .     S
N198   H299    1.045   .     S
C201   O237    1.293   .     A
C201   C205    1.425   .     S
C201   O239    1.285   .     A
C202   O238    1.293   .     A
C202   C206    1.425   .     S
C202   O240    1.285   .     A
C203   C220    1.413   .     A
C203   N245    1.439   .     S
C203   C271    1.402   1_455 S
C204   N248    1.439   .     S
C204   C219    1.413   .     A
C204   C272    1.402   .     S
C206   C5      1.326   1_565 S
C206   H32     1.088   1_565 S
C207   O243    1.292   .     A
C207   O241    1.295   .     A
C207   C212    1.442   .     S
C208   O242    1.295   .     A
C208   C211    1.443   .     S
C208   O244    1.292   .     A
C209   H225    1.084   .     S
C209   C211    1.395   .     A
C209   C219    1.399   .     A
C210   H226    1.084   .     S
C210   C212    1.395   .     A
C210   C220    1.399   .     A
C211   C213    1.394   .     A
C212   C214    1.394   .     A
C213   C215    1.393   .     A
C213   H227    1.085   .     S
C214   H228    1.085   .     S
C214   C216    1.393   .     A
C215   C221    1.399   .     A
C215   C217    1.413   .     A
C216   C218    1.413   .     A
C216   C222    1.399   .     A
C217   C219    1.417   .     A
C217   C268    1.401   .     S
C218   C220    1.417   .     A
C218   C267    1.401   1_455 S
C221   H229    1.084   .     S
C221   C253    1.402   .     S
C222   H230    1.084   .     S
C222   C254    1.402   1_455 S
Cu223  Cu224   2.692   .     S
Cu223  O241    1.961   .     S
Cu223  O240    1.948   .     S
Cu223  N236    2.023   .     S
Cu223  O237    1.954   .     S
Cu223  O244    1.945   .     S
Cu224  O238    1.954   .     S
Cu224  O242    1.961   .     S
Cu224  N235    2.023   .     S
Cu224  O239    1.948   .     S
Cu224  O243    1.945   .     S
H231   C5      1.088   1_565 S
H233   N535    1.029   .     S
H234   N836    1.029   1_554 S
N235   H833    1.029   1_554 S
N235   N836    1.293   1_554 S
N236   N535    1.293   .     S
N236   H534    1.029   .     S
N245   H247    1.046   .     S
H246   N45     1.045   1_565 S
N248   H250    1.046   .     S
N248   H49     1.045   1_565 S
C251   O287    1.293   .     A
C251   C255    1.425   .     S
C251   O289    1.285   .     A
C252   O288    1.293   .     A
C252   C256    1.425   .     S
C252   O290    1.285   .     A
C253   C270    1.413   .     A
C253   N295    1.439   .     S
C254   N298    1.439   .     S
C254   C269    1.413   .     A
C254   C222    1.402   1_655 S
C256   C55     1.326   1_565 S
C256   H82     1.088   1_565 S
C257   O293    1.292   .     A
C257   O291    1.295   .     A
C257   C262    1.442   .     S
C258   O292    1.295   .     A
C258   C261    1.443   .     S
C258   O294    1.292   .     A
C259   H275    1.084   .     S
C259   C261    1.395   .     A
C259   C269    1.399   .     A
C260   H276    1.084   .     S
C260   C262    1.395   .     A
C260   C270    1.399   .     A
C261   C263    1.394   .     A
C262   C264    1.394   .     A
C263   C265    1.393   .     A
C263   H277    1.085   .     S
C264   H278    1.085   .     S
C264   C266    1.393   .     A
C265   C271    1.399   .     A
C265   C267    1.413   .     A
C266   C268    1.413   .     A
C266   C272    1.399   .     A
C267   C269    1.417   .     A
C267   C218    1.401   1_655 S
C268   C270    1.417   .     A
C271   H279    1.084   .     S
C271   C203    1.402   1_655 S
C272   H280    1.084   .     S
Cu273  Cu274   2.692   .     S
Cu273  O291    1.961   .     S
Cu273  O290    1.948   .     S
Cu273  N286    2.023   .     S
Cu273  O287    1.954   .     S
Cu273  O294    1.945   .     S
Cu274  O288    1.954   .     S
Cu274  O292    1.961   .     S
Cu274  N285    2.023   .     S
Cu274  O289    1.948   .     S
Cu274  O293    1.945   .     S
H281   C55     1.088   1_565 S
H283   N585    1.029   .     S
H284   N886    1.029   1_554 S
N285   H883    1.029   1_554 S
N285   N886    1.293   1_554 S
N286   N585    1.293   .     S
N286   H584    1.029   .     S
N295   H297    1.046   .     S
H296   N95     1.045   1_565 S
N298   H300    1.046   .     S
N298   H99     1.045   1_565 S
C301   O337    1.293   .     A
C301   C305    1.425   .     S
C301   O339    1.285   .     A
C302   O338    1.293   .     A
C302   C306    1.425   .     S
C302   O340    1.285   .     A
C303   C320    1.413   .     A
C303   N345    1.439   .     S
C303   C371    1.402   1_455 S
C304   N348    1.439   .     S
C304   C319    1.413   .     A
C304   C372    1.402   .     S
C305   C506    1.326   1_545 S
C305   H531    1.088   1_545 S
C306   C405    1.326   .     S
C306   H432    1.088   .     S
C307   O343    1.292   .     A
C307   O341    1.295   .     A
C307   C312    1.442   .     S
C308   O342    1.295   .     A
C308   C311    1.443   .     S
C308   O344    1.292   .     A
C309   H325    1.084   .     S
C309   C311    1.395   .     A
C309   C319    1.399   .     A
C310   H326    1.084   .     S
C310   C312    1.395   .     A
C310   C320    1.399   .     A
C311   C313    1.394   .     A
C312   C314    1.394   .     A
C313   C315    1.393   .     A
C313   H327    1.085   .     S
C314   H328    1.085   .     S
C314   C316    1.393   .     A
C315   C321    1.399   .     A
C315   C317    1.413   .     A
C316   C318    1.413   .     A
C316   C322    1.399   .     A
C317   C319    1.417   .     A
C317   C368    1.401   .     S
C318   C320    1.417   .     A
C318   C367    1.401   1_455 S
C321   H329    1.084   .     S
C321   C353    1.402   .     S
C322   H330    1.084   .     S
C322   C354    1.402   1_455 S
Cu323  Cu324   2.692   .     S
Cu323  O341    1.961   .     S
Cu323  O340    1.948   .     S
Cu323  N336    2.023   .     S
Cu323  O337    1.954   .     S
Cu323  O344    1.945   .     S
Cu324  O338    1.954   .     S
Cu324  O342    1.961   .     S
Cu324  N335    2.023   .     S
Cu324  O339    1.948   .     S
Cu324  O343    1.945   .     S
H331   C405    1.088   .     S
H332   C506    1.088   1_545 S
H333   N635    1.029   .     S
N336   N635    1.293   .     S
N336   H634    1.029   .     S
N345   H347    1.046   .     S
N345   H546    1.045   1_545 S
H346   N445    1.045   .     S
N348   H350    1.046   .     S
N348   H449    1.045   .     S
H349   N548    1.045   1_545 S
C351   O387    1.293   .     A
C351   C355    1.425   .     S
C351   O389    1.285   .     A
C352   O388    1.293   .     A
C352   C356    1.425   .     S
C352   O390    1.285   .     A
C353   C370    1.413   .     A
C353   N395    1.439   .     S
C354   N398    1.439   .     S
C354   C369    1.413   .     A
C354   C322    1.402   1_655 S
C355   C556    1.326   1_545 S
C355   H581    1.088   1_545 S
C356   C455    1.326   .     S
C356   H482    1.088   .     S
C357   O393    1.292   .     A
C357   O391    1.295   .     A
C357   C362    1.442   .     S
C358   O392    1.295   .     A
C358   C361    1.443   .     S
C358   O394    1.292   .     A
C359   H375    1.084   .     S
C359   C361    1.395   .     A
C359   C369    1.399   .     A
C360   H376    1.084   .     S
C360   C362    1.395   .     A
C360   C370    1.399   .     A
C361   C363    1.394   .     A
C362   C364    1.394   .     A
C363   C365    1.393   .     A
C363   H377    1.085   .     S
C364   H378    1.085   .     S
C364   C366    1.393   .     A
C365   C371    1.399   .     A
C365   C367    1.413   .     A
C366   C368    1.413   .     A
C366   C372    1.399   .     A
C367   C369    1.417   .     A
C367   C318    1.401   1_655 S
C368   C370    1.417   .     A
C371   H379    1.084   .     S
C371   C303    1.402   1_655 S
C372   H380    1.084   .     S
Cu373  Cu374   2.692   .     S
Cu373  O391    1.961   .     S
Cu373  O390    1.948   .     S
Cu373  N386    2.023   .     S
Cu373  O387    1.954   .     S
Cu373  O394    1.945   .     S
Cu374  O388    1.954   .     S
Cu374  O392    1.961   .     S
Cu374  N385    2.023   .     S
Cu374  O389    1.948   .     S
Cu374  O393    1.945   .     S
H381   C455    1.088   .     S
H382   C556    1.088   1_545 S
H383   N685    1.029   .     S
N386   N685    1.293   .     S
N386   H684    1.029   .     S
N395   H397    1.046   .     S
N395   H596    1.045   1_545 S
H396   N495    1.045   .     S
N398   H400    1.046   .     S
N398   H499    1.045   .     S
H399   N598    1.045   1_545 S
C401   O437    1.293   .     A
C401   C405    1.425   .     S
C401   O439    1.285   .     A
C402   O438    1.293   .     A
C402   C406    1.425   .     S
C402   O440    1.285   .     A
C403   C420    1.413   .     A
C403   N445    1.439   .     S
C403   C471    1.402   1_455 S
C404   N448    1.439   .     S
C404   C419    1.413   .     A
C404   C472    1.402   .     S
C406   C505    1.326   .     S
C406   H532    1.088   .     S
C407   O443    1.292   .     A
C407   O441    1.295   .     A
C407   C412    1.442   .     S
C408   O442    1.295   .     A
C408   C411    1.443   .     S
C408   O444    1.292   .     A
C409   H425    1.084   .     S
C409   C411    1.395   .     A
C409   C419    1.399   .     A
C410   H426    1.084   .     S
C410   C412    1.395   .     A
C410   C420    1.399   .     A
C411   C413    1.394   .     A
C412   C414    1.394   .     A
C413   C415    1.393   .     A
C413   H427    1.085   .     S
C414   H428    1.085   .     S
C414   C416    1.393   .     A
C415   C421    1.399   .     A
C415   C417    1.413   .     A
C416   C418    1.413   .     A
C416   C422    1.399   .     A
C417   C419    1.417   .     A
C417   C468    1.401   .     S
C418   C420    1.417   .     A
C418   C467    1.401   1_455 S
C421   H429    1.084   .     S
C421   C453    1.402   .     S
C422   H430    1.084   .     S
C422   C454    1.402   1_455 S
Cu423  Cu424   2.692   .     S
Cu423  O441    1.961   .     S
Cu423  O440    1.948   .     S
Cu423  N436    2.023   .     S
Cu423  O437    1.954   .     S
Cu423  O444    1.945   .     S
Cu424  O438    1.954   .     S
Cu424  O442    1.961   .     S
Cu424  N435    2.023   .     S
Cu424  O439    1.948   .     S
Cu424  O443    1.945   .     S
H431   C505    1.088   .     S
H433   N735    1.029   .     S
N436   N735    1.293   .     S
N436   H734    1.029   .     S
N445   H447    1.046   .     S
H446   N545    1.045   .     S
N448   H450    1.046   .     S
N448   H549    1.045   .     S
C451   O487    1.293   .     A
C451   C455    1.425   .     S
C451   O489    1.285   .     A
C452   O488    1.293   .     A
C452   C456    1.425   .     S
C452   O490    1.285   .     A
C453   C470    1.413   .     A
C453   N495    1.439   .     S
C454   N498    1.439   .     S
C454   C469    1.413   .     A
C454   C422    1.402   1_655 S
C456   C555    1.326   .     S
C456   H582    1.088   .     S
C457   O493    1.292   .     A
C457   O491    1.295   .     A
C457   C462    1.442   .     S
C458   O492    1.295   .     A
C458   C461    1.443   .     S
C458   O494    1.292   .     A
C459   H475    1.084   .     S
C459   C461    1.395   .     A
C459   C469    1.399   .     A
C460   H476    1.084   .     S
C460   C462    1.395   .     A
C460   C470    1.399   .     A
C461   C463    1.394   .     A
C462   C464    1.394   .     A
C463   C465    1.393   .     A
C463   H477    1.085   .     S
C464   H478    1.085   .     S
C464   C466    1.393   .     A
C465   C471    1.399   .     A
C465   C467    1.413   .     A
C466   C468    1.413   .     A
C466   C472    1.399   .     A
C467   C469    1.417   .     A
C467   C418    1.401   1_655 S
C468   C470    1.417   .     A
C471   H479    1.084   .     S
C471   C403    1.402   1_655 S
C472   H480    1.084   .     S
Cu473  Cu474   2.692   .     S
Cu473  O491    1.961   .     S
Cu473  O490    1.948   .     S
Cu473  N486    2.023   .     S
Cu473  O487    1.954   .     S
Cu473  O494    1.945   .     S
Cu474  O488    1.954   .     S
Cu474  O492    1.961   .     S
Cu474  N485    2.023   .     S
Cu474  O489    1.948   .     S
Cu474  O493    1.945   .     S
H481   C555    1.088   .     S
H483   N785    1.029   .     S
N486   N785    1.293   .     S
N486   H784    1.029   .     S
N495   H497    1.046   .     S
H496   N595    1.045   .     S
N498   H500    1.046   .     S
N498   H599    1.045   .     S
C501   O537    1.293   .     A
C501   C505    1.425   .     S
C501   O539    1.285   .     A
C502   O538    1.293   .     A
C502   C506    1.425   .     S
C502   O540    1.285   .     A
C503   C520    1.413   .     A
C503   N545    1.439   .     S
C503   C571    1.402   1_455 S
C504   N548    1.439   .     S
C504   C519    1.413   .     A
C504   C572    1.402   .     S
C506   C305    1.326   1_565 S
C506   H332    1.088   1_565 S
C507   O543    1.292   .     A
C507   O541    1.295   .     A
C507   C512    1.442   .     S
C508   O542    1.295   .     A
C508   C511    1.443   .     S
C508   O544    1.292   .     A
C509   H525    1.084   .     S
C509   C511    1.395   .     A
C509   C519    1.399   .     A
C510   H526    1.084   .     S
C510   C512    1.395   .     A
C510   C520    1.399   .     A
C511   C513    1.394   .     A
C512   C514    1.394   .     A
C513   C515    1.393   .     A
C513   H527    1.085   .     S
C514   H528    1.085   .     S
C514   C516    1.393   .     A
C515   C521    1.399   .     A
C515   C517    1.413   .     A
C516   C518    1.413   .     A
C516   C522    1.399   .     A
C517   C519    1.417   .     A
C517   C568    1.401   .     S
C518   C520    1.417   .     A
C518   C567    1.401   1_455 S
C521   H529    1.084   .     S
C521   C553    1.402   .     S
C522   H530    1.084   .     S
C522   C554    1.402   1_455 S
Cu523  Cu524   2.692   .     S
Cu523  O541    1.961   .     S
Cu523  O540    1.948   .     S
Cu523  N536    2.023   .     S
Cu523  O537    1.954   .     S
Cu523  O544    1.945   .     S
Cu524  O538    1.954   .     S
Cu524  O542    1.961   .     S
Cu524  N535    2.023   .     S
Cu524  O539    1.948   .     S
Cu524  O543    1.945   .     S
H531   C305    1.088   1_565 S
H533   N835    1.029   .     S
N536   N835    1.293   .     S
N536   H834    1.029   .     S
N545   H547    1.046   .     S
H546   N345    1.045   1_565 S
N548   H550    1.046   .     S
N548   H349    1.045   1_565 S
C551   O587    1.293   .     A
C551   C555    1.425   .     S
C551   O589    1.285   .     A
C552   O588    1.293   .     A
C552   C556    1.425   .     S
C552   O590    1.285   .     A
C553   C570    1.413   .     A
C553   N595    1.439   .     S
C554   N598    1.439   .     S
C554   C569    1.413   .     A
C554   C522    1.402   1_655 S
C556   C355    1.326   1_565 S
C556   H382    1.088   1_565 S
C557   O593    1.292   .     A
C557   O591    1.295   .     A
C557   C562    1.442   .     S
C558   O592    1.295   .     A
C558   C561    1.443   .     S
C558   O594    1.292   .     A
C559   H575    1.084   .     S
C559   C561    1.395   .     A
C559   C569    1.399   .     A
C560   H576    1.084   .     S
C560   C562    1.395   .     A
C560   C570    1.399   .     A
C561   C563    1.394   .     A
C562   C564    1.394   .     A
C563   C565    1.393   .     A
C563   H577    1.085   .     S
C564   H578    1.085   .     S
C564   C566    1.393   .     A
C565   C571    1.399   .     A
C565   C567    1.413   .     A
C566   C568    1.413   .     A
C566   C572    1.399   .     A
C567   C569    1.417   .     A
C567   C518    1.401   1_655 S
C568   C570    1.417   .     A
C571   H579    1.084   .     S
C571   C503    1.402   1_655 S
C572   H580    1.084   .     S
Cu573  Cu574   2.692   .     S
Cu573  O591    1.961   .     S
Cu573  O590    1.948   .     S
Cu573  N586    2.023   .     S
Cu573  O587    1.954   .     S
Cu573  O594    1.945   .     S
Cu574  O588    1.954   .     S
Cu574  O592    1.961   .     S
Cu574  N585    2.023   .     S
Cu574  O589    1.948   .     S
Cu574  O593    1.945   .     S
H581   C355    1.088   1_565 S
H583   N885    1.029   .     S
N586   N885    1.293   .     S
N586   H884    1.029   .     S
N595   H597    1.046   .     S
H596   N395    1.045   1_565 S
N598   H600    1.046   .     S
N598   H399    1.045   1_565 S
C601   O637    1.293   .     A
C601   C605    1.425   .     S
C601   O639    1.285   .     A
C602   O638    1.293   .     A
C602   C606    1.425   .     S
C602   O640    1.285   .     A
C603   C620    1.413   .     A
C603   N645    1.439   .     S
C603   C671    1.402   1_455 S
C604   N648    1.439   .     S
C604   C619    1.413   .     A
C604   C672    1.402   .     S
C605   C806    1.326   1_545 S
C605   H831    1.088   1_545 S
C606   C705    1.326   .     S
C606   H732    1.088   .     S
C607   O643    1.292   .     A
C607   O641    1.295   .     A
C607   C612    1.442   .     S
C608   O642    1.295   .     A
C608   C611    1.443   .     S
C608   O644    1.292   .     A
C609   H625    1.084   .     S
C609   C611    1.395   .     A
C609   C619    1.399   .     A
C610   H626    1.084   .     S
C610   C612    1.395   .     A
C610   C620    1.399   .     A
C611   C613    1.394   .     A
C612   C614    1.394   .     A
C613   C615    1.393   .     A
C613   H627    1.085   .     S
C614   H628    1.085   .     S
C614   C616    1.393   .     A
C615   C621    1.399   .     A
C615   C617    1.413   .     A
C616   C618    1.413   .     A
C616   C622    1.399   .     A
C617   C619    1.417   .     A
C617   C668    1.401   .     S
C618   C620    1.417   .     A
C618   C667    1.401   1_455 S
C621   H629    1.084   .     S
C621   C653    1.402   .     S
C622   H630    1.084   .     S
C622   C654    1.402   1_455 S
Cu623  Cu624   2.692   .     S
Cu623  O641    1.961   .     S
Cu623  O640    1.948   .     S
Cu623  N636    2.023   .     S
Cu623  O637    1.954   .     S
Cu623  O644    1.945   .     S
Cu624  O638    1.954   .     S
Cu624  O642    1.961   .     S
Cu624  N635    2.023   .     S
Cu624  O639    1.948   .     S
Cu624  O643    1.945   .     S
H631   C705    1.088   .     S
H632   C806    1.088   1_545 S
H633   N35     1.029   1_556 S
N636   N35     1.293   1_556 S
N636   H34     1.029   1_556 S
N645   H647    1.046   .     S
N645   H846    1.045   1_545 S
H646   N745    1.045   .     S
N648   H650    1.046   .     S
N648   H749    1.045   .     S
H649   N848    1.045   1_545 S
C651   O687    1.293   .     A
C651   C655    1.425   .     S
C651   O689    1.285   .     A
C652   O688    1.293   .     A
C652   C656    1.425   .     S
C652   O690    1.285   .     A
C653   C670    1.413   .     A
C653   N695    1.439   .     S
C654   N698    1.439   .     S
C654   C669    1.413   .     A
C654   C622    1.402   1_655 S
C655   C856    1.326   1_545 S
C655   H881    1.088   1_545 S
C656   C755    1.326   .     S
C656   H782    1.088   .     S
C657   O693    1.292   .     A
C657   O691    1.295   .     A
C657   C662    1.442   .     S
C658   O692    1.295   .     A
C658   C661    1.443   .     S
C658   O694    1.292   .     A
C659   H675    1.084   .     S
C659   C661    1.395   .     A
C659   C669    1.399   .     A
C660   H676    1.084   .     S
C660   C662    1.395   .     A
C660   C670    1.399   .     A
C661   C663    1.394   .     A
C662   C664    1.394   .     A
C663   C665    1.393   .     A
C663   H677    1.085   .     S
C664   H678    1.085   .     S
C664   C666    1.393   .     A
C665   C671    1.399   .     A
C665   C667    1.413   .     A
C666   C668    1.413   .     A
C666   C672    1.399   .     A
C667   C669    1.417   .     A
C667   C618    1.401   1_655 S
C668   C670    1.417   .     A
C671   H679    1.084   .     S
C671   C603    1.402   1_655 S
C672   H680    1.084   .     S
Cu673  Cu674   2.692   .     S
Cu673  O691    1.961   .     S
Cu673  O690    1.948   .     S
Cu673  N686    2.023   .     S
Cu673  O687    1.954   .     S
Cu673  O694    1.945   .     S
Cu674  O688    1.954   .     S
Cu674  O692    1.961   .     S
Cu674  N685    2.023   .     S
Cu674  O689    1.948   .     S
Cu674  O693    1.945   .     S
H681   C755    1.088   .     S
H682   C856    1.088   1_545 S
H683   N85     1.029   1_556 S
N686   N85     1.293   1_556 S
N686   H84     1.029   1_556 S
N695   H697    1.046   .     S
N695   H896    1.045   1_545 S
H696   N795    1.045   .     S
N698   H700    1.046   .     S
N698   H799    1.045   .     S
H699   N898    1.045   1_545 S
C701   O737    1.293   .     A
C701   C705    1.425   .     S
C701   O739    1.285   .     A
C702   O738    1.293   .     A
C702   C706    1.425   .     S
C702   O740    1.285   .     A
C703   C720    1.413   .     A
C703   N745    1.439   .     S
C703   C771    1.402   1_455 S
C704   N748    1.439   .     S
C704   C719    1.413   .     A
C704   C772    1.402   .     S
C706   C805    1.326   .     S
C706   H832    1.088   .     S
C707   O743    1.292   .     A
C707   O741    1.295   .     A
C707   C712    1.442   .     S
C708   O742    1.295   .     A
C708   C711    1.443   .     S
C708   O744    1.292   .     A
C709   H725    1.084   .     S
C709   C711    1.395   .     A
C709   C719    1.399   .     A
C710   H726    1.084   .     S
C710   C712    1.395   .     A
C710   C720    1.399   .     A
C711   C713    1.394   .     A
C712   C714    1.394   .     A
C713   C715    1.393   .     A
C713   H727    1.085   .     S
C714   H728    1.085   .     S
C714   C716    1.393   .     A
C715   C721    1.399   .     A
C715   C717    1.413   .     A
C716   C718    1.413   .     A
C716   C722    1.399   .     A
C717   C719    1.417   .     A
C717   C768    1.401   .     S
C718   C720    1.417   .     A
C718   C767    1.401   1_455 S
C721   H729    1.084   .     S
C721   C753    1.402   .     S
C722   H730    1.084   .     S
C722   C754    1.402   1_455 S
Cu723  Cu724   2.692   .     S
Cu723  O741    1.961   .     S
Cu723  O740    1.948   .     S
Cu723  N736    2.023   .     S
Cu723  O737    1.954   .     S
Cu723  O744    1.945   .     S
Cu724  O738    1.954   .     S
Cu724  O742    1.961   .     S
Cu724  N735    2.023   .     S
Cu724  O739    1.948   .     S
Cu724  O743    1.945   .     S
H731   C805    1.088   .     S
H733   N135    1.029   1_556 S
N736   N135    1.293   1_556 S
N736   H134    1.029   1_556 S
N745   H747    1.046   .     S
H746   N845    1.045   .     S
N748   H750    1.046   .     S
N748   H849    1.045   .     S
C751   O787    1.293   .     A
C751   C755    1.425   .     S
C751   O789    1.285   .     A
C752   O788    1.293   .     A
C752   C756    1.425   .     S
C752   O790    1.285   .     A
C753   C770    1.413   .     A
C753   N795    1.439   .     S
C754   N798    1.439   .     S
C754   C769    1.413   .     A
C754   C722    1.402   1_655 S
C756   C855    1.326   .     S
C756   H882    1.088   .     S
C757   O793    1.292   .     A
C757   O791    1.295   .     A
C757   C762    1.442   .     S
C758   O792    1.295   .     A
C758   C761    1.443   .     S
C758   O794    1.292   .     A
C759   H775    1.084   .     S
C759   C761    1.395   .     A
C759   C769    1.399   .     A
C760   H776    1.084   .     S
C760   C762    1.395   .     A
C760   C770    1.399   .     A
C761   C763    1.394   .     A
C762   C764    1.394   .     A
C763   C765    1.393   .     A
C763   H777    1.085   .     S
C764   H778    1.085   .     S
C764   C766    1.393   .     A
C765   C771    1.399   .     A
C765   C767    1.413   .     A
C766   C768    1.413   .     A
C766   C772    1.399   .     A
C767   C769    1.417   .     A
C767   C718    1.401   1_655 S
C768   C770    1.417   .     A
C771   H779    1.084   .     S
C771   C703    1.402   1_655 S
C772   H780    1.084   .     S
Cu773  Cu774   2.692   .     S
Cu773  O791    1.961   .     S
Cu773  O790    1.948   .     S
Cu773  N786    2.023   .     S
Cu773  O787    1.954   .     S
Cu773  O794    1.945   .     S
Cu774  O788    1.954   .     S
Cu774  O792    1.961   .     S
Cu774  N785    2.023   .     S
Cu774  O789    1.948   .     S
Cu774  O793    1.945   .     S
H781   C855    1.088   .     S
H783   N185    1.029   1_556 S
N786   N185    1.293   1_556 S
N786   H184    1.029   1_556 S
N795   H797    1.046   .     S
H796   N895    1.045   .     S
N798   H800    1.046   .     S
N798   H899    1.045   .     S
C801   O837    1.293   .     A
C801   C805    1.425   .     S
C801   O839    1.285   .     A
C802   O838    1.293   .     A
C802   C806    1.425   .     S
C802   O840    1.285   .     A
C803   C820    1.413   .     A
C803   N845    1.439   .     S
C803   C871    1.402   1_455 S
C804   N848    1.439   .     S
C804   C819    1.413   .     A
C804   C872    1.402   .     S
C806   C605    1.326   1_565 S
C806   H632    1.088   1_565 S
C807   O843    1.292   .     A
C807   O841    1.295   .     A
C807   C812    1.442   .     S
C808   O842    1.295   .     A
C808   C811    1.443   .     S
C808   O844    1.292   .     A
C809   H825    1.084   .     S
C809   C811    1.395   .     A
C809   C819    1.399   .     A
C810   H826    1.084   .     S
C810   C812    1.395   .     A
C810   C820    1.399   .     A
C811   C813    1.394   .     A
C812   C814    1.394   .     A
C813   C815    1.393   .     A
C813   H827    1.085   .     S
C814   H828    1.085   .     S
C814   C816    1.393   .     A
C815   C821    1.399   .     A
C815   C817    1.413   .     A
C816   C818    1.413   .     A
C816   C822    1.399   .     A
C817   C819    1.417   .     A
C817   C868    1.401   .     S
C818   C820    1.417   .     A
C818   C867    1.401   1_455 S
C821   H829    1.084   .     S
C821   C853    1.402   .     S
C822   H830    1.084   .     S
C822   C854    1.402   1_455 S
Cu823  Cu824   2.692   .     S
Cu823  O841    1.961   .     S
Cu823  O840    1.948   .     S
Cu823  N836    2.023   .     S
Cu823  O837    1.954   .     S
Cu823  O844    1.945   .     S
Cu824  O838    1.954   .     S
Cu824  O842    1.961   .     S
Cu824  N835    2.023   .     S
Cu824  O839    1.948   .     S
Cu824  O843    1.945   .     S
H831   C605    1.088   1_565 S
H833   N235    1.029   1_556 S
N836   N235    1.293   1_556 S
N836   H234    1.029   1_556 S
N845   H847    1.046   .     S
H846   N645    1.045   1_565 S
N848   H850    1.046   .     S
N848   H649    1.045   1_565 S
C851   O887    1.293   .     A
C851   C855    1.425   .     S
C851   O889    1.285   .     A
C852   O888    1.293   .     A
C852   C856    1.425   .     S
C852   O890    1.285   .     A
C853   C870    1.413   .     A
C853   N895    1.439   .     S
C854   N898    1.439   .     S
C854   C869    1.413   .     A
C854   C822    1.402   1_655 S
C856   C655    1.326   1_565 S
C856   H682    1.088   1_565 S
C857   O893    1.292   .     A
C857   O891    1.295   .     A
C857   C862    1.442   .     S
C858   O892    1.295   .     A
C858   C861    1.443   .     S
C858   O894    1.292   .     A
C859   H875    1.084   .     S
C859   C861    1.395   .     A
C859   C869    1.399   .     A
C860   H876    1.084   .     S
C860   C862    1.395   .     A
C860   C870    1.399   .     A
C861   C863    1.394   .     A
C862   C864    1.394   .     A
C863   C865    1.393   .     A
C863   H877    1.085   .     S
C864   H878    1.085   .     S
C864   C866    1.393   .     A
C865   C871    1.399   .     A
C865   C867    1.413   .     A
C866   C868    1.413   .     A
C866   C872    1.399   .     A
C867   C869    1.417   .     A
C867   C818    1.401   1_655 S
C868   C870    1.417   .     A
C871   H879    1.084   .     S
C871   C803    1.402   1_655 S
C872   H880    1.084   .     S
Cu873  Cu874   2.692   .     S
Cu873  O891    1.961   .     S
Cu873  O890    1.948   .     S
Cu873  N886    2.023   .     S
Cu873  O887    1.954   .     S
Cu873  O894    1.945   .     S
Cu874  O888    1.954   .     S
Cu874  O892    1.961   .     S
Cu874  N885    2.023   .     S
Cu874  O889    1.948   .     S
Cu874  O893    1.945   .     S
H881   C655    1.088   1_565 S
H883   N285    1.029   1_556 S
N886   N285    1.293   1_556 S
N886   H284    1.029   1_556 S
N895   H897    1.046   .     S
H896   N695    1.045   1_565 S
N898   H900    1.046   .     S
N898   H699    1.045   1_565 S
