data_str_m2_o1_o18_pcu_sym.46
_audit_creation_date              2020-01-03
_audit_creation_method            'Materials Studio'
_symmetry_space_group_name_H-M    'P1'
_symmetry_Int_Tables_number       1
_symmetry_cell_setting            triclinic
loop_
_symmetry_equiv_pos_as_xyz
  x,y,z
_cell_length_a                    28.6039
_cell_length_b                    32.5228
_cell_length_c                    31.0957
_cell_angle_alpha                 89.7699
_cell_angle_beta                  74.3411
_cell_angle_gamma                 89.9755
loop_
_atom_site_label
_atom_site_type_symbol
_atom_site_fract_x
_atom_site_fract_y
_atom_site_fract_z
_atom_site_U_iso_or_equiv
_atom_site_adp_type
_atom_site_occupancy
C1     C     0.00047   0.08744   0.24876   0.00000  Uiso   1.00
C2     C     0.04450   0.02039   0.23179   0.00000  Uiso   1.00
C3     C     0.33234   0.29054   0.25203   0.00000  Uiso   1.00
C4     C     0.00099   0.04279   0.24797   0.00000  Uiso   1.00
C5     C     0.18262   0.14244   0.27938   0.00000  Uiso   1.00
C6     C     0.15071   0.19089   0.22062   0.00000  Uiso   1.00
C7     C     0.13302   0.14267   0.27929   0.00000  Uiso   1.00
C8     C     0.20031   0.19066   0.22071   0.00000  Uiso   1.00
C9     C     0.30606   0.16603   0.33595   0.00000  Uiso   1.00
C10    C     0.02727   0.16730   0.16405   0.00000  Uiso   1.00
C11    C     0.29089   0.16301   0.38479   0.00000  Uiso   1.00
C12    C     0.33286   0.24590   0.25124   0.00000  Uiso   1.00
C13    C     0.04245   0.17033   0.11521   0.00000  Uiso   1.00
C14    C     0.30717   0.14661   0.45512   0.00000  Uiso   1.00
C15    C     0.02616   0.18673   0.04488   0.00000  Uiso   1.00
C16    C     0.32359   0.15188   0.40906   0.00000  Uiso   1.00
C17    C     0.00974   0.18146   0.09094   0.00000  Uiso   1.00
C18    C     0.24196   0.16908   0.40691   0.00000  Uiso   1.00
C19    C     0.09138   0.16426   0.09309   0.00000  Uiso   1.00
C20    C     0.22425   0.16371   0.45331   0.00000  Uiso   1.00
C21    C     0.10909   0.16963   0.04669   0.00000  Uiso   1.00
C22    C     0.25806   0.15281   0.47740   0.00000  Uiso   1.00
C23    C     0.19466   0.15507   0.04640   0.00000  Uiso   1.00
C24    C     0.07527   0.18052   0.02260   0.00000  Uiso   1.00
C25    C     0.17419   0.16889   0.47632   0.00000  Uiso   1.00
C26    C     0.15914   0.16444   0.02368   0.00000  Uiso   1.00
C27    C     0.24170   0.29340   0.29017   0.00000  Uiso   1.00
C28    C     0.20393   0.29355   0.26921   0.00000  Uiso   1.00
C29    C     0.15907   0.27582   0.29052   0.00000  Uiso   1.00
C30    C     0.15157   0.25822   0.33291   0.00000  Uiso   1.00
C31    C     0.18887   0.25847   0.35412   0.00000  Uiso   1.00
C32    C     0.23396   0.27569   0.33275   0.00000  Uiso   1.00
C33    C     0.09163   0.03994   0.20983   0.00000  Uiso   1.00
C34    C     0.13867   0.17827   0.45360   0.00000  Uiso   1.00
C35    C     0.09938   0.05765   0.16725   0.00000  Uiso   1.00
C36    C     0.14447   0.07487   0.14588   0.00000  Uiso   1.00
C37    C     0.18177   0.07512   0.16709   0.00000  Uiso   1.00
C38    C     0.17427   0.05751   0.20948   0.00000  Uiso   1.00
C39    C     0.12940   0.03978   0.23079   0.00000  Uiso   1.00
C40    C     0.24277   0.14855   0.02354   0.00000  Uiso   1.00
C41    C     0.09056   0.18478   0.47646   0.00000  Uiso   1.00
C42    C     0.29038   0.02219   0.26564   0.00000  Uiso   1.00
C43    C     0.04296   0.31114   0.23436   0.00000  Uiso   1.00
C44    C     0.28883   0.31295   0.26821   0.00000  Uiso   1.00
Cu45   Cu    0.04689   0.16667   0.25000   0.00000  Uiso   1.00
Cu46   Cu    0.28645   0.16666   0.25000   0.00000  Uiso   1.00
H47    H     0.26838   0.14058   0.04234   0.00000  Uiso   1.00
H48    H     0.14632   0.18063   0.41789   0.00000  Uiso   1.00
H49    H     0.25716   0.03933   0.27896   0.00000  Uiso   1.00
H50    H     0.07617   0.29400   0.22104   0.00000  Uiso   1.00
H51    H     0.10721   0.12337   0.30256   0.00000  Uiso   1.00
H52    H     0.22612   0.20997   0.19744   0.00000  Uiso   1.00
H53    H     0.20936   0.30713   0.23637   0.00000  Uiso   1.00
H54    H     0.13005   0.27585   0.27427   0.00000  Uiso   1.00
H55    H     0.11677   0.24465   0.34944   0.00000  Uiso   1.00
H56    H     0.18273   0.24572   0.38733   0.00000  Uiso   1.00
H57    H     0.26260   0.27567   0.34951   0.00000  Uiso   1.00
H58    H     0.06496   0.19275   0.45766   0.00000  Uiso   1.00
H59    H     0.07074   0.05767   0.15049   0.00000  Uiso   1.00
H60    H     0.15060   0.08761   0.11267   0.00000  Uiso   1.00
H61    H     0.21656   0.08868   0.15056   0.00000  Uiso   1.00
H62    H     0.20328   0.05748   0.22573   0.00000  Uiso   1.00
H63    H     0.12397   0.02620   0.26363   0.00000  Uiso   1.00
H64    H     0.17856   0.12503   0.34248   0.00000  Uiso   1.00
H65    H     0.18776   0.08628   0.30528   0.00000  Uiso   1.00
H66    H     0.14557   0.24705   0.19472   0.00000  Uiso   1.00
H67    H     0.15478   0.20831   0.15752   0.00000  Uiso   1.00
H68    H     0.11478   0.15524   0.11319   0.00000  Uiso   1.00
H69    H     0.21855   0.17809   0.38681   0.00000  Uiso   1.00
H70    H     0.30512   0.18679   0.10756   0.00000  Uiso   1.00
H71    H     0.02821   0.14655   0.39244   0.00000  Uiso   1.00
H72    H     0.33284   0.13738   0.47333   0.00000  Uiso   1.00
H73    H     0.00049   0.19596   0.02667   0.00000  Uiso   1.00
H74    H     0.18701   0.15271   0.08211   0.00000  Uiso   1.00
N75    N     0.11736   0.16668   0.24999   0.00000  Uiso   1.00
N76    N     0.21597   0.16666   0.25001   0.00000  Uiso   1.00
N77    N     0.19782   0.11643   0.31019   0.00000  Uiso   1.00
N78    N     0.13551   0.21691   0.18981   0.00000  Uiso   1.00
O79    O     0.03958   0.10655   0.25000   0.00000  Uiso   1.00
O80    O     0.29375   0.22678   0.25000   0.00000  Uiso   1.00
O81    O     0.29372   0.10654   0.25000   0.00000  Uiso   1.00
O82    O     0.03961   0.22679   0.24999   0.00000  Uiso   1.00
O83    O     0.01852   0.16668   0.31491   0.00000  Uiso   1.00
O84    O     0.31481   0.16666   0.18508   0.00000  Uiso   1.00
O85    O     0.27267   0.16667   0.31492   0.00000  Uiso   1.00
O86    O     0.06067   0.16667   0.18508   0.00000  Uiso   1.00
C87    C     0.33380   0.08744   0.24876   0.00000  Uiso   1.00
C88    C     0.37783   0.02039   0.23179   0.00000  Uiso   1.00
C89    C     0.66567   0.29054   0.25203   0.00000  Uiso   1.00
C90    C     0.33433   0.04279   0.24797   0.00000  Uiso   1.00
C91    C     0.51596   0.14244   0.27938   0.00000  Uiso   1.00
C92    C     0.48404   0.19089   0.22062   0.00000  Uiso   1.00
C93    C     0.46635   0.14267   0.27929   0.00000  Uiso   1.00
C94    C     0.53365   0.19066   0.22071   0.00000  Uiso   1.00
C95    C     0.63940   0.16603   0.33595   0.00000  Uiso   1.00
C96    C     0.36060   0.16730   0.16405   0.00000  Uiso   1.00
C97    C     0.62422   0.16301   0.38479   0.00000  Uiso   1.00
C98    C     0.66619   0.24590   0.25124   0.00000  Uiso   1.00
C99    C     0.37578   0.17033   0.11521   0.00000  Uiso   1.00
C100   C     0.64050   0.14661   0.45512   0.00000  Uiso   1.00
C101   C     0.35949   0.18673   0.04488   0.00000  Uiso   1.00
C102   C     0.65692   0.15188   0.40906   0.00000  Uiso   1.00
C103   C     0.34307   0.18146   0.09094   0.00000  Uiso   1.00
C104   C     0.57529   0.16908   0.40691   0.00000  Uiso   1.00
C105   C     0.42471   0.16426   0.09309   0.00000  Uiso   1.00
C106   C     0.55758   0.16371   0.45331   0.00000  Uiso   1.00
C107   C     0.44242   0.16963   0.04669   0.00000  Uiso   1.00
C108   C     0.59139   0.15281   0.47740   0.00000  Uiso   1.00
C109   C     0.52799   0.15507   0.04640   0.00000  Uiso   1.00
C110   C     0.40861   0.18052   0.02260   0.00000  Uiso   1.00
C111   C     0.50752   0.16889   0.47632   0.00000  Uiso   1.00
C112   C     0.49247   0.16444   0.02368   0.00000  Uiso   1.00
C113   C     0.57504   0.29340   0.29017   0.00000  Uiso   1.00
C114   C     0.53726   0.29355   0.26921   0.00000  Uiso   1.00
C115   C     0.49240   0.27582   0.29052   0.00000  Uiso   1.00
C116   C     0.48490   0.25822   0.33291   0.00000  Uiso   1.00
C117   C     0.52220   0.25847   0.35412   0.00000  Uiso   1.00
C118   C     0.56729   0.27569   0.33275   0.00000  Uiso   1.00
C119   C     0.42496   0.03994   0.20983   0.00000  Uiso   1.00
C120   C     0.47201   0.17827   0.45360   0.00000  Uiso   1.00
C121   C     0.43271   0.05765   0.16725   0.00000  Uiso   1.00
C122   C     0.47780   0.07487   0.14588   0.00000  Uiso   1.00
C123   C     0.51510   0.07512   0.16709   0.00000  Uiso   1.00
C124   C     0.50760   0.05751   0.20948   0.00000  Uiso   1.00
C125   C     0.46274   0.03978   0.23079   0.00000  Uiso   1.00
C126   C     0.57611   0.14855   0.02354   0.00000  Uiso   1.00
C127   C     0.42389   0.18478   0.47646   0.00000  Uiso   1.00
C128   C     0.62371   0.02219   0.26564   0.00000  Uiso   1.00
C129   C     0.37629   0.31114   0.23436   0.00000  Uiso   1.00
C130   C     0.62217   0.31295   0.26821   0.00000  Uiso   1.00
Cu131  Cu    0.38022   0.16667   0.25000   0.00000  Uiso   1.00
Cu132  Cu    0.61978   0.16666   0.25000   0.00000  Uiso   1.00
H133   H     0.60171   0.14058   0.04234   0.00000  Uiso   1.00
H134   H     0.47966   0.18063   0.41789   0.00000  Uiso   1.00
H135   H     0.59049   0.03933   0.27896   0.00000  Uiso   1.00
H136   H     0.40951   0.29400   0.22104   0.00000  Uiso   1.00
H137   H     0.44055   0.12337   0.30256   0.00000  Uiso   1.00
H138   H     0.55945   0.20997   0.19744   0.00000  Uiso   1.00
H139   H     0.54270   0.30713   0.23637   0.00000  Uiso   1.00
H140   H     0.46338   0.27585   0.27427   0.00000  Uiso   1.00
H141   H     0.45011   0.24465   0.34944   0.00000  Uiso   1.00
H142   H     0.51607   0.24572   0.38733   0.00000  Uiso   1.00
H143   H     0.59593   0.27567   0.34951   0.00000  Uiso   1.00
H144   H     0.39829   0.19275   0.45766   0.00000  Uiso   1.00
H145   H     0.40407   0.05767   0.15049   0.00000  Uiso   1.00
H146   H     0.48393   0.08761   0.11267   0.00000  Uiso   1.00
H147   H     0.54989   0.08868   0.15056   0.00000  Uiso   1.00
H148   H     0.53662   0.05748   0.22573   0.00000  Uiso   1.00
H149   H     0.45730   0.02620   0.26363   0.00000  Uiso   1.00
H150   H     0.51189   0.12503   0.34248   0.00000  Uiso   1.00
H151   H     0.52110   0.08628   0.30528   0.00000  Uiso   1.00
H152   H     0.47890   0.24705   0.19472   0.00000  Uiso   1.00
H153   H     0.48811   0.20831   0.15752   0.00000  Uiso   1.00
H154   H     0.44812   0.15524   0.11319   0.00000  Uiso   1.00
H155   H     0.55188   0.17809   0.38681   0.00000  Uiso   1.00
H156   H     0.63845   0.18679   0.10756   0.00000  Uiso   1.00
H157   H     0.36154   0.14655   0.39244   0.00000  Uiso   1.00
H158   H     0.66618   0.13738   0.47333   0.00000  Uiso   1.00
H159   H     0.33382   0.19596   0.02667   0.00000  Uiso   1.00
H160   H     0.52034   0.15271   0.08211   0.00000  Uiso   1.00
N161   N     0.45069   0.16668   0.24999   0.00000  Uiso   1.00
N162   N     0.54931   0.16666   0.25001   0.00000  Uiso   1.00
N163   N     0.53115   0.11643   0.31019   0.00000  Uiso   1.00
N164   N     0.46885   0.21691   0.18981   0.00000  Uiso   1.00
O165   O     0.37291   0.10655   0.25000   0.00000  Uiso   1.00
O166   O     0.62709   0.22678   0.25000   0.00000  Uiso   1.00
O167   O     0.62706   0.10654   0.25000   0.00000  Uiso   1.00
O168   O     0.37294   0.22679   0.24999   0.00000  Uiso   1.00
O169   O     0.35186   0.16668   0.31491   0.00000  Uiso   1.00
O170   O     0.64814   0.16666   0.18508   0.00000  Uiso   1.00
O171   O     0.60600   0.16667   0.31492   0.00000  Uiso   1.00
O172   O     0.39400   0.16667   0.18508   0.00000  Uiso   1.00
C173   C     0.66714   0.08744   0.24876   0.00000  Uiso   1.00
C174   C     0.71117   0.02039   0.23179   0.00000  Uiso   1.00
C175   C     0.99901   0.29054   0.25203   0.00000  Uiso   1.00
C176   C     0.66766   0.04279   0.24797   0.00000  Uiso   1.00
C177   C     0.84929   0.14244   0.27938   0.00000  Uiso   1.00
C178   C     0.81738   0.19089   0.22062   0.00000  Uiso   1.00
C179   C     0.79968   0.14267   0.27929   0.00000  Uiso   1.00
C180   C     0.86698   0.19066   0.22071   0.00000  Uiso   1.00
C181   C     0.97273   0.16603   0.33595   0.00000  Uiso   1.00
C182   C     0.69394   0.16730   0.16405   0.00000  Uiso   1.00
C183   C     0.95755   0.16301   0.38479   0.00000  Uiso   1.00
C184   C     0.99953   0.24590   0.25124   0.00000  Uiso   1.00
C185   C     0.70911   0.17033   0.11521   0.00000  Uiso   1.00
C186   C     0.97384   0.14661   0.45512   0.00000  Uiso   1.00
C187   C     0.69283   0.18673   0.04488   0.00000  Uiso   1.00
C188   C     0.99026   0.15188   0.40906   0.00000  Uiso   1.00
C189   C     0.67641   0.18146   0.09094   0.00000  Uiso   1.00
C190   C     0.90862   0.16908   0.40691   0.00000  Uiso   1.00
C191   C     0.75804   0.16426   0.09309   0.00000  Uiso   1.00
C192   C     0.89091   0.16371   0.45331   0.00000  Uiso   1.00
C193   C     0.77575   0.16963   0.04669   0.00000  Uiso   1.00
C194   C     0.92472   0.15281   0.47740   0.00000  Uiso   1.00
C195   C     0.86133   0.15507   0.04640   0.00000  Uiso   1.00
C196   C     0.74194   0.18052   0.02260   0.00000  Uiso   1.00
C197   C     0.84086   0.16889   0.47632   0.00000  Uiso   1.00
C198   C     0.82581   0.16444   0.02368   0.00000  Uiso   1.00
C199   C     0.90837   0.29340   0.29017   0.00000  Uiso   1.00
C200   C     0.87060   0.29355   0.26921   0.00000  Uiso   1.00
C201   C     0.82573   0.27582   0.29052   0.00000  Uiso   1.00
C202   C     0.81823   0.25822   0.33291   0.00000  Uiso   1.00
C203   C     0.85553   0.25847   0.35412   0.00000  Uiso   1.00
C204   C     0.90062   0.27569   0.33275   0.00000  Uiso   1.00
C205   C     0.75830   0.03994   0.20983   0.00000  Uiso   1.00
C206   C     0.80534   0.17827   0.45360   0.00000  Uiso   1.00
C207   C     0.76604   0.05765   0.16725   0.00000  Uiso   1.00
C208   C     0.81113   0.07487   0.14588   0.00000  Uiso   1.00
C209   C     0.84843   0.07512   0.16709   0.00000  Uiso   1.00
C210   C     0.84093   0.05751   0.20948   0.00000  Uiso   1.00
C211   C     0.79607   0.03978   0.23079   0.00000  Uiso   1.00
C212   C     0.90944   0.14855   0.02354   0.00000  Uiso   1.00
C213   C     0.75723   0.18478   0.47646   0.00000  Uiso   1.00
C214   C     0.95704   0.02219   0.26564   0.00000  Uiso   1.00
C215   C     0.70962   0.31114   0.23436   0.00000  Uiso   1.00
C216   C     0.95550   0.31295   0.26821   0.00000  Uiso   1.00
Cu217  Cu    0.71355   0.16667   0.25000   0.00000  Uiso   1.00
Cu218  Cu    0.95311   0.16666   0.25000   0.00000  Uiso   1.00
H219   H     0.93504   0.14058   0.04234   0.00000  Uiso   1.00
H220   H     0.81299   0.18063   0.41789   0.00000  Uiso   1.00
H221   H     0.92383   0.03933   0.27896   0.00000  Uiso   1.00
H222   H     0.74284   0.29400   0.22104   0.00000  Uiso   1.00
H223   H     0.77388   0.12337   0.30256   0.00000  Uiso   1.00
H224   H     0.89279   0.20997   0.19744   0.00000  Uiso   1.00
H225   H     0.87603   0.30713   0.23637   0.00000  Uiso   1.00
H226   H     0.79672   0.27585   0.27427   0.00000  Uiso   1.00
H227   H     0.78344   0.24465   0.34944   0.00000  Uiso   1.00
H228   H     0.84940   0.24572   0.38733   0.00000  Uiso   1.00
H229   H     0.92926   0.27567   0.34951   0.00000  Uiso   1.00
H230   H     0.73162   0.19275   0.45766   0.00000  Uiso   1.00
H231   H     0.73740   0.05767   0.15049   0.00000  Uiso   1.00
H232   H     0.81727   0.08761   0.11267   0.00000  Uiso   1.00
H233   H     0.88323   0.08868   0.15056   0.00000  Uiso   1.00
H234   H     0.86995   0.05748   0.22573   0.00000  Uiso   1.00
H235   H     0.79064   0.02620   0.26363   0.00000  Uiso   1.00
H236   H     0.84522   0.12503   0.34248   0.00000  Uiso   1.00
H237   H     0.85443   0.08628   0.30528   0.00000  Uiso   1.00
H238   H     0.81223   0.24705   0.19472   0.00000  Uiso   1.00
H239   H     0.82144   0.20831   0.15752   0.00000  Uiso   1.00
H240   H     0.78145   0.15524   0.11319   0.00000  Uiso   1.00
H241   H     0.88521   0.17809   0.38681   0.00000  Uiso   1.00
H242   H     0.97179   0.18679   0.10756   0.00000  Uiso   1.00
H243   H     0.69488   0.14655   0.39244   0.00000  Uiso   1.00
H244   H     0.99951   0.13738   0.47333   0.00000  Uiso   1.00
H245   H     0.66716   0.19596   0.02667   0.00000  Uiso   1.00
H246   H     0.85368   0.15271   0.08211   0.00000  Uiso   1.00
N247   N     0.78403   0.16668   0.24999   0.00000  Uiso   1.00
N248   N     0.88264   0.16666   0.25001   0.00000  Uiso   1.00
N249   N     0.86449   0.11643   0.31019   0.00000  Uiso   1.00
N250   N     0.80218   0.21691   0.18981   0.00000  Uiso   1.00
O251   O     0.70625   0.10655   0.25000   0.00000  Uiso   1.00
O252   O     0.96042   0.22678   0.25000   0.00000  Uiso   1.00
O253   O     0.96039   0.10654   0.25000   0.00000  Uiso   1.00
O254   O     0.70628   0.22679   0.24999   0.00000  Uiso   1.00
O255   O     0.68519   0.16668   0.31491   0.00000  Uiso   1.00
O256   O     0.98148   0.16666   0.18508   0.00000  Uiso   1.00
O257   O     0.93933   0.16667   0.31492   0.00000  Uiso   1.00
O258   O     0.72733   0.16667   0.18508   0.00000  Uiso   1.00
C259   C     0.00047   0.42077   0.24876   0.00000  Uiso   1.00
C260   C     0.04450   0.35372   0.23179   0.00000  Uiso   1.00
C261   C     0.33234   0.62388   0.25203   0.00000  Uiso   1.00
C262   C     0.00099   0.37612   0.24797   0.00000  Uiso   1.00
C263   C     0.18262   0.47577   0.27938   0.00000  Uiso   1.00
C264   C     0.15071   0.52423   0.22062   0.00000  Uiso   1.00
C265   C     0.13302   0.47601   0.27929   0.00000  Uiso   1.00
C266   C     0.20031   0.52399   0.22071   0.00000  Uiso   1.00
C267   C     0.30606   0.49936   0.33595   0.00000  Uiso   1.00
C268   C     0.02727   0.50064   0.16405   0.00000  Uiso   1.00
C269   C     0.29089   0.49634   0.38479   0.00000  Uiso   1.00
C270   C     0.33286   0.57923   0.25124   0.00000  Uiso   1.00
C271   C     0.04245   0.50366   0.11521   0.00000  Uiso   1.00
C272   C     0.30717   0.47994   0.45512   0.00000  Uiso   1.00
C273   C     0.02616   0.52006   0.04488   0.00000  Uiso   1.00
C274   C     0.32359   0.48521   0.40906   0.00000  Uiso   1.00
C275   C     0.00974   0.51479   0.09094   0.00000  Uiso   1.00
C276   C     0.24196   0.50241   0.40691   0.00000  Uiso   1.00
C277   C     0.09138   0.49759   0.09309   0.00000  Uiso   1.00
C278   C     0.22425   0.49704   0.45331   0.00000  Uiso   1.00
C279   C     0.10909   0.50296   0.04669   0.00000  Uiso   1.00
C280   C     0.25806   0.48615   0.47740   0.00000  Uiso   1.00
C281   C     0.19466   0.48840   0.04640   0.00000  Uiso   1.00
C282   C     0.07527   0.51386   0.02260   0.00000  Uiso   1.00
C283   C     0.17419   0.50223   0.47632   0.00000  Uiso   1.00
C284   C     0.15914   0.49777   0.02368   0.00000  Uiso   1.00
C285   C     0.24170   0.62673   0.29017   0.00000  Uiso   1.00
C286   C     0.20393   0.62688   0.26921   0.00000  Uiso   1.00
C287   C     0.15907   0.60916   0.29052   0.00000  Uiso   1.00
C288   C     0.15157   0.59155   0.33291   0.00000  Uiso   1.00
C289   C     0.18887   0.59180   0.35412   0.00000  Uiso   1.00
C290   C     0.23396   0.60902   0.33275   0.00000  Uiso   1.00
C291   C     0.09163   0.37327   0.20983   0.00000  Uiso   1.00
C292   C     0.13867   0.51160   0.45360   0.00000  Uiso   1.00
C293   C     0.09938   0.39098   0.16725   0.00000  Uiso   1.00
C294   C     0.14447   0.40820   0.14588   0.00000  Uiso   1.00
C295   C     0.18177   0.40845   0.16709   0.00000  Uiso   1.00
C296   C     0.17427   0.39084   0.20948   0.00000  Uiso   1.00
C297   C     0.12940   0.37312   0.23079   0.00000  Uiso   1.00
C298   C     0.24277   0.48188   0.02354   0.00000  Uiso   1.00
C299   C     0.09056   0.51812   0.47646   0.00000  Uiso   1.00
C300   C     0.29038   0.35553   0.26564   0.00000  Uiso   1.00
C301   C     0.04296   0.64447   0.23436   0.00000  Uiso   1.00
C302   C     0.28883   0.64628   0.26821   0.00000  Uiso   1.00
Cu303  Cu    0.04689   0.50001   0.25000   0.00000  Uiso   1.00
Cu304  Cu    0.28645   0.49999   0.25000   0.00000  Uiso   1.00
H305   H     0.26838   0.47391   0.04234   0.00000  Uiso   1.00
H306   H     0.14632   0.51396   0.41789   0.00000  Uiso   1.00
H307   H     0.25716   0.37267   0.27896   0.00000  Uiso   1.00
H308   H     0.07617   0.62733   0.22104   0.00000  Uiso   1.00
H309   H     0.10721   0.45670   0.30256   0.00000  Uiso   1.00
H310   H     0.22612   0.54330   0.19744   0.00000  Uiso   1.00
H311   H     0.20936   0.64047   0.23637   0.00000  Uiso   1.00
H312   H     0.13005   0.60918   0.27427   0.00000  Uiso   1.00
H313   H     0.11677   0.57798   0.34944   0.00000  Uiso   1.00
H314   H     0.18273   0.57906   0.38733   0.00000  Uiso   1.00
H315   H     0.26260   0.60900   0.34951   0.00000  Uiso   1.00
H316   H     0.06496   0.52609   0.45766   0.00000  Uiso   1.00
H317   H     0.07074   0.39100   0.15049   0.00000  Uiso   1.00
H318   H     0.15060   0.42095   0.11267   0.00000  Uiso   1.00
H319   H     0.21656   0.42202   0.15056   0.00000  Uiso   1.00
H320   H     0.20328   0.39081   0.22573   0.00000  Uiso   1.00
H321   H     0.12397   0.35953   0.26363   0.00000  Uiso   1.00
H322   H     0.17856   0.45836   0.34248   0.00000  Uiso   1.00
H323   H     0.18776   0.41961   0.30528   0.00000  Uiso   1.00
H324   H     0.14557   0.58039   0.19472   0.00000  Uiso   1.00
H325   H     0.15478   0.54164   0.15752   0.00000  Uiso   1.00
H326   H     0.11478   0.48857   0.11319   0.00000  Uiso   1.00
H327   H     0.21855   0.51143   0.38681   0.00000  Uiso   1.00
H328   H     0.30512   0.52012   0.10756   0.00000  Uiso   1.00
H329   H     0.02821   0.47988   0.39244   0.00000  Uiso   1.00
H330   H     0.33284   0.47071   0.47333   0.00000  Uiso   1.00
H331   H     0.00049   0.52929   0.02667   0.00000  Uiso   1.00
H332   H     0.18701   0.48604   0.08211   0.00000  Uiso   1.00
N333   N     0.11736   0.50001   0.24999   0.00000  Uiso   1.00
N334   N     0.21597   0.49999   0.25001   0.00000  Uiso   1.00
N335   N     0.19782   0.44976   0.31019   0.00000  Uiso   1.00
N336   N     0.13551   0.55024   0.18981   0.00000  Uiso   1.00
O337   O     0.03958   0.43989   0.25000   0.00000  Uiso   1.00
O338   O     0.29375   0.56011   0.25000   0.00000  Uiso   1.00
O339   O     0.29372   0.43988   0.25000   0.00000  Uiso   1.00
O340   O     0.03961   0.56012   0.24999   0.00000  Uiso   1.00
O341   O     0.01852   0.50001   0.31491   0.00000  Uiso   1.00
O342   O     0.31481   0.49999   0.18508   0.00000  Uiso   1.00
O343   O     0.27267   0.50000   0.31492   0.00000  Uiso   1.00
O344   O     0.06067   0.50000   0.18508   0.00000  Uiso   1.00
C345   C     0.33380   0.42077   0.24876   0.00000  Uiso   1.00
C346   C     0.37783   0.35372   0.23179   0.00000  Uiso   1.00
C347   C     0.66567   0.62388   0.25203   0.00000  Uiso   1.00
C348   C     0.33433   0.37612   0.24797   0.00000  Uiso   1.00
C349   C     0.51596   0.47577   0.27938   0.00000  Uiso   1.00
C350   C     0.48404   0.52423   0.22062   0.00000  Uiso   1.00
C351   C     0.46635   0.47601   0.27929   0.00000  Uiso   1.00
C352   C     0.53365   0.52399   0.22071   0.00000  Uiso   1.00
C353   C     0.63940   0.49936   0.33595   0.00000  Uiso   1.00
C354   C     0.36060   0.50064   0.16405   0.00000  Uiso   1.00
C355   C     0.62422   0.49634   0.38479   0.00000  Uiso   1.00
C356   C     0.66619   0.57923   0.25124   0.00000  Uiso   1.00
C357   C     0.37578   0.50366   0.11521   0.00000  Uiso   1.00
C358   C     0.64050   0.47994   0.45512   0.00000  Uiso   1.00
C359   C     0.35949   0.52006   0.04488   0.00000  Uiso   1.00
C360   C     0.65692   0.48521   0.40906   0.00000  Uiso   1.00
C361   C     0.34307   0.51479   0.09094   0.00000  Uiso   1.00
C362   C     0.57529   0.50241   0.40691   0.00000  Uiso   1.00
C363   C     0.42471   0.49759   0.09309   0.00000  Uiso   1.00
C364   C     0.55758   0.49704   0.45331   0.00000  Uiso   1.00
C365   C     0.44242   0.50296   0.04669   0.00000  Uiso   1.00
C366   C     0.59139   0.48615   0.47740   0.00000  Uiso   1.00
C367   C     0.52799   0.48840   0.04640   0.00000  Uiso   1.00
C368   C     0.40861   0.51386   0.02260   0.00000  Uiso   1.00
C369   C     0.50752   0.50223   0.47632   0.00000  Uiso   1.00
C370   C     0.49247   0.49777   0.02368   0.00000  Uiso   1.00
C371   C     0.57504   0.62673   0.29017   0.00000  Uiso   1.00
C372   C     0.53726   0.62688   0.26921   0.00000  Uiso   1.00
C373   C     0.49240   0.60916   0.29052   0.00000  Uiso   1.00
C374   C     0.48490   0.59155   0.33291   0.00000  Uiso   1.00
C375   C     0.52220   0.59180   0.35412   0.00000  Uiso   1.00
C376   C     0.56729   0.60902   0.33275   0.00000  Uiso   1.00
C377   C     0.42496   0.37327   0.20983   0.00000  Uiso   1.00
C378   C     0.47201   0.51160   0.45360   0.00000  Uiso   1.00
C379   C     0.43271   0.39098   0.16725   0.00000  Uiso   1.00
C380   C     0.47780   0.40820   0.14588   0.00000  Uiso   1.00
C381   C     0.51510   0.40845   0.16709   0.00000  Uiso   1.00
C382   C     0.50760   0.39084   0.20948   0.00000  Uiso   1.00
C383   C     0.46274   0.37312   0.23079   0.00000  Uiso   1.00
C384   C     0.57611   0.48188   0.02354   0.00000  Uiso   1.00
C385   C     0.42389   0.51812   0.47646   0.00000  Uiso   1.00
C386   C     0.62371   0.35553   0.26564   0.00000  Uiso   1.00
C387   C     0.37629   0.64447   0.23436   0.00000  Uiso   1.00
C388   C     0.62217   0.64628   0.26821   0.00000  Uiso   1.00
Cu389  Cu    0.38022   0.50001   0.25000   0.00000  Uiso   1.00
Cu390  Cu    0.61978   0.49999   0.25000   0.00000  Uiso   1.00
H391   H     0.60171   0.47391   0.04234   0.00000  Uiso   1.00
H392   H     0.47966   0.51396   0.41789   0.00000  Uiso   1.00
H393   H     0.59049   0.37267   0.27896   0.00000  Uiso   1.00
H394   H     0.40951   0.62733   0.22104   0.00000  Uiso   1.00
H395   H     0.44055   0.45670   0.30256   0.00000  Uiso   1.00
H396   H     0.55945   0.54330   0.19744   0.00000  Uiso   1.00
H397   H     0.54270   0.64047   0.23637   0.00000  Uiso   1.00
H398   H     0.46338   0.60918   0.27427   0.00000  Uiso   1.00
H399   H     0.45011   0.57798   0.34944   0.00000  Uiso   1.00
H400   H     0.51607   0.57906   0.38733   0.00000  Uiso   1.00
H401   H     0.59593   0.60900   0.34951   0.00000  Uiso   1.00
H402   H     0.39829   0.52609   0.45766   0.00000  Uiso   1.00
H403   H     0.40407   0.39100   0.15049   0.00000  Uiso   1.00
H404   H     0.48393   0.42095   0.11267   0.00000  Uiso   1.00
H405   H     0.54989   0.42202   0.15056   0.00000  Uiso   1.00
H406   H     0.53662   0.39081   0.22573   0.00000  Uiso   1.00
H407   H     0.45730   0.35953   0.26363   0.00000  Uiso   1.00
H408   H     0.51189   0.45836   0.34248   0.00000  Uiso   1.00
H409   H     0.52110   0.41961   0.30528   0.00000  Uiso   1.00
H410   H     0.47890   0.58039   0.19472   0.00000  Uiso   1.00
H411   H     0.48811   0.54164   0.15752   0.00000  Uiso   1.00
H412   H     0.44812   0.48857   0.11319   0.00000  Uiso   1.00
H413   H     0.55188   0.51143   0.38681   0.00000  Uiso   1.00
H414   H     0.63845   0.52012   0.10756   0.00000  Uiso   1.00
H415   H     0.36154   0.47988   0.39244   0.00000  Uiso   1.00
H416   H     0.66618   0.47071   0.47333   0.00000  Uiso   1.00
H417   H     0.33382   0.52929   0.02667   0.00000  Uiso   1.00
H418   H     0.52034   0.48604   0.08211   0.00000  Uiso   1.00
N419   N     0.45069   0.50001   0.24999   0.00000  Uiso   1.00
N420   N     0.54931   0.49999   0.25001   0.00000  Uiso   1.00
N421   N     0.53115   0.44976   0.31019   0.00000  Uiso   1.00
N422   N     0.46885   0.55024   0.18981   0.00000  Uiso   1.00
O423   O     0.37291   0.43989   0.25000   0.00000  Uiso   1.00
O424   O     0.62709   0.56011   0.25000   0.00000  Uiso   1.00
O425   O     0.62706   0.43988   0.25000   0.00000  Uiso   1.00
O426   O     0.37294   0.56012   0.24999   0.00000  Uiso   1.00
O427   O     0.35186   0.50001   0.31491   0.00000  Uiso   1.00
O428   O     0.64814   0.49999   0.18508   0.00000  Uiso   1.00
O429   O     0.60600   0.50000   0.31492   0.00000  Uiso   1.00
O430   O     0.39400   0.50000   0.18508   0.00000  Uiso   1.00
C431   C     0.66714   0.42077   0.24876   0.00000  Uiso   1.00
C432   C     0.71117   0.35372   0.23179   0.00000  Uiso   1.00
C433   C     0.99901   0.62388   0.25203   0.00000  Uiso   1.00
C434   C     0.66766   0.37612   0.24797   0.00000  Uiso   1.00
C435   C     0.84929   0.47577   0.27938   0.00000  Uiso   1.00
C436   C     0.81738   0.52423   0.22062   0.00000  Uiso   1.00
C437   C     0.79968   0.47601   0.27929   0.00000  Uiso   1.00
C438   C     0.86698   0.52399   0.22071   0.00000  Uiso   1.00
C439   C     0.97273   0.49936   0.33595   0.00000  Uiso   1.00
C440   C     0.69394   0.50064   0.16405   0.00000  Uiso   1.00
C441   C     0.95755   0.49634   0.38479   0.00000  Uiso   1.00
C442   C     0.99953   0.57923   0.25124   0.00000  Uiso   1.00
C443   C     0.70911   0.50366   0.11521   0.00000  Uiso   1.00
C444   C     0.97384   0.47994   0.45512   0.00000  Uiso   1.00
C445   C     0.69283   0.52006   0.04488   0.00000  Uiso   1.00
C446   C     0.99026   0.48521   0.40906   0.00000  Uiso   1.00
C447   C     0.67641   0.51479   0.09094   0.00000  Uiso   1.00
C448   C     0.90862   0.50241   0.40691   0.00000  Uiso   1.00
C449   C     0.75804   0.49759   0.09309   0.00000  Uiso   1.00
C450   C     0.89091   0.49704   0.45331   0.00000  Uiso   1.00
C451   C     0.77575   0.50296   0.04669   0.00000  Uiso   1.00
C452   C     0.92472   0.48615   0.47740   0.00000  Uiso   1.00
C453   C     0.86133   0.48840   0.04640   0.00000  Uiso   1.00
C454   C     0.74194   0.51386   0.02260   0.00000  Uiso   1.00
C455   C     0.84086   0.50223   0.47632   0.00000  Uiso   1.00
C456   C     0.82581   0.49777   0.02368   0.00000  Uiso   1.00
C457   C     0.90837   0.62673   0.29017   0.00000  Uiso   1.00
C458   C     0.87060   0.62688   0.26921   0.00000  Uiso   1.00
C459   C     0.82573   0.60916   0.29052   0.00000  Uiso   1.00
C460   C     0.81823   0.59155   0.33291   0.00000  Uiso   1.00
C461   C     0.85553   0.59180   0.35412   0.00000  Uiso   1.00
C462   C     0.90062   0.60902   0.33275   0.00000  Uiso   1.00
C463   C     0.75830   0.37327   0.20983   0.00000  Uiso   1.00
C464   C     0.80534   0.51160   0.45360   0.00000  Uiso   1.00
C465   C     0.76604   0.39098   0.16725   0.00000  Uiso   1.00
C466   C     0.81113   0.40820   0.14588   0.00000  Uiso   1.00
C467   C     0.84843   0.40845   0.16709   0.00000  Uiso   1.00
C468   C     0.84093   0.39084   0.20948   0.00000  Uiso   1.00
C469   C     0.79607   0.37312   0.23079   0.00000  Uiso   1.00
C470   C     0.90944   0.48188   0.02354   0.00000  Uiso   1.00
C471   C     0.75723   0.51812   0.47646   0.00000  Uiso   1.00
C472   C     0.95704   0.35553   0.26564   0.00000  Uiso   1.00
C473   C     0.70962   0.64447   0.23436   0.00000  Uiso   1.00
C474   C     0.95550   0.64628   0.26821   0.00000  Uiso   1.00
Cu475  Cu    0.71355   0.50001   0.25000   0.00000  Uiso   1.00
Cu476  Cu    0.95311   0.49999   0.25000   0.00000  Uiso   1.00
H477   H     0.93504   0.47391   0.04234   0.00000  Uiso   1.00
H478   H     0.81299   0.51396   0.41789   0.00000  Uiso   1.00
H479   H     0.92383   0.37267   0.27896   0.00000  Uiso   1.00
H480   H     0.74284   0.62733   0.22104   0.00000  Uiso   1.00
H481   H     0.77388   0.45670   0.30256   0.00000  Uiso   1.00
H482   H     0.89279   0.54330   0.19744   0.00000  Uiso   1.00
H483   H     0.87603   0.64047   0.23637   0.00000  Uiso   1.00
H484   H     0.79672   0.60918   0.27427   0.00000  Uiso   1.00
H485   H     0.78344   0.57798   0.34944   0.00000  Uiso   1.00
H486   H     0.84940   0.57906   0.38733   0.00000  Uiso   1.00
H487   H     0.92926   0.60900   0.34951   0.00000  Uiso   1.00
H488   H     0.73162   0.52609   0.45766   0.00000  Uiso   1.00
H489   H     0.73740   0.39100   0.15049   0.00000  Uiso   1.00
H490   H     0.81727   0.42095   0.11267   0.00000  Uiso   1.00
H491   H     0.88323   0.42202   0.15056   0.00000  Uiso   1.00
H492   H     0.86995   0.39081   0.22573   0.00000  Uiso   1.00
H493   H     0.79064   0.35953   0.26363   0.00000  Uiso   1.00
H494   H     0.84522   0.45836   0.34248   0.00000  Uiso   1.00
H495   H     0.85443   0.41961   0.30528   0.00000  Uiso   1.00
H496   H     0.81223   0.58039   0.19472   0.00000  Uiso   1.00
H497   H     0.82144   0.54164   0.15752   0.00000  Uiso   1.00
H498   H     0.78145   0.48857   0.11319   0.00000  Uiso   1.00
H499   H     0.88521   0.51143   0.38681   0.00000  Uiso   1.00
H500   H     0.97179   0.52012   0.10756   0.00000  Uiso   1.00
H501   H     0.69488   0.47988   0.39244   0.00000  Uiso   1.00
H502   H     0.99951   0.47071   0.47333   0.00000  Uiso   1.00
H503   H     0.66716   0.52929   0.02667   0.00000  Uiso   1.00
H504   H     0.85368   0.48604   0.08211   0.00000  Uiso   1.00
N505   N     0.78403   0.50001   0.24999   0.00000  Uiso   1.00
N506   N     0.88264   0.49999   0.25001   0.00000  Uiso   1.00
N507   N     0.86449   0.44976   0.31019   0.00000  Uiso   1.00
N508   N     0.80218   0.55024   0.18981   0.00000  Uiso   1.00
O509   O     0.70625   0.43989   0.25000   0.00000  Uiso   1.00
O510   O     0.96042   0.56011   0.25000   0.00000  Uiso   1.00
O511   O     0.96039   0.43988   0.25000   0.00000  Uiso   1.00
O512   O     0.70628   0.56012   0.24999   0.00000  Uiso   1.00
O513   O     0.68519   0.50001   0.31491   0.00000  Uiso   1.00
O514   O     0.98148   0.49999   0.18508   0.00000  Uiso   1.00
O515   O     0.93933   0.50000   0.31492   0.00000  Uiso   1.00
O516   O     0.72733   0.50000   0.18508   0.00000  Uiso   1.00
C517   C     0.00047   0.75410   0.24876   0.00000  Uiso   1.00
C518   C     0.04450   0.68705   0.23179   0.00000  Uiso   1.00
C519   C     0.33234   0.95721   0.25203   0.00000  Uiso   1.00
C520   C     0.00099   0.70946   0.24797   0.00000  Uiso   1.00
C521   C     0.18262   0.80911   0.27938   0.00000  Uiso   1.00
C522   C     0.15071   0.85756   0.22062   0.00000  Uiso   1.00
C523   C     0.13302   0.80934   0.27929   0.00000  Uiso   1.00
C524   C     0.20031   0.85733   0.22071   0.00000  Uiso   1.00
C525   C     0.30606   0.83270   0.33595   0.00000  Uiso   1.00
C526   C     0.02727   0.83397   0.16405   0.00000  Uiso   1.00
C527   C     0.29089   0.82967   0.38479   0.00000  Uiso   1.00
C528   C     0.33286   0.91256   0.25124   0.00000  Uiso   1.00
C529   C     0.04245   0.83699   0.11521   0.00000  Uiso   1.00
C530   C     0.30717   0.81327   0.45512   0.00000  Uiso   1.00
C531   C     0.02616   0.85340   0.04488   0.00000  Uiso   1.00
C532   C     0.32359   0.81854   0.40906   0.00000  Uiso   1.00
C533   C     0.00974   0.84812   0.09094   0.00000  Uiso   1.00
C534   C     0.24196   0.83574   0.40691   0.00000  Uiso   1.00
C535   C     0.09138   0.83092   0.09309   0.00000  Uiso   1.00
C536   C     0.22425   0.83038   0.45331   0.00000  Uiso   1.00
C537   C     0.10909   0.83629   0.04669   0.00000  Uiso   1.00
C538   C     0.25806   0.81948   0.47740   0.00000  Uiso   1.00
C539   C     0.19466   0.82173   0.04640   0.00000  Uiso   1.00
C540   C     0.07527   0.84719   0.02260   0.00000  Uiso   1.00
C541   C     0.17419   0.83556   0.47632   0.00000  Uiso   1.00
C542   C     0.15914   0.83111   0.02368   0.00000  Uiso   1.00
C543   C     0.24170   0.96006   0.29017   0.00000  Uiso   1.00
C544   C     0.20393   0.96022   0.26921   0.00000  Uiso   1.00
C545   C     0.15907   0.94249   0.29052   0.00000  Uiso   1.00
C546   C     0.15157   0.92488   0.33291   0.00000  Uiso   1.00
C547   C     0.18887   0.92513   0.35412   0.00000  Uiso   1.00
C548   C     0.23396   0.94235   0.33275   0.00000  Uiso   1.00
C549   C     0.09163   0.70660   0.20983   0.00000  Uiso   1.00
C550   C     0.13867   0.84493   0.45360   0.00000  Uiso   1.00
C551   C     0.09938   0.72432   0.16725   0.00000  Uiso   1.00
C552   C     0.14447   0.74153   0.14588   0.00000  Uiso   1.00
C553   C     0.18177   0.74178   0.16709   0.00000  Uiso   1.00
C554   C     0.17427   0.72418   0.20948   0.00000  Uiso   1.00
C555   C     0.12940   0.70645   0.23079   0.00000  Uiso   1.00
C556   C     0.24277   0.81522   0.02354   0.00000  Uiso   1.00
C557   C     0.09056   0.85145   0.47646   0.00000  Uiso   1.00
C558   C     0.29038   0.68886   0.26564   0.00000  Uiso   1.00
C559   C     0.04296   0.97781   0.23436   0.00000  Uiso   1.00
C560   C     0.28883   0.97961   0.26821   0.00000  Uiso   1.00
Cu561  Cu    0.04689   0.83334   0.25000   0.00000  Uiso   1.00
Cu562  Cu    0.28645   0.83333   0.25000   0.00000  Uiso   1.00
H563   H     0.26838   0.80725   0.04234   0.00000  Uiso   1.00
H564   H     0.14632   0.84729   0.41789   0.00000  Uiso   1.00
H565   H     0.25716   0.70600   0.27896   0.00000  Uiso   1.00
H566   H     0.07617   0.96067   0.22104   0.00000  Uiso   1.00
H567   H     0.10721   0.79003   0.30256   0.00000  Uiso   1.00
H568   H     0.22612   0.87663   0.19744   0.00000  Uiso   1.00
H569   H     0.20936   0.97380   0.23637   0.00000  Uiso   1.00
H570   H     0.13005   0.94252   0.27427   0.00000  Uiso   1.00
H571   H     0.11677   0.91132   0.34944   0.00000  Uiso   1.00
H572   H     0.18273   0.91239   0.38733   0.00000  Uiso   1.00
H573   H     0.26260   0.94233   0.34951   0.00000  Uiso   1.00
H574   H     0.06496   0.85942   0.45766   0.00000  Uiso   1.00
H575   H     0.07074   0.72433   0.15049   0.00000  Uiso   1.00
H576   H     0.15060   0.75428   0.11267   0.00000  Uiso   1.00
H577   H     0.21656   0.75535   0.15056   0.00000  Uiso   1.00
H578   H     0.20328   0.72415   0.22573   0.00000  Uiso   1.00
H579   H     0.12397   0.69286   0.26363   0.00000  Uiso   1.00
H580   H     0.17856   0.79170   0.34248   0.00000  Uiso   1.00
H581   H     0.18776   0.75295   0.30528   0.00000  Uiso   1.00
H582   H     0.14557   0.91372   0.19472   0.00000  Uiso   1.00
H583   H     0.15478   0.87497   0.15752   0.00000  Uiso   1.00
H584   H     0.11478   0.82191   0.11319   0.00000  Uiso   1.00
H585   H     0.21855   0.84476   0.38681   0.00000  Uiso   1.00
H586   H     0.30512   0.85346   0.10756   0.00000  Uiso   1.00
H587   H     0.02821   0.81321   0.39244   0.00000  Uiso   1.00
H588   H     0.33284   0.80405   0.47333   0.00000  Uiso   1.00
H589   H     0.00049   0.86262   0.02667   0.00000  Uiso   1.00
H590   H     0.18701   0.81938   0.08211   0.00000  Uiso   1.00
N591   N     0.11736   0.83334   0.24999   0.00000  Uiso   1.00
N592   N     0.21597   0.83332   0.25001   0.00000  Uiso   1.00
N593   N     0.19782   0.78309   0.31019   0.00000  Uiso   1.00
N594   N     0.13551   0.88357   0.18981   0.00000  Uiso   1.00
O595   O     0.03958   0.77322   0.25000   0.00000  Uiso   1.00
O596   O     0.29375   0.89345   0.25000   0.00000  Uiso   1.00
O597   O     0.29372   0.77321   0.25000   0.00000  Uiso   1.00
O598   O     0.03961   0.89346   0.24999   0.00000  Uiso   1.00
O599   O     0.01852   0.83334   0.31491   0.00000  Uiso   1.00
O600   O     0.31481   0.83332   0.18508   0.00000  Uiso   1.00
O601   O     0.27267   0.83333   0.31492   0.00000  Uiso   1.00
O602   O     0.06067   0.83333   0.18508   0.00000  Uiso   1.00
C603   C     0.33380   0.75410   0.24876   0.00000  Uiso   1.00
C604   C     0.37783   0.68705   0.23179   0.00000  Uiso   1.00
C605   C     0.66567   0.95721   0.25203   0.00000  Uiso   1.00
C606   C     0.33433   0.70946   0.24797   0.00000  Uiso   1.00
C607   C     0.51596   0.80911   0.27938   0.00000  Uiso   1.00
C608   C     0.48404   0.85756   0.22062   0.00000  Uiso   1.00
C609   C     0.46635   0.80934   0.27929   0.00000  Uiso   1.00
C610   C     0.53365   0.85733   0.22071   0.00000  Uiso   1.00
C611   C     0.63940   0.83270   0.33595   0.00000  Uiso   1.00
C612   C     0.36060   0.83397   0.16405   0.00000  Uiso   1.00
C613   C     0.62422   0.82967   0.38479   0.00000  Uiso   1.00
C614   C     0.66619   0.91256   0.25124   0.00000  Uiso   1.00
C615   C     0.37578   0.83699   0.11521   0.00000  Uiso   1.00
C616   C     0.64050   0.81327   0.45512   0.00000  Uiso   1.00
C617   C     0.35949   0.85340   0.04488   0.00000  Uiso   1.00
C618   C     0.65692   0.81854   0.40906   0.00000  Uiso   1.00
C619   C     0.34307   0.84812   0.09094   0.00000  Uiso   1.00
C620   C     0.57529   0.83574   0.40691   0.00000  Uiso   1.00
C621   C     0.42471   0.83092   0.09309   0.00000  Uiso   1.00
C622   C     0.55758   0.83038   0.45331   0.00000  Uiso   1.00
C623   C     0.44242   0.83629   0.04669   0.00000  Uiso   1.00
C624   C     0.59139   0.81948   0.47740   0.00000  Uiso   1.00
C625   C     0.52799   0.82173   0.04640   0.00000  Uiso   1.00
C626   C     0.40861   0.84719   0.02260   0.00000  Uiso   1.00
C627   C     0.50752   0.83556   0.47632   0.00000  Uiso   1.00
C628   C     0.49247   0.83111   0.02368   0.00000  Uiso   1.00
C629   C     0.57504   0.96006   0.29017   0.00000  Uiso   1.00
C630   C     0.53726   0.96022   0.26921   0.00000  Uiso   1.00
C631   C     0.49240   0.94249   0.29052   0.00000  Uiso   1.00
C632   C     0.48490   0.92488   0.33291   0.00000  Uiso   1.00
C633   C     0.52220   0.92513   0.35412   0.00000  Uiso   1.00
C634   C     0.56729   0.94235   0.33275   0.00000  Uiso   1.00
C635   C     0.42496   0.70660   0.20983   0.00000  Uiso   1.00
C636   C     0.47201   0.84493   0.45360   0.00000  Uiso   1.00
C637   C     0.43271   0.72432   0.16725   0.00000  Uiso   1.00
C638   C     0.47780   0.74153   0.14588   0.00000  Uiso   1.00
C639   C     0.51510   0.74178   0.16709   0.00000  Uiso   1.00
C640   C     0.50760   0.72418   0.20948   0.00000  Uiso   1.00
C641   C     0.46274   0.70645   0.23079   0.00000  Uiso   1.00
C642   C     0.57611   0.81522   0.02354   0.00000  Uiso   1.00
C643   C     0.42389   0.85145   0.47646   0.00000  Uiso   1.00
C644   C     0.62371   0.68886   0.26564   0.00000  Uiso   1.00
C645   C     0.37629   0.97781   0.23436   0.00000  Uiso   1.00
C646   C     0.62217   0.97961   0.26821   0.00000  Uiso   1.00
Cu647  Cu    0.38022   0.83334   0.25000   0.00000  Uiso   1.00
Cu648  Cu    0.61978   0.83333   0.25000   0.00000  Uiso   1.00
H649   H     0.60171   0.80725   0.04234   0.00000  Uiso   1.00
H650   H     0.47966   0.84729   0.41789   0.00000  Uiso   1.00
H651   H     0.59049   0.70600   0.27896   0.00000  Uiso   1.00
H652   H     0.40951   0.96067   0.22104   0.00000  Uiso   1.00
H653   H     0.44055   0.79003   0.30256   0.00000  Uiso   1.00
H654   H     0.55945   0.87663   0.19744   0.00000  Uiso   1.00
H655   H     0.54270   0.97380   0.23637   0.00000  Uiso   1.00
H656   H     0.46338   0.94252   0.27427   0.00000  Uiso   1.00
H657   H     0.45011   0.91132   0.34944   0.00000  Uiso   1.00
H658   H     0.51607   0.91239   0.38733   0.00000  Uiso   1.00
H659   H     0.59593   0.94233   0.34951   0.00000  Uiso   1.00
H660   H     0.39829   0.85942   0.45766   0.00000  Uiso   1.00
H661   H     0.40407   0.72433   0.15049   0.00000  Uiso   1.00
H662   H     0.48393   0.75428   0.11267   0.00000  Uiso   1.00
H663   H     0.54989   0.75535   0.15056   0.00000  Uiso   1.00
H664   H     0.53662   0.72415   0.22573   0.00000  Uiso   1.00
H665   H     0.45730   0.69286   0.26363   0.00000  Uiso   1.00
H666   H     0.51189   0.79170   0.34248   0.00000  Uiso   1.00
H667   H     0.52110   0.75295   0.30528   0.00000  Uiso   1.00
H668   H     0.47890   0.91372   0.19472   0.00000  Uiso   1.00
H669   H     0.48811   0.87497   0.15752   0.00000  Uiso   1.00
H670   H     0.44812   0.82191   0.11319   0.00000  Uiso   1.00
H671   H     0.55188   0.84476   0.38681   0.00000  Uiso   1.00
H672   H     0.63845   0.85346   0.10756   0.00000  Uiso   1.00
H673   H     0.36154   0.81321   0.39244   0.00000  Uiso   1.00
H674   H     0.66618   0.80405   0.47333   0.00000  Uiso   1.00
H675   H     0.33382   0.86262   0.02667   0.00000  Uiso   1.00
H676   H     0.52034   0.81938   0.08211   0.00000  Uiso   1.00
N677   N     0.45069   0.83334   0.24999   0.00000  Uiso   1.00
N678   N     0.54931   0.83332   0.25001   0.00000  Uiso   1.00
N679   N     0.53115   0.78309   0.31019   0.00000  Uiso   1.00
N680   N     0.46885   0.88357   0.18981   0.00000  Uiso   1.00
O681   O     0.37291   0.77322   0.25000   0.00000  Uiso   1.00
O682   O     0.62709   0.89345   0.25000   0.00000  Uiso   1.00
O683   O     0.62706   0.77321   0.25000   0.00000  Uiso   1.00
O684   O     0.37294   0.89346   0.24999   0.00000  Uiso   1.00
O685   O     0.35186   0.83334   0.31491   0.00000  Uiso   1.00
O686   O     0.64814   0.83332   0.18508   0.00000  Uiso   1.00
O687   O     0.60600   0.83333   0.31492   0.00000  Uiso   1.00
O688   O     0.39400   0.83333   0.18508   0.00000  Uiso   1.00
C689   C     0.66714   0.75410   0.24876   0.00000  Uiso   1.00
C690   C     0.71117   0.68705   0.23179   0.00000  Uiso   1.00
C691   C     0.99901   0.95721   0.25203   0.00000  Uiso   1.00
C692   C     0.66766   0.70946   0.24797   0.00000  Uiso   1.00
C693   C     0.84929   0.80911   0.27938   0.00000  Uiso   1.00
C694   C     0.81738   0.85756   0.22062   0.00000  Uiso   1.00
C695   C     0.79968   0.80934   0.27929   0.00000  Uiso   1.00
C696   C     0.86698   0.85733   0.22071   0.00000  Uiso   1.00
C697   C     0.97273   0.83270   0.33595   0.00000  Uiso   1.00
C698   C     0.69394   0.83397   0.16405   0.00000  Uiso   1.00
C699   C     0.95755   0.82967   0.38479   0.00000  Uiso   1.00
C700   C     0.99953   0.91256   0.25124   0.00000  Uiso   1.00
C701   C     0.70911   0.83699   0.11521   0.00000  Uiso   1.00
C702   C     0.97384   0.81327   0.45512   0.00000  Uiso   1.00
C703   C     0.69283   0.85340   0.04488   0.00000  Uiso   1.00
C704   C     0.99026   0.81854   0.40906   0.00000  Uiso   1.00
C705   C     0.67641   0.84812   0.09094   0.00000  Uiso   1.00
C706   C     0.90862   0.83574   0.40691   0.00000  Uiso   1.00
C707   C     0.75804   0.83092   0.09309   0.00000  Uiso   1.00
C708   C     0.89091   0.83038   0.45331   0.00000  Uiso   1.00
C709   C     0.77575   0.83629   0.04669   0.00000  Uiso   1.00
C710   C     0.92472   0.81948   0.47740   0.00000  Uiso   1.00
C711   C     0.86133   0.82173   0.04640   0.00000  Uiso   1.00
C712   C     0.74194   0.84719   0.02260   0.00000  Uiso   1.00
C713   C     0.84086   0.83556   0.47632   0.00000  Uiso   1.00
C714   C     0.82581   0.83111   0.02368   0.00000  Uiso   1.00
C715   C     0.90837   0.96006   0.29017   0.00000  Uiso   1.00
C716   C     0.87060   0.96022   0.26921   0.00000  Uiso   1.00
C717   C     0.82573   0.94249   0.29052   0.00000  Uiso   1.00
C718   C     0.81823   0.92488   0.33291   0.00000  Uiso   1.00
C719   C     0.85553   0.92513   0.35412   0.00000  Uiso   1.00
C720   C     0.90062   0.94235   0.33275   0.00000  Uiso   1.00
C721   C     0.75830   0.70660   0.20983   0.00000  Uiso   1.00
C722   C     0.80534   0.84493   0.45360   0.00000  Uiso   1.00
C723   C     0.76604   0.72432   0.16725   0.00000  Uiso   1.00
C724   C     0.81113   0.74153   0.14588   0.00000  Uiso   1.00
C725   C     0.84843   0.74178   0.16709   0.00000  Uiso   1.00
C726   C     0.84093   0.72418   0.20948   0.00000  Uiso   1.00
C727   C     0.79607   0.70645   0.23079   0.00000  Uiso   1.00
C728   C     0.90944   0.81522   0.02354   0.00000  Uiso   1.00
C729   C     0.75723   0.85145   0.47646   0.00000  Uiso   1.00
C730   C     0.95704   0.68886   0.26564   0.00000  Uiso   1.00
C731   C     0.70962   0.97781   0.23436   0.00000  Uiso   1.00
C732   C     0.95550   0.97961   0.26821   0.00000  Uiso   1.00
Cu733  Cu    0.71355   0.83334   0.25000   0.00000  Uiso   1.00
Cu734  Cu    0.95311   0.83333   0.25000   0.00000  Uiso   1.00
H735   H     0.93504   0.80725   0.04234   0.00000  Uiso   1.00
H736   H     0.81299   0.84729   0.41789   0.00000  Uiso   1.00
H737   H     0.92383   0.70600   0.27896   0.00000  Uiso   1.00
H738   H     0.74284   0.96067   0.22104   0.00000  Uiso   1.00
H739   H     0.77388   0.79003   0.30256   0.00000  Uiso   1.00
H740   H     0.89279   0.87663   0.19744   0.00000  Uiso   1.00
H741   H     0.87603   0.97380   0.23637   0.00000  Uiso   1.00
H742   H     0.79672   0.94252   0.27427   0.00000  Uiso   1.00
H743   H     0.78344   0.91132   0.34944   0.00000  Uiso   1.00
H744   H     0.84940   0.91239   0.38733   0.00000  Uiso   1.00
H745   H     0.92926   0.94233   0.34951   0.00000  Uiso   1.00
H746   H     0.73162   0.85942   0.45766   0.00000  Uiso   1.00
H747   H     0.73740   0.72433   0.15049   0.00000  Uiso   1.00
H748   H     0.81727   0.75428   0.11267   0.00000  Uiso   1.00
H749   H     0.88323   0.75535   0.15056   0.00000  Uiso   1.00
H750   H     0.86995   0.72415   0.22573   0.00000  Uiso   1.00
H751   H     0.79064   0.69286   0.26363   0.00000  Uiso   1.00
H752   H     0.84522   0.79170   0.34248   0.00000  Uiso   1.00
H753   H     0.85443   0.75295   0.30528   0.00000  Uiso   1.00
H754   H     0.81223   0.91372   0.19472   0.00000  Uiso   1.00
H755   H     0.82144   0.87497   0.15752   0.00000  Uiso   1.00
H756   H     0.78145   0.82191   0.11319   0.00000  Uiso   1.00
H757   H     0.88521   0.84476   0.38681   0.00000  Uiso   1.00
H758   H     0.97179   0.85346   0.10756   0.00000  Uiso   1.00
H759   H     0.69488   0.81321   0.39244   0.00000  Uiso   1.00
H760   H     0.99951   0.80405   0.47333   0.00000  Uiso   1.00
H761   H     0.66716   0.86262   0.02667   0.00000  Uiso   1.00
H762   H     0.85368   0.81938   0.08211   0.00000  Uiso   1.00
N763   N     0.78403   0.83334   0.24999   0.00000  Uiso   1.00
N764   N     0.88264   0.83332   0.25001   0.00000  Uiso   1.00
N765   N     0.86449   0.78309   0.31019   0.00000  Uiso   1.00
N766   N     0.80218   0.88357   0.18981   0.00000  Uiso   1.00
O767   O     0.70625   0.77322   0.25000   0.00000  Uiso   1.00
O768   O     0.96042   0.89345   0.25000   0.00000  Uiso   1.00
O769   O     0.96039   0.77321   0.25000   0.00000  Uiso   1.00
O770   O     0.70628   0.89346   0.24999   0.00000  Uiso   1.00
O771   O     0.68519   0.83334   0.31491   0.00000  Uiso   1.00
O772   O     0.98148   0.83332   0.18508   0.00000  Uiso   1.00
O773   O     0.93933   0.83333   0.31492   0.00000  Uiso   1.00
O774   O     0.72733   0.83333   0.18508   0.00000  Uiso   1.00
C775   C     0.00047   0.08744   0.74876   0.00000  Uiso   1.00
C776   C     0.04450   0.02039   0.73179   0.00000  Uiso   1.00
C777   C     0.33234   0.29054   0.75203   0.00000  Uiso   1.00
C778   C     0.00099   0.04279   0.74797   0.00000  Uiso   1.00
C779   C     0.18262   0.14244   0.77938   0.00000  Uiso   1.00
C780   C     0.15071   0.19089   0.72062   0.00000  Uiso   1.00
C781   C     0.13302   0.14267   0.77929   0.00000  Uiso   1.00
C782   C     0.20031   0.19066   0.72071   0.00000  Uiso   1.00
C783   C     0.30606   0.16603   0.83595   0.00000  Uiso   1.00
C784   C     0.02727   0.16730   0.66405   0.00000  Uiso   1.00
C785   C     0.29089   0.16301   0.88479   0.00000  Uiso   1.00
C786   C     0.33286   0.24590   0.75124   0.00000  Uiso   1.00
C787   C     0.04245   0.17033   0.61521   0.00000  Uiso   1.00
C788   C     0.30717   0.14661   0.95512   0.00000  Uiso   1.00
C789   C     0.02616   0.18673   0.54488   0.00000  Uiso   1.00
C790   C     0.32359   0.15188   0.90906   0.00000  Uiso   1.00
C791   C     0.00974   0.18146   0.59094   0.00000  Uiso   1.00
C792   C     0.24196   0.16908   0.90691   0.00000  Uiso   1.00
C793   C     0.09138   0.16426   0.59309   0.00000  Uiso   1.00
C794   C     0.22425   0.16371   0.95331   0.00000  Uiso   1.00
C795   C     0.10909   0.16963   0.54669   0.00000  Uiso   1.00
C796   C     0.25806   0.15281   0.97740   0.00000  Uiso   1.00
C797   C     0.19466   0.15507   0.54640   0.00000  Uiso   1.00
C798   C     0.07527   0.18052   0.52260   0.00000  Uiso   1.00
C799   C     0.17419   0.16889   0.97632   0.00000  Uiso   1.00
C800   C     0.15914   0.16444   0.52368   0.00000  Uiso   1.00
C801   C     0.24170   0.29340   0.79017   0.00000  Uiso   1.00
C802   C     0.20393   0.29355   0.76921   0.00000  Uiso   1.00
C803   C     0.15907   0.27582   0.79052   0.00000  Uiso   1.00
C804   C     0.15157   0.25822   0.83291   0.00000  Uiso   1.00
C805   C     0.18887   0.25847   0.85412   0.00000  Uiso   1.00
C806   C     0.23396   0.27569   0.83275   0.00000  Uiso   1.00
C807   C     0.09163   0.03994   0.70983   0.00000  Uiso   1.00
C808   C     0.13867   0.17827   0.95360   0.00000  Uiso   1.00
C809   C     0.09938   0.05765   0.66725   0.00000  Uiso   1.00
C810   C     0.14447   0.07487   0.64588   0.00000  Uiso   1.00
C811   C     0.18177   0.07512   0.66709   0.00000  Uiso   1.00
C812   C     0.17427   0.05751   0.70948   0.00000  Uiso   1.00
C813   C     0.12940   0.03978   0.73079   0.00000  Uiso   1.00
C814   C     0.24277   0.14855   0.52354   0.00000  Uiso   1.00
C815   C     0.09056   0.18478   0.97646   0.00000  Uiso   1.00
C816   C     0.29038   0.02219   0.76564   0.00000  Uiso   1.00
C817   C     0.04296   0.31114   0.73436   0.00000  Uiso   1.00
C818   C     0.28883   0.31295   0.76821   0.00000  Uiso   1.00
Cu819  Cu    0.04689   0.16667   0.75000   0.00000  Uiso   1.00
Cu820  Cu    0.28645   0.16666   0.75000   0.00000  Uiso   1.00
H821   H     0.26838   0.14058   0.54234   0.00000  Uiso   1.00
H822   H     0.14632   0.18063   0.91789   0.00000  Uiso   1.00
H823   H     0.25716   0.03933   0.77896   0.00000  Uiso   1.00
H824   H     0.07617   0.29400   0.72104   0.00000  Uiso   1.00
H825   H     0.10721   0.12337   0.80256   0.00000  Uiso   1.00
H826   H     0.22612   0.20997   0.69744   0.00000  Uiso   1.00
H827   H     0.20936   0.30713   0.73637   0.00000  Uiso   1.00
H828   H     0.13005   0.27585   0.77427   0.00000  Uiso   1.00
H829   H     0.11677   0.24465   0.84944   0.00000  Uiso   1.00
H830   H     0.18273   0.24572   0.88733   0.00000  Uiso   1.00
H831   H     0.26260   0.27567   0.84951   0.00000  Uiso   1.00
H832   H     0.06496   0.19275   0.95766   0.00000  Uiso   1.00
H833   H     0.07074   0.05767   0.65049   0.00000  Uiso   1.00
H834   H     0.15060   0.08761   0.61267   0.00000  Uiso   1.00
H835   H     0.21656   0.08868   0.65056   0.00000  Uiso   1.00
H836   H     0.20328   0.05748   0.72573   0.00000  Uiso   1.00
H837   H     0.12397   0.02620   0.76363   0.00000  Uiso   1.00
H838   H     0.17856   0.12503   0.84248   0.00000  Uiso   1.00
H839   H     0.18776   0.08628   0.80528   0.00000  Uiso   1.00
H840   H     0.14557   0.24705   0.69472   0.00000  Uiso   1.00
H841   H     0.15478   0.20831   0.65752   0.00000  Uiso   1.00
H842   H     0.11478   0.15524   0.61319   0.00000  Uiso   1.00
H843   H     0.21855   0.17809   0.88681   0.00000  Uiso   1.00
H844   H     0.30512   0.18679   0.60756   0.00000  Uiso   1.00
H845   H     0.02821   0.14655   0.89244   0.00000  Uiso   1.00
H846   H     0.33284   0.13738   0.97333   0.00000  Uiso   1.00
H847   H     0.00049   0.19596   0.52667   0.00000  Uiso   1.00
H848   H     0.18701   0.15271   0.58211   0.00000  Uiso   1.00
N849   N     0.11736   0.16668   0.74999   0.00000  Uiso   1.00
N850   N     0.21597   0.16666   0.75001   0.00000  Uiso   1.00
N851   N     0.19782   0.11643   0.81019   0.00000  Uiso   1.00
N852   N     0.13551   0.21691   0.68981   0.00000  Uiso   1.00
O853   O     0.03958   0.10655   0.75000   0.00000  Uiso   1.00
O854   O     0.29375   0.22678   0.75000   0.00000  Uiso   1.00
O855   O     0.29372   0.10654   0.75000   0.00000  Uiso   1.00
O856   O     0.03961   0.22679   0.74999   0.00000  Uiso   1.00
O857   O     0.01852   0.16668   0.81491   0.00000  Uiso   1.00
O858   O     0.31481   0.16666   0.68508   0.00000  Uiso   1.00
O859   O     0.27267   0.16667   0.81492   0.00000  Uiso   1.00
O860   O     0.06067   0.16667   0.68508   0.00000  Uiso   1.00
C861   C     0.33380   0.08744   0.74876   0.00000  Uiso   1.00
C862   C     0.37783   0.02039   0.73179   0.00000  Uiso   1.00
C863   C     0.66567   0.29054   0.75203   0.00000  Uiso   1.00
C864   C     0.33433   0.04279   0.74797   0.00000  Uiso   1.00
C865   C     0.51596   0.14244   0.77938   0.00000  Uiso   1.00
C866   C     0.48404   0.19089   0.72062   0.00000  Uiso   1.00
C867   C     0.46635   0.14267   0.77929   0.00000  Uiso   1.00
C868   C     0.53365   0.19066   0.72071   0.00000  Uiso   1.00
C869   C     0.63940   0.16603   0.83595   0.00000  Uiso   1.00
C870   C     0.36060   0.16730   0.66405   0.00000  Uiso   1.00
C871   C     0.62422   0.16301   0.88479   0.00000  Uiso   1.00
C872   C     0.66619   0.24590   0.75124   0.00000  Uiso   1.00
C873   C     0.37578   0.17033   0.61521   0.00000  Uiso   1.00
C874   C     0.64050   0.14661   0.95512   0.00000  Uiso   1.00
C875   C     0.35949   0.18673   0.54488   0.00000  Uiso   1.00
C876   C     0.65692   0.15188   0.90906   0.00000  Uiso   1.00
C877   C     0.34307   0.18146   0.59094   0.00000  Uiso   1.00
C878   C     0.57529   0.16908   0.90691   0.00000  Uiso   1.00
C879   C     0.42471   0.16426   0.59309   0.00000  Uiso   1.00
C880   C     0.55758   0.16371   0.95331   0.00000  Uiso   1.00
C881   C     0.44242   0.16963   0.54669   0.00000  Uiso   1.00
C882   C     0.59139   0.15281   0.97740   0.00000  Uiso   1.00
C883   C     0.52799   0.15507   0.54640   0.00000  Uiso   1.00
C884   C     0.40861   0.18052   0.52260   0.00000  Uiso   1.00
C885   C     0.50752   0.16889   0.97632   0.00000  Uiso   1.00
C886   C     0.49247   0.16444   0.52368   0.00000  Uiso   1.00
C887   C     0.57504   0.29340   0.79017   0.00000  Uiso   1.00
C888   C     0.53726   0.29355   0.76921   0.00000  Uiso   1.00
C889   C     0.49240   0.27582   0.79052   0.00000  Uiso   1.00
C890   C     0.48490   0.25822   0.83291   0.00000  Uiso   1.00
C891   C     0.52220   0.25847   0.85412   0.00000  Uiso   1.00
C892   C     0.56729   0.27569   0.83275   0.00000  Uiso   1.00
C893   C     0.42496   0.03994   0.70983   0.00000  Uiso   1.00
C894   C     0.47201   0.17827   0.95360   0.00000  Uiso   1.00
C895   C     0.43271   0.05765   0.66725   0.00000  Uiso   1.00
C896   C     0.47780   0.07487   0.64588   0.00000  Uiso   1.00
C897   C     0.51510   0.07512   0.66709   0.00000  Uiso   1.00
C898   C     0.50760   0.05751   0.70948   0.00000  Uiso   1.00
C899   C     0.46274   0.03978   0.73079   0.00000  Uiso   1.00
C900   C     0.57611   0.14855   0.52354   0.00000  Uiso   1.00
C901   C     0.42389   0.18478   0.97646   0.00000  Uiso   1.00
C902   C     0.62371   0.02219   0.76564   0.00000  Uiso   1.00
C903   C     0.37629   0.31114   0.73436   0.00000  Uiso   1.00
C904   C     0.62217   0.31295   0.76821   0.00000  Uiso   1.00
Cu905  Cu    0.38022   0.16667   0.75000   0.00000  Uiso   1.00
Cu906  Cu    0.61978   0.16666   0.75000   0.00000  Uiso   1.00
H907   H     0.60171   0.14058   0.54234   0.00000  Uiso   1.00
H908   H     0.47966   0.18063   0.91789   0.00000  Uiso   1.00
H909   H     0.59049   0.03933   0.77896   0.00000  Uiso   1.00
H910   H     0.40951   0.29400   0.72104   0.00000  Uiso   1.00
H911   H     0.44055   0.12337   0.80256   0.00000  Uiso   1.00
H912   H     0.55945   0.20997   0.69744   0.00000  Uiso   1.00
H913   H     0.54270   0.30713   0.73637   0.00000  Uiso   1.00
H914   H     0.46338   0.27585   0.77427   0.00000  Uiso   1.00
H915   H     0.45011   0.24465   0.84944   0.00000  Uiso   1.00
H916   H     0.51607   0.24572   0.88733   0.00000  Uiso   1.00
H917   H     0.59593   0.27567   0.84951   0.00000  Uiso   1.00
H918   H     0.39829   0.19275   0.95766   0.00000  Uiso   1.00
H919   H     0.40407   0.05767   0.65049   0.00000  Uiso   1.00
H920   H     0.48393   0.08761   0.61267   0.00000  Uiso   1.00
H921   H     0.54989   0.08868   0.65056   0.00000  Uiso   1.00
H922   H     0.53662   0.05748   0.72573   0.00000  Uiso   1.00
H923   H     0.45730   0.02620   0.76363   0.00000  Uiso   1.00
H924   H     0.51189   0.12503   0.84248   0.00000  Uiso   1.00
H925   H     0.52110   0.08628   0.80528   0.00000  Uiso   1.00
H926   H     0.47890   0.24705   0.69472   0.00000  Uiso   1.00
H927   H     0.48811   0.20831   0.65752   0.00000  Uiso   1.00
H928   H     0.44812   0.15524   0.61319   0.00000  Uiso   1.00
H929   H     0.55188   0.17809   0.88681   0.00000  Uiso   1.00
H930   H     0.63845   0.18679   0.60756   0.00000  Uiso   1.00
H931   H     0.36154   0.14655   0.89244   0.00000  Uiso   1.00
H932   H     0.66618   0.13738   0.97333   0.00000  Uiso   1.00
H933   H     0.33382   0.19596   0.52667   0.00000  Uiso   1.00
H934   H     0.52034   0.15271   0.58211   0.00000  Uiso   1.00
N935   N     0.45069   0.16668   0.74999   0.00000  Uiso   1.00
N936   N     0.54931   0.16666   0.75001   0.00000  Uiso   1.00
N937   N     0.53115   0.11643   0.81019   0.00000  Uiso   1.00
N938   N     0.46885   0.21691   0.68981   0.00000  Uiso   1.00
O939   O     0.37291   0.10655   0.75000   0.00000  Uiso   1.00
O940   O     0.62709   0.22678   0.75000   0.00000  Uiso   1.00
O941   O     0.62706   0.10654   0.75000   0.00000  Uiso   1.00
O942   O     0.37294   0.22679   0.74999   0.00000  Uiso   1.00
O943   O     0.35186   0.16668   0.81491   0.00000  Uiso   1.00
O944   O     0.64814   0.16666   0.68508   0.00000  Uiso   1.00
O945   O     0.60600   0.16667   0.81492   0.00000  Uiso   1.00
O946   O     0.39400   0.16667   0.68508   0.00000  Uiso   1.00
C947   C     0.66714   0.08744   0.74876   0.00000  Uiso   1.00
C948   C     0.71117   0.02039   0.73179   0.00000  Uiso   1.00
C949   C     0.99901   0.29054   0.75203   0.00000  Uiso   1.00
C950   C     0.66766   0.04279   0.74797   0.00000  Uiso   1.00
C951   C     0.84929   0.14244   0.77938   0.00000  Uiso   1.00
C952   C     0.81738   0.19089   0.72062   0.00000  Uiso   1.00
C953   C     0.79968   0.14267   0.77929   0.00000  Uiso   1.00
C954   C     0.86698   0.19066   0.72071   0.00000  Uiso   1.00
C955   C     0.97273   0.16603   0.83595   0.00000  Uiso   1.00
C956   C     0.69394   0.16730   0.66405   0.00000  Uiso   1.00
C957   C     0.95755   0.16301   0.88479   0.00000  Uiso   1.00
C958   C     0.99953   0.24590   0.75124   0.00000  Uiso   1.00
C959   C     0.70911   0.17033   0.61521   0.00000  Uiso   1.00
C960   C     0.97384   0.14661   0.95512   0.00000  Uiso   1.00
C961   C     0.69283   0.18673   0.54488   0.00000  Uiso   1.00
C962   C     0.99026   0.15188   0.90906   0.00000  Uiso   1.00
C963   C     0.67641   0.18146   0.59094   0.00000  Uiso   1.00
C964   C     0.90862   0.16908   0.90691   0.00000  Uiso   1.00
C965   C     0.75804   0.16426   0.59309   0.00000  Uiso   1.00
C966   C     0.89091   0.16371   0.95331   0.00000  Uiso   1.00
C967   C     0.77575   0.16963   0.54669   0.00000  Uiso   1.00
C968   C     0.92472   0.15281   0.97740   0.00000  Uiso   1.00
C969   C     0.86133   0.15507   0.54640   0.00000  Uiso   1.00
C970   C     0.74194   0.18052   0.52260   0.00000  Uiso   1.00
C971   C     0.84086   0.16889   0.97632   0.00000  Uiso   1.00
C972   C     0.82581   0.16444   0.52368   0.00000  Uiso   1.00
C973   C     0.90837   0.29340   0.79017   0.00000  Uiso   1.00
C974   C     0.87060   0.29355   0.76921   0.00000  Uiso   1.00
C975   C     0.82573   0.27582   0.79052   0.00000  Uiso   1.00
C976   C     0.81823   0.25822   0.83291   0.00000  Uiso   1.00
C977   C     0.85553   0.25847   0.85412   0.00000  Uiso   1.00
C978   C     0.90062   0.27569   0.83275   0.00000  Uiso   1.00
C979   C     0.75830   0.03994   0.70983   0.00000  Uiso   1.00
C980   C     0.80534   0.17827   0.95360   0.00000  Uiso   1.00
C981   C     0.76604   0.05765   0.66725   0.00000  Uiso   1.00
C982   C     0.81113   0.07487   0.64588   0.00000  Uiso   1.00
C983   C     0.84843   0.07512   0.66709   0.00000  Uiso   1.00
C984   C     0.84093   0.05751   0.70948   0.00000  Uiso   1.00
C985   C     0.79607   0.03978   0.73079   0.00000  Uiso   1.00
C986   C     0.90944   0.14855   0.52354   0.00000  Uiso   1.00
C987   C     0.75723   0.18478   0.97646   0.00000  Uiso   1.00
C988   C     0.95704   0.02219   0.76564   0.00000  Uiso   1.00
C989   C     0.70962   0.31114   0.73436   0.00000  Uiso   1.00
C990   C     0.95550   0.31295   0.76821   0.00000  Uiso   1.00
Cu991  Cu    0.71355   0.16667   0.75000   0.00000  Uiso   1.00
Cu992  Cu    0.95311   0.16666   0.75000   0.00000  Uiso   1.00
H993   H     0.93504   0.14058   0.54234   0.00000  Uiso   1.00
H994   H     0.81299   0.18063   0.91789   0.00000  Uiso   1.00
H995   H     0.92383   0.03933   0.77896   0.00000  Uiso   1.00
H996   H     0.74284   0.29400   0.72104   0.00000  Uiso   1.00
H997   H     0.77388   0.12337   0.80256   0.00000  Uiso   1.00
H998   H     0.89279   0.20997   0.69744   0.00000  Uiso   1.00
H999   H     0.87603   0.30713   0.73637   0.00000  Uiso   1.00
H1000  H     0.79672   0.27585   0.77427   0.00000  Uiso   1.00
H1001  H     0.78344   0.24465   0.84944   0.00000  Uiso   1.00
H1002  H     0.84940   0.24572   0.88733   0.00000  Uiso   1.00
H1003  H     0.92926   0.27567   0.84951   0.00000  Uiso   1.00
H1004  H     0.73162   0.19275   0.95766   0.00000  Uiso   1.00
H1005  H     0.73740   0.05767   0.65049   0.00000  Uiso   1.00
H1006  H     0.81727   0.08761   0.61267   0.00000  Uiso   1.00
H1007  H     0.88323   0.08868   0.65056   0.00000  Uiso   1.00
H1008  H     0.86995   0.05748   0.72573   0.00000  Uiso   1.00
H1009  H     0.79064   0.02620   0.76363   0.00000  Uiso   1.00
H1010  H     0.84522   0.12503   0.84248   0.00000  Uiso   1.00
H1011  H     0.85443   0.08628   0.80528   0.00000  Uiso   1.00
H1012  H     0.81223   0.24705   0.69472   0.00000  Uiso   1.00
H1013  H     0.82144   0.20831   0.65752   0.00000  Uiso   1.00
H1014  H     0.78145   0.15524   0.61319   0.00000  Uiso   1.00
H1015  H     0.88521   0.17809   0.88681   0.00000  Uiso   1.00
H1016  H     0.97179   0.18679   0.60756   0.00000  Uiso   1.00
H1017  H     0.69488   0.14655   0.89244   0.00000  Uiso   1.00
H1018  H     0.99951   0.13738   0.97333   0.00000  Uiso   1.00
H1019  H     0.66716   0.19596   0.52667   0.00000  Uiso   1.00
H1020  H     0.85368   0.15271   0.58211   0.00000  Uiso   1.00
N1021  N     0.78403   0.16668   0.74999   0.00000  Uiso   1.00
N1022  N     0.88264   0.16666   0.75001   0.00000  Uiso   1.00
N1023  N     0.86449   0.11643   0.81019   0.00000  Uiso   1.00
N1024  N     0.80218   0.21691   0.68981   0.00000  Uiso   1.00
O1025  O     0.70625   0.10655   0.75000   0.00000  Uiso   1.00
O1026  O     0.96042   0.22678   0.75000   0.00000  Uiso   1.00
O1027  O     0.96039   0.10654   0.75000   0.00000  Uiso   1.00
O1028  O     0.70628   0.22679   0.74999   0.00000  Uiso   1.00
O1029  O     0.68519   0.16668   0.81491   0.00000  Uiso   1.00
O1030  O     0.98148   0.16666   0.68508   0.00000  Uiso   1.00
O1031  O     0.93933   0.16667   0.81492   0.00000  Uiso   1.00
O1032  O     0.72733   0.16667   0.68508   0.00000  Uiso   1.00
C1033  C     0.00047   0.42077   0.74876   0.00000  Uiso   1.00
C1034  C     0.04450   0.35372   0.73179   0.00000  Uiso   1.00
C1035  C     0.33234   0.62388   0.75203   0.00000  Uiso   1.00
C1036  C     0.00099   0.37612   0.74797   0.00000  Uiso   1.00
C1037  C     0.18262   0.47577   0.77938   0.00000  Uiso   1.00
C1038  C     0.15071   0.52423   0.72062   0.00000  Uiso   1.00
C1039  C     0.13302   0.47601   0.77929   0.00000  Uiso   1.00
C1040  C     0.20031   0.52399   0.72071   0.00000  Uiso   1.00
C1041  C     0.30606   0.49936   0.83595   0.00000  Uiso   1.00
C1042  C     0.02727   0.50064   0.66405   0.00000  Uiso   1.00
C1043  C     0.29089   0.49634   0.88479   0.00000  Uiso   1.00
C1044  C     0.33286   0.57923   0.75124   0.00000  Uiso   1.00
C1045  C     0.04245   0.50366   0.61521   0.00000  Uiso   1.00
C1046  C     0.30717   0.47994   0.95512   0.00000  Uiso   1.00
C1047  C     0.02616   0.52006   0.54488   0.00000  Uiso   1.00
C1048  C     0.32359   0.48521   0.90906   0.00000  Uiso   1.00
C1049  C     0.00974   0.51479   0.59094   0.00000  Uiso   1.00
C1050  C     0.24196   0.50241   0.90691   0.00000  Uiso   1.00
C1051  C     0.09138   0.49759   0.59309   0.00000  Uiso   1.00
C1052  C     0.22425   0.49704   0.95331   0.00000  Uiso   1.00
C1053  C     0.10909   0.50296   0.54669   0.00000  Uiso   1.00
C1054  C     0.25806   0.48615   0.97740   0.00000  Uiso   1.00
C1055  C     0.19466   0.48840   0.54640   0.00000  Uiso   1.00
C1056  C     0.07527   0.51386   0.52260   0.00000  Uiso   1.00
C1057  C     0.17419   0.50223   0.97632   0.00000  Uiso   1.00
C1058  C     0.15914   0.49777   0.52368   0.00000  Uiso   1.00
C1059  C     0.24170   0.62673   0.79017   0.00000  Uiso   1.00
C1060  C     0.20393   0.62688   0.76921   0.00000  Uiso   1.00
C1061  C     0.15907   0.60916   0.79052   0.00000  Uiso   1.00
C1062  C     0.15157   0.59155   0.83291   0.00000  Uiso   1.00
C1063  C     0.18887   0.59180   0.85412   0.00000  Uiso   1.00
C1064  C     0.23396   0.60902   0.83275   0.00000  Uiso   1.00
C1065  C     0.09163   0.37327   0.70983   0.00000  Uiso   1.00
C1066  C     0.13867   0.51160   0.95360   0.00000  Uiso   1.00
C1067  C     0.09938   0.39098   0.66725   0.00000  Uiso   1.00
C1068  C     0.14447   0.40820   0.64588   0.00000  Uiso   1.00
C1069  C     0.18177   0.40845   0.66709   0.00000  Uiso   1.00
C1070  C     0.17427   0.39084   0.70948   0.00000  Uiso   1.00
C1071  C     0.12940   0.37312   0.73079   0.00000  Uiso   1.00
C1072  C     0.24277   0.48188   0.52354   0.00000  Uiso   1.00
C1073  C     0.09056   0.51812   0.97646   0.00000  Uiso   1.00
C1074  C     0.29038   0.35553   0.76564   0.00000  Uiso   1.00
C1075  C     0.04296   0.64447   0.73436   0.00000  Uiso   1.00
C1076  C     0.28883   0.64628   0.76821   0.00000  Uiso   1.00
Cu1077 Cu    0.04689   0.50001   0.75000   0.00000  Uiso   1.00
Cu1078 Cu    0.28645   0.49999   0.75000   0.00000  Uiso   1.00
H1079  H     0.26838   0.47391   0.54234   0.00000  Uiso   1.00
H1080  H     0.14632   0.51396   0.91789   0.00000  Uiso   1.00
H1081  H     0.25716   0.37267   0.77896   0.00000  Uiso   1.00
H1082  H     0.07617   0.62733   0.72104   0.00000  Uiso   1.00
H1083  H     0.10721   0.45670   0.80256   0.00000  Uiso   1.00
H1084  H     0.22612   0.54330   0.69744   0.00000  Uiso   1.00
H1085  H     0.20936   0.64047   0.73637   0.00000  Uiso   1.00
H1086  H     0.13005   0.60918   0.77427   0.00000  Uiso   1.00
H1087  H     0.11677   0.57798   0.84944   0.00000  Uiso   1.00
H1088  H     0.18273   0.57906   0.88733   0.00000  Uiso   1.00
H1089  H     0.26260   0.60900   0.84951   0.00000  Uiso   1.00
H1090  H     0.06496   0.52609   0.95766   0.00000  Uiso   1.00
H1091  H     0.07074   0.39100   0.65049   0.00000  Uiso   1.00
H1092  H     0.15060   0.42095   0.61267   0.00000  Uiso   1.00
H1093  H     0.21656   0.42202   0.65056   0.00000  Uiso   1.00
H1094  H     0.20328   0.39081   0.72573   0.00000  Uiso   1.00
H1095  H     0.12397   0.35953   0.76363   0.00000  Uiso   1.00
H1096  H     0.17856   0.45836   0.84248   0.00000  Uiso   1.00
H1097  H     0.18776   0.41961   0.80528   0.00000  Uiso   1.00
H1098  H     0.14557   0.58039   0.69472   0.00000  Uiso   1.00
H1099  H     0.15478   0.54164   0.65752   0.00000  Uiso   1.00
H1100  H     0.11478   0.48857   0.61319   0.00000  Uiso   1.00
H1101  H     0.21855   0.51143   0.88681   0.00000  Uiso   1.00
H1102  H     0.30512   0.52012   0.60756   0.00000  Uiso   1.00
H1103  H     0.02821   0.47988   0.89244   0.00000  Uiso   1.00
H1104  H     0.33284   0.47071   0.97333   0.00000  Uiso   1.00
H1105  H     0.00049   0.52929   0.52667   0.00000  Uiso   1.00
H1106  H     0.18701   0.48604   0.58211   0.00000  Uiso   1.00
N1107  N     0.11736   0.50001   0.74999   0.00000  Uiso   1.00
N1108  N     0.21597   0.49999   0.75001   0.00000  Uiso   1.00
N1109  N     0.19782   0.44976   0.81019   0.00000  Uiso   1.00
N1110  N     0.13551   0.55024   0.68981   0.00000  Uiso   1.00
O1111  O     0.03958   0.43989   0.75000   0.00000  Uiso   1.00
O1112  O     0.29375   0.56011   0.75000   0.00000  Uiso   1.00
O1113  O     0.29372   0.43988   0.75000   0.00000  Uiso   1.00
O1114  O     0.03961   0.56012   0.74999   0.00000  Uiso   1.00
O1115  O     0.01852   0.50001   0.81491   0.00000  Uiso   1.00
O1116  O     0.31481   0.49999   0.68508   0.00000  Uiso   1.00
O1117  O     0.27267   0.50000   0.81492   0.00000  Uiso   1.00
O1118  O     0.06067   0.50000   0.68508   0.00000  Uiso   1.00
C1119  C     0.33380   0.42077   0.74876   0.00000  Uiso   1.00
C1120  C     0.37783   0.35372   0.73179   0.00000  Uiso   1.00
C1121  C     0.66567   0.62388   0.75203   0.00000  Uiso   1.00
C1122  C     0.33433   0.37612   0.74797   0.00000  Uiso   1.00
C1123  C     0.51596   0.47577   0.77938   0.00000  Uiso   1.00
C1124  C     0.48404   0.52423   0.72062   0.00000  Uiso   1.00
C1125  C     0.46635   0.47601   0.77929   0.00000  Uiso   1.00
C1126  C     0.53365   0.52399   0.72071   0.00000  Uiso   1.00
C1127  C     0.63940   0.49936   0.83595   0.00000  Uiso   1.00
C1128  C     0.36060   0.50064   0.66405   0.00000  Uiso   1.00
C1129  C     0.62422   0.49634   0.88479   0.00000  Uiso   1.00
C1130  C     0.66619   0.57923   0.75124   0.00000  Uiso   1.00
C1131  C     0.37578   0.50366   0.61521   0.00000  Uiso   1.00
C1132  C     0.64050   0.47994   0.95512   0.00000  Uiso   1.00
C1133  C     0.35949   0.52006   0.54488   0.00000  Uiso   1.00
C1134  C     0.65692   0.48521   0.90906   0.00000  Uiso   1.00
C1135  C     0.34307   0.51479   0.59094   0.00000  Uiso   1.00
C1136  C     0.57529   0.50241   0.90691   0.00000  Uiso   1.00
C1137  C     0.42471   0.49759   0.59309   0.00000  Uiso   1.00
C1138  C     0.55758   0.49704   0.95331   0.00000  Uiso   1.00
C1139  C     0.44242   0.50296   0.54669   0.00000  Uiso   1.00
C1140  C     0.59139   0.48615   0.97740   0.00000  Uiso   1.00
C1141  C     0.52799   0.48840   0.54640   0.00000  Uiso   1.00
C1142  C     0.40861   0.51386   0.52260   0.00000  Uiso   1.00
C1143  C     0.50752   0.50223   0.97632   0.00000  Uiso   1.00
C1144  C     0.49247   0.49777   0.52368   0.00000  Uiso   1.00
C1145  C     0.57504   0.62673   0.79017   0.00000  Uiso   1.00
C1146  C     0.53726   0.62688   0.76921   0.00000  Uiso   1.00
C1147  C     0.49240   0.60916   0.79052   0.00000  Uiso   1.00
C1148  C     0.48490   0.59155   0.83291   0.00000  Uiso   1.00
C1149  C     0.52220   0.59180   0.85412   0.00000  Uiso   1.00
C1150  C     0.56729   0.60902   0.83275   0.00000  Uiso   1.00
C1151  C     0.42496   0.37327   0.70983   0.00000  Uiso   1.00
C1152  C     0.47201   0.51160   0.95360   0.00000  Uiso   1.00
C1153  C     0.43271   0.39098   0.66725   0.00000  Uiso   1.00
C1154  C     0.47780   0.40820   0.64588   0.00000  Uiso   1.00
C1155  C     0.51510   0.40845   0.66709   0.00000  Uiso   1.00
C1156  C     0.50760   0.39084   0.70948   0.00000  Uiso   1.00
C1157  C     0.46274   0.37312   0.73079   0.00000  Uiso   1.00
C1158  C     0.57611   0.48188   0.52354   0.00000  Uiso   1.00
C1159  C     0.42389   0.51812   0.97646   0.00000  Uiso   1.00
C1160  C     0.62371   0.35553   0.76564   0.00000  Uiso   1.00
C1161  C     0.37629   0.64447   0.73436   0.00000  Uiso   1.00
C1162  C     0.62217   0.64628   0.76821   0.00000  Uiso   1.00
Cu1163 Cu    0.38022   0.50001   0.75000   0.00000  Uiso   1.00
Cu1164 Cu    0.61978   0.49999   0.75000   0.00000  Uiso   1.00
H1165  H     0.60171   0.47391   0.54234   0.00000  Uiso   1.00
H1166  H     0.47966   0.51396   0.91789   0.00000  Uiso   1.00
H1167  H     0.59049   0.37267   0.77896   0.00000  Uiso   1.00
H1168  H     0.40951   0.62733   0.72104   0.00000  Uiso   1.00
H1169  H     0.44055   0.45670   0.80256   0.00000  Uiso   1.00
H1170  H     0.55945   0.54330   0.69744   0.00000  Uiso   1.00
H1171  H     0.54270   0.64047   0.73637   0.00000  Uiso   1.00
H1172  H     0.46338   0.60918   0.77427   0.00000  Uiso   1.00
H1173  H     0.45011   0.57798   0.84944   0.00000  Uiso   1.00
H1174  H     0.51607   0.57906   0.88733   0.00000  Uiso   1.00
H1175  H     0.59593   0.60900   0.84951   0.00000  Uiso   1.00
H1176  H     0.39829   0.52609   0.95766   0.00000  Uiso   1.00
H1177  H     0.40407   0.39100   0.65049   0.00000  Uiso   1.00
H1178  H     0.48393   0.42095   0.61267   0.00000  Uiso   1.00
H1179  H     0.54989   0.42202   0.65056   0.00000  Uiso   1.00
H1180  H     0.53662   0.39081   0.72573   0.00000  Uiso   1.00
H1181  H     0.45730   0.35953   0.76363   0.00000  Uiso   1.00
H1182  H     0.51189   0.45836   0.84248   0.00000  Uiso   1.00
H1183  H     0.52110   0.41961   0.80528   0.00000  Uiso   1.00
H1184  H     0.47890   0.58039   0.69472   0.00000  Uiso   1.00
H1185  H     0.48811   0.54164   0.65752   0.00000  Uiso   1.00
H1186  H     0.44812   0.48857   0.61319   0.00000  Uiso   1.00
H1187  H     0.55188   0.51143   0.88681   0.00000  Uiso   1.00
H1188  H     0.63845   0.52012   0.60756   0.00000  Uiso   1.00
H1189  H     0.36154   0.47988   0.89244   0.00000  Uiso   1.00
H1190  H     0.66618   0.47071   0.97333   0.00000  Uiso   1.00
H1191  H     0.33382   0.52929   0.52667   0.00000  Uiso   1.00
H1192  H     0.52034   0.48604   0.58211   0.00000  Uiso   1.00
N1193  N     0.45069   0.50001   0.74999   0.00000  Uiso   1.00
N1194  N     0.54931   0.49999   0.75001   0.00000  Uiso   1.00
N1195  N     0.53115   0.44976   0.81019   0.00000  Uiso   1.00
N1196  N     0.46885   0.55024   0.68981   0.00000  Uiso   1.00
O1197  O     0.37291   0.43989   0.75000   0.00000  Uiso   1.00
O1198  O     0.62709   0.56011   0.75000   0.00000  Uiso   1.00
O1199  O     0.62706   0.43988   0.75000   0.00000  Uiso   1.00
O1200  O     0.37294   0.56012   0.74999   0.00000  Uiso   1.00
O1201  O     0.35186   0.50001   0.81491   0.00000  Uiso   1.00
O1202  O     0.64814   0.49999   0.68508   0.00000  Uiso   1.00
O1203  O     0.60600   0.50000   0.81492   0.00000  Uiso   1.00
O1204  O     0.39400   0.50000   0.68508   0.00000  Uiso   1.00
C1205  C     0.66714   0.42077   0.74876   0.00000  Uiso   1.00
C1206  C     0.71117   0.35372   0.73179   0.00000  Uiso   1.00
C1207  C     0.99901   0.62388   0.75203   0.00000  Uiso   1.00
C1208  C     0.66766   0.37612   0.74797   0.00000  Uiso   1.00
C1209  C     0.84929   0.47577   0.77938   0.00000  Uiso   1.00
C1210  C     0.81738   0.52423   0.72062   0.00000  Uiso   1.00
C1211  C     0.79968   0.47601   0.77929   0.00000  Uiso   1.00
C1212  C     0.86698   0.52399   0.72071   0.00000  Uiso   1.00
C1213  C     0.97273   0.49936   0.83595   0.00000  Uiso   1.00
C1214  C     0.69394   0.50064   0.66405   0.00000  Uiso   1.00
C1215  C     0.95755   0.49634   0.88479   0.00000  Uiso   1.00
C1216  C     0.99953   0.57923   0.75124   0.00000  Uiso   1.00
C1217  C     0.70911   0.50366   0.61521   0.00000  Uiso   1.00
C1218  C     0.97384   0.47994   0.95512   0.00000  Uiso   1.00
C1219  C     0.69283   0.52006   0.54488   0.00000  Uiso   1.00
C1220  C     0.99026   0.48521   0.90906   0.00000  Uiso   1.00
C1221  C     0.67641   0.51479   0.59094   0.00000  Uiso   1.00
C1222  C     0.90862   0.50241   0.90691   0.00000  Uiso   1.00
C1223  C     0.75804   0.49759   0.59309   0.00000  Uiso   1.00
C1224  C     0.89091   0.49704   0.95331   0.00000  Uiso   1.00
C1225  C     0.77575   0.50296   0.54669   0.00000  Uiso   1.00
C1226  C     0.92472   0.48615   0.97740   0.00000  Uiso   1.00
C1227  C     0.86133   0.48840   0.54640   0.00000  Uiso   1.00
C1228  C     0.74194   0.51386   0.52260   0.00000  Uiso   1.00
C1229  C     0.84086   0.50223   0.97632   0.00000  Uiso   1.00
C1230  C     0.82581   0.49777   0.52368   0.00000  Uiso   1.00
C1231  C     0.90837   0.62673   0.79017   0.00000  Uiso   1.00
C1232  C     0.87060   0.62688   0.76921   0.00000  Uiso   1.00
C1233  C     0.82573   0.60916   0.79052   0.00000  Uiso   1.00
C1234  C     0.81823   0.59155   0.83291   0.00000  Uiso   1.00
C1235  C     0.85553   0.59180   0.85412   0.00000  Uiso   1.00
C1236  C     0.90062   0.60902   0.83275   0.00000  Uiso   1.00
C1237  C     0.75830   0.37327   0.70983   0.00000  Uiso   1.00
C1238  C     0.80534   0.51160   0.95360   0.00000  Uiso   1.00
C1239  C     0.76604   0.39098   0.66725   0.00000  Uiso   1.00
C1240  C     0.81113   0.40820   0.64588   0.00000  Uiso   1.00
C1241  C     0.84843   0.40845   0.66709   0.00000  Uiso   1.00
C1242  C     0.84093   0.39084   0.70948   0.00000  Uiso   1.00
C1243  C     0.79607   0.37312   0.73079   0.00000  Uiso   1.00
C1244  C     0.90944   0.48188   0.52354   0.00000  Uiso   1.00
C1245  C     0.75723   0.51812   0.97646   0.00000  Uiso   1.00
C1246  C     0.95704   0.35553   0.76564   0.00000  Uiso   1.00
C1247  C     0.70962   0.64447   0.73436   0.00000  Uiso   1.00
C1248  C     0.95550   0.64628   0.76821   0.00000  Uiso   1.00
Cu1249 Cu    0.71355   0.50001   0.75000   0.00000  Uiso   1.00
Cu1250 Cu    0.95311   0.49999   0.75000   0.00000  Uiso   1.00
H1251  H     0.93504   0.47391   0.54234   0.00000  Uiso   1.00
H1252  H     0.81299   0.51396   0.91789   0.00000  Uiso   1.00
H1253  H     0.92383   0.37267   0.77896   0.00000  Uiso   1.00
H1254  H     0.74284   0.62733   0.72104   0.00000  Uiso   1.00
H1255  H     0.77388   0.45670   0.80256   0.00000  Uiso   1.00
H1256  H     0.89279   0.54330   0.69744   0.00000  Uiso   1.00
H1257  H     0.87603   0.64047   0.73637   0.00000  Uiso   1.00
H1258  H     0.79672   0.60918   0.77427   0.00000  Uiso   1.00
H1259  H     0.78344   0.57798   0.84944   0.00000  Uiso   1.00
H1260  H     0.84940   0.57906   0.88733   0.00000  Uiso   1.00
H1261  H     0.92926   0.60900   0.84951   0.00000  Uiso   1.00
H1262  H     0.73162   0.52609   0.95766   0.00000  Uiso   1.00
H1263  H     0.73740   0.39100   0.65049   0.00000  Uiso   1.00
H1264  H     0.81727   0.42095   0.61267   0.00000  Uiso   1.00
H1265  H     0.88323   0.42202   0.65056   0.00000  Uiso   1.00
H1266  H     0.86995   0.39081   0.72573   0.00000  Uiso   1.00
H1267  H     0.79064   0.35953   0.76363   0.00000  Uiso   1.00
H1268  H     0.84522   0.45836   0.84248   0.00000  Uiso   1.00
H1269  H     0.85443   0.41961   0.80528   0.00000  Uiso   1.00
H1270  H     0.81223   0.58039   0.69472   0.00000  Uiso   1.00
H1271  H     0.82144   0.54164   0.65752   0.00000  Uiso   1.00
H1272  H     0.78145   0.48857   0.61319   0.00000  Uiso   1.00
H1273  H     0.88521   0.51143   0.88681   0.00000  Uiso   1.00
H1274  H     0.97179   0.52012   0.60756   0.00000  Uiso   1.00
H1275  H     0.69488   0.47988   0.89244   0.00000  Uiso   1.00
H1276  H     0.99951   0.47071   0.97333   0.00000  Uiso   1.00
H1277  H     0.66716   0.52929   0.52667   0.00000  Uiso   1.00
H1278  H     0.85368   0.48604   0.58211   0.00000  Uiso   1.00
N1279  N     0.78403   0.50001   0.74999   0.00000  Uiso   1.00
N1280  N     0.88264   0.49999   0.75001   0.00000  Uiso   1.00
N1281  N     0.86449   0.44976   0.81019   0.00000  Uiso   1.00
N1282  N     0.80218   0.55024   0.68981   0.00000  Uiso   1.00
O1283  O     0.70625   0.43989   0.75000   0.00000  Uiso   1.00
O1284  O     0.96042   0.56011   0.75000   0.00000  Uiso   1.00
O1285  O     0.96039   0.43988   0.75000   0.00000  Uiso   1.00
O1286  O     0.70628   0.56012   0.74999   0.00000  Uiso   1.00
O1287  O     0.68519   0.50001   0.81491   0.00000  Uiso   1.00
O1288  O     0.98148   0.49999   0.68508   0.00000  Uiso   1.00
O1289  O     0.93933   0.50000   0.81492   0.00000  Uiso   1.00
O1290  O     0.72733   0.50000   0.68508   0.00000  Uiso   1.00
C1291  C     0.00047   0.75410   0.74876   0.00000  Uiso   1.00
C1292  C     0.04450   0.68705   0.73179   0.00000  Uiso   1.00
C1293  C     0.33234   0.95721   0.75203   0.00000  Uiso   1.00
C1294  C     0.00099   0.70946   0.74797   0.00000  Uiso   1.00
C1295  C     0.18262   0.80911   0.77938   0.00000  Uiso   1.00
C1296  C     0.15071   0.85756   0.72062   0.00000  Uiso   1.00
C1297  C     0.13302   0.80934   0.77929   0.00000  Uiso   1.00
C1298  C     0.20031   0.85733   0.72071   0.00000  Uiso   1.00
C1299  C     0.30606   0.83270   0.83595   0.00000  Uiso   1.00
C1300  C     0.02727   0.83397   0.66405   0.00000  Uiso   1.00
C1301  C     0.29089   0.82967   0.88479   0.00000  Uiso   1.00
C1302  C     0.33286   0.91256   0.75124   0.00000  Uiso   1.00
C1303  C     0.04245   0.83699   0.61521   0.00000  Uiso   1.00
C1304  C     0.30717   0.81327   0.95512   0.00000  Uiso   1.00
C1305  C     0.02616   0.85340   0.54488   0.00000  Uiso   1.00
C1306  C     0.32359   0.81854   0.90906   0.00000  Uiso   1.00
C1307  C     0.00974   0.84812   0.59094   0.00000  Uiso   1.00
C1308  C     0.24196   0.83574   0.90691   0.00000  Uiso   1.00
C1309  C     0.09138   0.83092   0.59309   0.00000  Uiso   1.00
C1310  C     0.22425   0.83038   0.95331   0.00000  Uiso   1.00
C1311  C     0.10909   0.83629   0.54669   0.00000  Uiso   1.00
C1312  C     0.25806   0.81948   0.97740   0.00000  Uiso   1.00
C1313  C     0.19466   0.82173   0.54640   0.00000  Uiso   1.00
C1314  C     0.07527   0.84719   0.52260   0.00000  Uiso   1.00
C1315  C     0.17419   0.83556   0.97632   0.00000  Uiso   1.00
C1316  C     0.15914   0.83111   0.52368   0.00000  Uiso   1.00
C1317  C     0.24170   0.96006   0.79017   0.00000  Uiso   1.00
C1318  C     0.20393   0.96022   0.76921   0.00000  Uiso   1.00
C1319  C     0.15907   0.94249   0.79052   0.00000  Uiso   1.00
C1320  C     0.15157   0.92488   0.83291   0.00000  Uiso   1.00
C1321  C     0.18887   0.92513   0.85412   0.00000  Uiso   1.00
C1322  C     0.23396   0.94235   0.83275   0.00000  Uiso   1.00
C1323  C     0.09163   0.70660   0.70983   0.00000  Uiso   1.00
C1324  C     0.13867   0.84493   0.95360   0.00000  Uiso   1.00
C1325  C     0.09938   0.72432   0.66725   0.00000  Uiso   1.00
C1326  C     0.14447   0.74153   0.64588   0.00000  Uiso   1.00
C1327  C     0.18177   0.74178   0.66709   0.00000  Uiso   1.00
C1328  C     0.17427   0.72418   0.70948   0.00000  Uiso   1.00
C1329  C     0.12940   0.70645   0.73079   0.00000  Uiso   1.00
C1330  C     0.24277   0.81522   0.52354   0.00000  Uiso   1.00
C1331  C     0.09056   0.85145   0.97646   0.00000  Uiso   1.00
C1332  C     0.29038   0.68886   0.76564   0.00000  Uiso   1.00
C1333  C     0.04296   0.97781   0.73436   0.00000  Uiso   1.00
C1334  C     0.28883   0.97961   0.76821   0.00000  Uiso   1.00
Cu1335 Cu    0.04689   0.83334   0.75000   0.00000  Uiso   1.00
Cu1336 Cu    0.28645   0.83333   0.75000   0.00000  Uiso   1.00
H1337  H     0.26838   0.80725   0.54234   0.00000  Uiso   1.00
H1338  H     0.14632   0.84729   0.91789   0.00000  Uiso   1.00
H1339  H     0.25716   0.70600   0.77896   0.00000  Uiso   1.00
H1340  H     0.07617   0.96067   0.72104   0.00000  Uiso   1.00
H1341  H     0.10721   0.79003   0.80256   0.00000  Uiso   1.00
H1342  H     0.22612   0.87663   0.69744   0.00000  Uiso   1.00
H1343  H     0.20936   0.97380   0.73637   0.00000  Uiso   1.00
H1344  H     0.13005   0.94252   0.77427   0.00000  Uiso   1.00
H1345  H     0.11677   0.91132   0.84944   0.00000  Uiso   1.00
H1346  H     0.18273   0.91239   0.88733   0.00000  Uiso   1.00
H1347  H     0.26260   0.94233   0.84951   0.00000  Uiso   1.00
H1348  H     0.06496   0.85942   0.95766   0.00000  Uiso   1.00
H1349  H     0.07074   0.72433   0.65049   0.00000  Uiso   1.00
H1350  H     0.15060   0.75428   0.61267   0.00000  Uiso   1.00
H1351  H     0.21656   0.75535   0.65056   0.00000  Uiso   1.00
H1352  H     0.20328   0.72415   0.72573   0.00000  Uiso   1.00
H1353  H     0.12397   0.69286   0.76363   0.00000  Uiso   1.00
H1354  H     0.17856   0.79170   0.84248   0.00000  Uiso   1.00
H1355  H     0.18776   0.75295   0.80528   0.00000  Uiso   1.00
H1356  H     0.14557   0.91372   0.69472   0.00000  Uiso   1.00
H1357  H     0.15478   0.87497   0.65752   0.00000  Uiso   1.00
H1358  H     0.11478   0.82191   0.61319   0.00000  Uiso   1.00
H1359  H     0.21855   0.84476   0.88681   0.00000  Uiso   1.00
H1360  H     0.30512   0.85346   0.60756   0.00000  Uiso   1.00
H1361  H     0.02821   0.81321   0.89244   0.00000  Uiso   1.00
H1362  H     0.33284   0.80405   0.97333   0.00000  Uiso   1.00
H1363  H     0.00049   0.86262   0.52667   0.00000  Uiso   1.00
H1364  H     0.18701   0.81938   0.58211   0.00000  Uiso   1.00
N1365  N     0.11736   0.83334   0.74999   0.00000  Uiso   1.00
N1366  N     0.21597   0.83332   0.75001   0.00000  Uiso   1.00
N1367  N     0.19782   0.78309   0.81019   0.00000  Uiso   1.00
N1368  N     0.13551   0.88357   0.68981   0.00000  Uiso   1.00
O1369  O     0.03958   0.77322   0.75000   0.00000  Uiso   1.00
O1370  O     0.29375   0.89345   0.75000   0.00000  Uiso   1.00
O1371  O     0.29372   0.77321   0.75000   0.00000  Uiso   1.00
O1372  O     0.03961   0.89346   0.74999   0.00000  Uiso   1.00
O1373  O     0.01852   0.83334   0.81491   0.00000  Uiso   1.00
O1374  O     0.31481   0.83332   0.68508   0.00000  Uiso   1.00
O1375  O     0.27267   0.83333   0.81492   0.00000  Uiso   1.00
O1376  O     0.06067   0.83333   0.68508   0.00000  Uiso   1.00
C1377  C     0.33380   0.75410   0.74876   0.00000  Uiso   1.00
C1378  C     0.37783   0.68705   0.73179   0.00000  Uiso   1.00
C1379  C     0.66567   0.95721   0.75203   0.00000  Uiso   1.00
C1380  C     0.33433   0.70946   0.74797   0.00000  Uiso   1.00
C1381  C     0.51596   0.80911   0.77938   0.00000  Uiso   1.00
C1382  C     0.48404   0.85756   0.72062   0.00000  Uiso   1.00
C1383  C     0.46635   0.80934   0.77929   0.00000  Uiso   1.00
C1384  C     0.53365   0.85733   0.72071   0.00000  Uiso   1.00
C1385  C     0.63940   0.83270   0.83595   0.00000  Uiso   1.00
C1386  C     0.36060   0.83397   0.66405   0.00000  Uiso   1.00
C1387  C     0.62422   0.82967   0.88479   0.00000  Uiso   1.00
C1388  C     0.66619   0.91256   0.75124   0.00000  Uiso   1.00
C1389  C     0.37578   0.83699   0.61521   0.00000  Uiso   1.00
C1390  C     0.64050   0.81327   0.95512   0.00000  Uiso   1.00
C1391  C     0.35949   0.85340   0.54488   0.00000  Uiso   1.00
C1392  C     0.65692   0.81854   0.90906   0.00000  Uiso   1.00
C1393  C     0.34307   0.84812   0.59094   0.00000  Uiso   1.00
C1394  C     0.57529   0.83574   0.90691   0.00000  Uiso   1.00
C1395  C     0.42471   0.83092   0.59309   0.00000  Uiso   1.00
C1396  C     0.55758   0.83038   0.95331   0.00000  Uiso   1.00
C1397  C     0.44242   0.83629   0.54669   0.00000  Uiso   1.00
C1398  C     0.59139   0.81948   0.97740   0.00000  Uiso   1.00
C1399  C     0.52799   0.82173   0.54640   0.00000  Uiso   1.00
C1400  C     0.40861   0.84719   0.52260   0.00000  Uiso   1.00
C1401  C     0.50752   0.83556   0.97632   0.00000  Uiso   1.00
C1402  C     0.49247   0.83111   0.52368   0.00000  Uiso   1.00
C1403  C     0.57504   0.96006   0.79017   0.00000  Uiso   1.00
C1404  C     0.53726   0.96022   0.76921   0.00000  Uiso   1.00
C1405  C     0.49240   0.94249   0.79052   0.00000  Uiso   1.00
C1406  C     0.48490   0.92488   0.83291   0.00000  Uiso   1.00
C1407  C     0.52220   0.92513   0.85412   0.00000  Uiso   1.00
C1408  C     0.56729   0.94235   0.83275   0.00000  Uiso   1.00
C1409  C     0.42496   0.70660   0.70983   0.00000  Uiso   1.00
C1410  C     0.47201   0.84493   0.95360   0.00000  Uiso   1.00
C1411  C     0.43271   0.72432   0.66725   0.00000  Uiso   1.00
C1412  C     0.47780   0.74153   0.64588   0.00000  Uiso   1.00
C1413  C     0.51510   0.74178   0.66709   0.00000  Uiso   1.00
C1414  C     0.50760   0.72418   0.70948   0.00000  Uiso   1.00
C1415  C     0.46274   0.70645   0.73079   0.00000  Uiso   1.00
C1416  C     0.57611   0.81522   0.52354   0.00000  Uiso   1.00
C1417  C     0.42389   0.85145   0.97646   0.00000  Uiso   1.00
C1418  C     0.62371   0.68886   0.76564   0.00000  Uiso   1.00
C1419  C     0.37629   0.97781   0.73436   0.00000  Uiso   1.00
C1420  C     0.62217   0.97961   0.76821   0.00000  Uiso   1.00
Cu1421 Cu    0.38022   0.83334   0.75000   0.00000  Uiso   1.00
Cu1422 Cu    0.61978   0.83333   0.75000   0.00000  Uiso   1.00
H1423  H     0.60171   0.80725   0.54234   0.00000  Uiso   1.00
H1424  H     0.47966   0.84729   0.91789   0.00000  Uiso   1.00
H1425  H     0.59049   0.70600   0.77896   0.00000  Uiso   1.00
H1426  H     0.40951   0.96067   0.72104   0.00000  Uiso   1.00
H1427  H     0.44055   0.79003   0.80256   0.00000  Uiso   1.00
H1428  H     0.55945   0.87663   0.69744   0.00000  Uiso   1.00
H1429  H     0.54270   0.97380   0.73637   0.00000  Uiso   1.00
H1430  H     0.46338   0.94252   0.77427   0.00000  Uiso   1.00
H1431  H     0.45011   0.91132   0.84944   0.00000  Uiso   1.00
H1432  H     0.51607   0.91239   0.88733   0.00000  Uiso   1.00
H1433  H     0.59593   0.94233   0.84951   0.00000  Uiso   1.00
H1434  H     0.39829   0.85942   0.95766   0.00000  Uiso   1.00
H1435  H     0.40407   0.72433   0.65049   0.00000  Uiso   1.00
H1436  H     0.48393   0.75428   0.61267   0.00000  Uiso   1.00
H1437  H     0.54989   0.75535   0.65056   0.00000  Uiso   1.00
H1438  H     0.53662   0.72415   0.72573   0.00000  Uiso   1.00
H1439  H     0.45730   0.69286   0.76363   0.00000  Uiso   1.00
H1440  H     0.51189   0.79170   0.84248   0.00000  Uiso   1.00
H1441  H     0.52110   0.75295   0.80528   0.00000  Uiso   1.00
H1442  H     0.47890   0.91372   0.69472   0.00000  Uiso   1.00
H1443  H     0.48811   0.87497   0.65752   0.00000  Uiso   1.00
H1444  H     0.44812   0.82191   0.61319   0.00000  Uiso   1.00
H1445  H     0.55188   0.84476   0.88681   0.00000  Uiso   1.00
H1446  H     0.63845   0.85346   0.60756   0.00000  Uiso   1.00
H1447  H     0.36154   0.81321   0.89244   0.00000  Uiso   1.00
H1448  H     0.66618   0.80405   0.97333   0.00000  Uiso   1.00
H1449  H     0.33382   0.86262   0.52667   0.00000  Uiso   1.00
H1450  H     0.52034   0.81938   0.58211   0.00000  Uiso   1.00
N1451  N     0.45069   0.83334   0.74999   0.00000  Uiso   1.00
N1452  N     0.54931   0.83332   0.75001   0.00000  Uiso   1.00
N1453  N     0.53115   0.78309   0.81019   0.00000  Uiso   1.00
N1454  N     0.46885   0.88357   0.68981   0.00000  Uiso   1.00
O1455  O     0.37291   0.77322   0.75000   0.00000  Uiso   1.00
O1456  O     0.62709   0.89345   0.75000   0.00000  Uiso   1.00
O1457  O     0.62706   0.77321   0.75000   0.00000  Uiso   1.00
O1458  O     0.37294   0.89346   0.74999   0.00000  Uiso   1.00
O1459  O     0.35186   0.83334   0.81491   0.00000  Uiso   1.00
O1460  O     0.64814   0.83332   0.68508   0.00000  Uiso   1.00
O1461  O     0.60600   0.83333   0.81492   0.00000  Uiso   1.00
O1462  O     0.39400   0.83333   0.68508   0.00000  Uiso   1.00
C1463  C     0.66714   0.75410   0.74876   0.00000  Uiso   1.00
C1464  C     0.71117   0.68705   0.73179   0.00000  Uiso   1.00
C1465  C     0.99901   0.95721   0.75203   0.00000  Uiso   1.00
C1466  C     0.66766   0.70946   0.74797   0.00000  Uiso   1.00
C1467  C     0.84929   0.80911   0.77938   0.00000  Uiso   1.00
C1468  C     0.81738   0.85756   0.72062   0.00000  Uiso   1.00
C1469  C     0.79968   0.80934   0.77929   0.00000  Uiso   1.00
C1470  C     0.86698   0.85733   0.72071   0.00000  Uiso   1.00
C1471  C     0.97273   0.83270   0.83595   0.00000  Uiso   1.00
C1472  C     0.69394   0.83397   0.66405   0.00000  Uiso   1.00
C1473  C     0.95755   0.82967   0.88479   0.00000  Uiso   1.00
C1474  C     0.99953   0.91256   0.75124   0.00000  Uiso   1.00
C1475  C     0.70911   0.83699   0.61521   0.00000  Uiso   1.00
C1476  C     0.97384   0.81327   0.95512   0.00000  Uiso   1.00
C1477  C     0.69283   0.85340   0.54488   0.00000  Uiso   1.00
C1478  C     0.99026   0.81854   0.90906   0.00000  Uiso   1.00
C1479  C     0.67641   0.84812   0.59094   0.00000  Uiso   1.00
C1480  C     0.90862   0.83574   0.90691   0.00000  Uiso   1.00
C1481  C     0.75804   0.83092   0.59309   0.00000  Uiso   1.00
C1482  C     0.89091   0.83038   0.95331   0.00000  Uiso   1.00
C1483  C     0.77575   0.83629   0.54669   0.00000  Uiso   1.00
C1484  C     0.92472   0.81948   0.97740   0.00000  Uiso   1.00
C1485  C     0.86133   0.82173   0.54640   0.00000  Uiso   1.00
C1486  C     0.74194   0.84719   0.52260   0.00000  Uiso   1.00
C1487  C     0.84086   0.83556   0.97632   0.00000  Uiso   1.00
C1488  C     0.82581   0.83111   0.52368   0.00000  Uiso   1.00
C1489  C     0.90837   0.96006   0.79017   0.00000  Uiso   1.00
C1490  C     0.87060   0.96022   0.76921   0.00000  Uiso   1.00
C1491  C     0.82573   0.94249   0.79052   0.00000  Uiso   1.00
C1492  C     0.81823   0.92488   0.83291   0.00000  Uiso   1.00
C1493  C     0.85553   0.92513   0.85412   0.00000  Uiso   1.00
C1494  C     0.90062   0.94235   0.83275   0.00000  Uiso   1.00
C1495  C     0.75830   0.70660   0.70983   0.00000  Uiso   1.00
C1496  C     0.80534   0.84493   0.95360   0.00000  Uiso   1.00
C1497  C     0.76604   0.72432   0.66725   0.00000  Uiso   1.00
C1498  C     0.81113   0.74153   0.64588   0.00000  Uiso   1.00
C1499  C     0.84843   0.74178   0.66709   0.00000  Uiso   1.00
C1500  C     0.84093   0.72418   0.70948   0.00000  Uiso   1.00
C1501  C     0.79607   0.70645   0.73079   0.00000  Uiso   1.00
C1502  C     0.90944   0.81522   0.52354   0.00000  Uiso   1.00
C1503  C     0.75723   0.85145   0.97646   0.00000  Uiso   1.00
C1504  C     0.95704   0.68886   0.76564   0.00000  Uiso   1.00
C1505  C     0.70962   0.97781   0.73436   0.00000  Uiso   1.00
C1506  C     0.95550   0.97961   0.76821   0.00000  Uiso   1.00
Cu1507 Cu    0.71355   0.83334   0.75000   0.00000  Uiso   1.00
Cu1508 Cu    0.95311   0.83333   0.75000   0.00000  Uiso   1.00
H1509  H     0.93504   0.80725   0.54234   0.00000  Uiso   1.00
H1510  H     0.81299   0.84729   0.91789   0.00000  Uiso   1.00
H1511  H     0.92383   0.70600   0.77896   0.00000  Uiso   1.00
H1512  H     0.74284   0.96067   0.72104   0.00000  Uiso   1.00
H1513  H     0.77388   0.79003   0.80256   0.00000  Uiso   1.00
H1514  H     0.89279   0.87663   0.69744   0.00000  Uiso   1.00
H1515  H     0.87603   0.97380   0.73637   0.00000  Uiso   1.00
H1516  H     0.79672   0.94252   0.77427   0.00000  Uiso   1.00
H1517  H     0.78344   0.91132   0.84944   0.00000  Uiso   1.00
H1518  H     0.84940   0.91239   0.88733   0.00000  Uiso   1.00
H1519  H     0.92926   0.94233   0.84951   0.00000  Uiso   1.00
H1520  H     0.73162   0.85942   0.95766   0.00000  Uiso   1.00
H1521  H     0.73740   0.72433   0.65049   0.00000  Uiso   1.00
H1522  H     0.81727   0.75428   0.61267   0.00000  Uiso   1.00
H1523  H     0.88323   0.75535   0.65056   0.00000  Uiso   1.00
H1524  H     0.86995   0.72415   0.72573   0.00000  Uiso   1.00
H1525  H     0.79064   0.69286   0.76363   0.00000  Uiso   1.00
H1526  H     0.84522   0.79170   0.84248   0.00000  Uiso   1.00
H1527  H     0.85443   0.75295   0.80528   0.00000  Uiso   1.00
H1528  H     0.81223   0.91372   0.69472   0.00000  Uiso   1.00
H1529  H     0.82144   0.87497   0.65752   0.00000  Uiso   1.00
H1530  H     0.78145   0.82191   0.61319   0.00000  Uiso   1.00
H1531  H     0.88521   0.84476   0.88681   0.00000  Uiso   1.00
H1532  H     0.97179   0.85346   0.60756   0.00000  Uiso   1.00
H1533  H     0.69488   0.81321   0.89244   0.00000  Uiso   1.00
H1534  H     0.99951   0.80405   0.97333   0.00000  Uiso   1.00
H1535  H     0.66716   0.86262   0.52667   0.00000  Uiso   1.00
H1536  H     0.85368   0.81938   0.58211   0.00000  Uiso   1.00
N1537  N     0.78403   0.83334   0.74999   0.00000  Uiso   1.00
N1538  N     0.88264   0.83332   0.75001   0.00000  Uiso   1.00
N1539  N     0.86449   0.78309   0.81019   0.00000  Uiso   1.00
N1540  N     0.80218   0.88357   0.68981   0.00000  Uiso   1.00
O1541  O     0.70625   0.77322   0.75000   0.00000  Uiso   1.00
O1542  O     0.96042   0.89345   0.75000   0.00000  Uiso   1.00
O1543  O     0.96039   0.77321   0.75000   0.00000  Uiso   1.00
O1544  O     0.70628   0.89346   0.74999   0.00000  Uiso   1.00
O1545  O     0.68519   0.83334   0.81491   0.00000  Uiso   1.00
O1546  O     0.98148   0.83332   0.68508   0.00000  Uiso   1.00
O1547  O     0.93933   0.83333   0.81492   0.00000  Uiso   1.00
O1548  O     0.72733   0.83333   0.68508   0.00000  Uiso   1.00
loop_
_geom_bond_atom_site_label_1
_geom_bond_atom_site_label_2
_geom_bond_distance
_geom_bond_site_symmetry_2
_ccdc_geom_bond_type
C1     O79     1.290   .     A
C1     C4      1.452   .     S
C1     O253    1.295   1_455 S
C2     C4      1.413   .     A
C2     C33     1.479   .     S
C2     C559    1.387   1_545 S
C3     C12     1.452   .     S
C3     C44     1.413   .     A
C3     C129    1.399   .     S
C4     C214    1.399   1_455 S
C5     C7      1.420   .     A
C5     N77     1.429   .     S
C5     N76     1.374   .     A
C6     N75     1.374   .     A
C6     C8      1.420   .     A
C6     N78     1.429   .     S
C7     N75     1.362   .     A
C7     H51     1.082   .     S
C8     N76     1.362   .     A
C8     H52     1.082   .     S
C9     O85     1.295   .     A
C9     C11     1.465   .     S
C9     O169    1.297   .     S
C10    O86     1.295   .     A
C10    C13     1.465   .     S
C10    O256    1.297   1_455 S
C11    C18     1.397   .     A
C11    C16     1.398   .     A
C12    O80     1.290   .     A
C12    O168    1.295   .     S
C13    C19     1.397   .     A
C13    C17     1.398   .     A
C14    C16     1.391   .     A
C14    H72     1.083   .     S
C14    C22     1.404   .     A
C15    C24     1.404   .     A
C15    H73     1.083   .     S
C15    C17     1.391   .     A
C16    H157    1.083   .     S
C17    H242    1.083   1_455 S
C18    H69     1.072   .     S
C18    C20     1.404   .     A
C19    C21     1.404   .     A
C19    H68     1.072   .     S
C20    C25     1.428   .     A
C20    C22     1.418   .     A
C21    C26     1.428   .     A
C21    C24     1.418   .     A
C22    C814    1.389   .     S
C23    C40     1.385   .     A
C23    C26     1.418   .     A
C23    H74     1.075   .     S
C24    C815    1.389   1_554 S
C25    C34     1.418   .     A
C25    C800    1.425   .     S
C26    C799    1.425   1_554 S
C27    C44     1.479   .     S
C27    C32     1.403   .     A
C27    C28     1.404   .     A
C28    C29     1.399   .     A
C28    H53     1.083   .     S
C29    C30     1.397   .     A
C29    H54     1.082   .     S
C30    C31     1.398   .     A
C30    H55     1.082   .     S
C31    H56     1.080   .     S
C31    C32     1.398   .     A
C32    H57     1.083   .     S
C33    C39     1.404   .     A
C33    C35     1.403   .     A
C34    C41     1.385   .     A
C34    H48     1.075   .     S
C35    H59     1.083   .     S
C35    C36     1.398   .     A
C36    C37     1.398   .     A
C36    H60     1.080   .     S
C37    C38     1.397   .     A
C37    H61     1.082   .     S
C38    C39     1.399   .     A
C38    H62     1.082   .     S
C39    H63     1.083   .     S
C40    H47     1.084   .     S
C40    C796    1.389   1_554 S
C41    H58     1.084   .     S
C41    C798    1.389   .     S
C42    H49     1.084   .     S
C42    C90     1.399   .     S
C42    C560    1.387   1_545 S
C43    H50     1.084   .     S
C43    C175    1.399   1_455 S
C43    C260    1.387   .     S
C44    C300    1.387   .     S
Cu45   O82     1.966   .     S
Cu45   O83     1.962   .     S
Cu45   O79     1.966   .     S
Cu45   N75     2.016   .     S
Cu45   O86     1.950   .     S
Cu45   Cu218   2.682   1_455 S
Cu46   N76     2.016   .     S
Cu46   O85     1.950   .     S
Cu46   O81     1.966   .     S
Cu46   O84     1.962   .     S
Cu46   O80     1.966   .     S
Cu46   Cu131   2.682   .     S
H64    N77     1.046   .     S
H65    N77     1.045   .     S
H66    N78     1.045   .     S
H67    N78     1.046   .     S
H70    C103    1.083   .     S
H71    C188    1.083   1_455 S
O81    C87     1.295   .     S
O82    C184    1.295   1_455 S
O83    C181    1.297   1_455 S
O84    C96     1.297   .     S
C87    O165    1.290   .     A
C87    C90     1.452   .     S
C88    C90     1.413   .     A
C88    C119    1.479   .     S
C88    C645    1.387   1_545 S
C89    C98     1.452   .     S
C89    C130    1.413   .     A
C89    C215    1.399   .     S
C91    C93     1.420   .     A
C91    N163    1.429   .     S
C91    N162    1.374   .     A
C92    N161    1.374   .     A
C92    C94     1.420   .     A
C92    N164    1.429   .     S
C93    N161    1.362   .     A
C93    H137    1.082   .     S
C94    N162    1.362   .     A
C94    H138    1.082   .     S
C95    O171    1.295   .     A
C95    C97     1.465   .     S
C95    O255    1.297   .     S
C96    O172    1.295   .     A
C96    C99     1.465   .     S
C97    C104    1.397   .     A
C97    C102    1.398   .     A
C98    O166    1.290   .     A
C98    O254    1.295   .     S
C99    C105    1.397   .     A
C99    C103    1.398   .     A
C100   C102    1.391   .     A
C100   H158    1.083   .     S
C100   C108    1.404   .     A
C101   C110    1.404   .     A
C101   H159    1.083   .     S
C101   C103    1.391   .     A
C102   H243    1.083   .     S
C104   H155    1.072   .     S
C104   C106    1.404   .     A
C105   C107    1.404   .     A
C105   H154    1.072   .     S
C106   C111    1.428   .     A
C106   C108    1.418   .     A
C107   C112    1.428   .     A
C107   C110    1.418   .     A
C108   C900    1.389   .     S
C109   C126    1.385   .     A
C109   C112    1.418   .     A
C109   H160    1.075   .     S
C110   C901    1.389   1_554 S
C111   C120    1.418   .     A
C111   C886    1.425   .     S
C112   C885    1.425   1_554 S
C113   C130    1.479   .     S
C113   C118    1.403   .     A
C113   C114    1.404   .     A
C114   C115    1.399   .     A
C114   H139    1.083   .     S
C115   C116    1.397   .     A
C115   H140    1.082   .     S
C116   C117    1.398   .     A
C116   H141    1.082   .     S
C117   H142    1.080   .     S
C117   C118    1.398   .     A
C118   H143    1.083   .     S
C119   C125    1.404   .     A
C119   C121    1.403   .     A
C120   C127    1.385   .     A
C120   H134    1.075   .     S
C121   H145    1.083   .     S
C121   C122    1.398   .     A
C122   C123    1.398   .     A
C122   H146    1.080   .     S
C123   C124    1.397   .     A
C123   H147    1.082   .     S
C124   C125    1.399   .     A
C124   H148    1.082   .     S
C125   H149    1.083   .     S
C126   H133    1.084   .     S
C126   C882    1.389   1_554 S
C127   H144    1.084   .     S
C127   C884    1.389   .     S
C128   H135    1.084   .     S
C128   C176    1.399   .     S
C128   C646    1.387   1_545 S
C129   H136    1.084   .     S
C129   C346    1.387   .     S
C130   C386    1.387   .     S
Cu131  O168    1.966   .     S
Cu131  O169    1.962   .     S
Cu131  O165    1.966   .     S
Cu131  N161    2.016   .     S
Cu131  O172    1.950   .     S
Cu132  N162    2.016   .     S
Cu132  O171    1.950   .     S
Cu132  O167    1.966   .     S
Cu132  O170    1.962   .     S
Cu132  O166    1.966   .     S
Cu132  Cu217   2.682   .     S
H150   N163    1.046   .     S
H151   N163    1.045   .     S
H152   N164    1.045   .     S
H153   N164    1.046   .     S
H156   C189    1.083   .     S
O167   C173    1.295   .     S
O170   C182    1.297   .     S
C173   O251    1.290   .     A
C173   C176    1.452   .     S
C174   C176    1.413   .     A
C174   C205    1.479   .     S
C174   C731    1.387   1_545 S
C175   C184    1.452   .     S
C175   C216    1.413   .     A
C175   C43     1.399   1_655 S
C177   C179    1.420   .     A
C177   N249    1.429   .     S
C177   N248    1.374   .     A
C178   N247    1.374   .     A
C178   C180    1.420   .     A
C178   N250    1.429   .     S
C179   N247    1.362   .     A
C179   H223    1.082   .     S
C180   N248    1.362   .     A
C180   H224    1.082   .     S
C181   O257    1.295   .     A
C181   C183    1.465   .     S
C181   O83     1.297   1_655 S
C182   O258    1.295   .     A
C182   C185    1.465   .     S
C183   C190    1.397   .     A
C183   C188    1.398   .     A
C184   O252    1.290   .     A
C184   O82     1.295   1_655 S
C185   C191    1.397   .     A
C185   C189    1.398   .     A
C186   C188    1.391   .     A
C186   H244    1.083   .     S
C186   C194    1.404   .     A
C187   C196    1.404   .     A
C187   H245    1.083   .     S
C187   C189    1.391   .     A
C188   H71     1.083   1_655 S
C190   H241    1.072   .     S
C190   C192    1.404   .     A
C191   C193    1.404   .     A
C191   H240    1.072   .     S
C192   C197    1.428   .     A
C192   C194    1.418   .     A
C193   C198    1.428   .     A
C193   C196    1.418   .     A
C194   C986    1.389   .     S
C195   C212    1.385   .     A
C195   C198    1.418   .     A
C195   H246    1.075   .     S
C196   C987    1.389   1_554 S
C197   C206    1.418   .     A
C197   C972    1.425   .     S
C198   C971    1.425   1_554 S
C199   C216    1.479   .     S
C199   C204    1.403   .     A
C199   C200    1.404   .     A
C200   C201    1.399   .     A
C200   H225    1.083   .     S
C201   C202    1.397   .     A
C201   H226    1.082   .     S
C202   C203    1.398   .     A
C202   H227    1.082   .     S
C203   H228    1.080   .     S
C203   C204    1.398   .     A
C204   H229    1.083   .     S
C205   C211    1.404   .     A
C205   C207    1.403   .     A
C206   C213    1.385   .     A
C206   H220    1.075   .     S
C207   H231    1.083   .     S
C207   C208    1.398   .     A
C208   C209    1.398   .     A
C208   H232    1.080   .     S
C209   C210    1.397   .     A
C209   H233    1.082   .     S
C210   C211    1.399   .     A
C210   H234    1.082   .     S
C211   H235    1.083   .     S
C212   H219    1.084   .     S
C212   C968    1.389   1_554 S
C213   H230    1.084   .     S
C213   C970    1.389   .     S
C214   H221    1.084   .     S
C214   C4      1.399   1_655 S
C214   C732    1.387   1_545 S
C215   H222    1.084   .     S
C215   C432    1.387   .     S
C216   C472    1.387   .     S
Cu217  O254    1.966   .     S
Cu217  O255    1.962   .     S
Cu217  O251    1.966   .     S
Cu217  N247    2.016   .     S
Cu217  O258    1.950   .     S
Cu218  N248    2.016   .     S
Cu218  O257    1.950   .     S
Cu218  O253    1.966   .     S
Cu218  O256    1.962   .     S
Cu218  O252    1.966   .     S
Cu218  Cu45    2.682   1_655 S
H236   N249    1.046   .     S
H237   N249    1.045   .     S
H238   N250    1.045   .     S
H239   N250    1.046   .     S
H242   C17     1.083   1_655 S
O253   C1      1.295   1_655 S
O256   C10     1.297   1_655 S
C259   O337    1.290   .     A
C259   C262    1.452   .     S
C259   O511    1.295   1_455 S
C260   C262    1.413   .     A
C260   C291    1.479   .     S
C261   C270    1.452   .     S
C261   C302    1.413   .     A
C261   C387    1.399   .     S
C262   C472    1.399   1_455 S
C263   C265    1.420   .     A
C263   N335    1.429   .     S
C263   N334    1.374   .     A
C264   N333    1.374   .     A
C264   C266    1.420   .     A
C264   N336    1.429   .     S
C265   N333    1.362   .     A
C265   H309    1.082   .     S
C266   N334    1.362   .     A
C266   H310    1.082   .     S
C267   O343    1.295   .     A
C267   C269    1.465   .     S
C267   O427    1.297   .     S
C268   O344    1.295   .     A
C268   C271    1.465   .     S
C268   O514    1.297   1_455 S
C269   C276    1.397   .     A
C269   C274    1.398   .     A
C270   O338    1.290   .     A
C270   O426    1.295   .     S
C271   C277    1.397   .     A
C271   C275    1.398   .     A
C272   C274    1.391   .     A
C272   H330    1.083   .     S
C272   C280    1.404   .     A
C273   C282    1.404   .     A
C273   H331    1.083   .     S
C273   C275    1.391   .     A
C274   H415    1.083   .     S
C275   H500    1.083   1_455 S
C276   H327    1.072   .     S
C276   C278    1.404   .     A
C277   C279    1.404   .     A
C277   H326    1.072   .     S
C278   C283    1.428   .     A
C278   C280    1.418   .     A
C279   C284    1.428   .     A
C279   C282    1.418   .     A
C280   C1072   1.389   .     S
C281   C298    1.385   .     A
C281   C284    1.418   .     A
C281   H332    1.075   .     S
C282   C1073   1.389   1_554 S
C283   C292    1.418   .     A
C283   C1058   1.425   .     S
C284   C1057   1.425   1_554 S
C285   C302    1.479   .     S
C285   C290    1.403   .     A
C285   C286    1.404   .     A
C286   C287    1.399   .     A
C286   H311    1.083   .     S
C287   C288    1.397   .     A
C287   H312    1.082   .     S
C288   C289    1.398   .     A
C288   H313    1.082   .     S
C289   H314    1.080   .     S
C289   C290    1.398   .     A
C290   H315    1.083   .     S
C291   C297    1.404   .     A
C291   C293    1.403   .     A
C292   C299    1.385   .     A
C292   H306    1.075   .     S
C293   H317    1.083   .     S
C293   C294    1.398   .     A
C294   C295    1.398   .     A
C294   H318    1.080   .     S
C295   C296    1.397   .     A
C295   H319    1.082   .     S
C296   C297    1.399   .     A
C296   H320    1.082   .     S
C297   H321    1.083   .     S
C298   H305    1.084   .     S
C298   C1054   1.389   1_554 S
C299   H316    1.084   .     S
C299   C1056   1.389   .     S
C300   H307    1.084   .     S
C300   C348    1.399   .     S
C301   H308    1.084   .     S
C301   C433    1.399   1_455 S
C301   C518    1.387   .     S
C302   C558    1.387   .     S
Cu303  O340    1.966   .     S
Cu303  O341    1.962   .     S
Cu303  O337    1.966   .     S
Cu303  N333    2.016   .     S
Cu303  O344    1.950   .     S
Cu303  Cu476   2.682   1_455 S
Cu304  N334    2.016   .     S
Cu304  O343    1.950   .     S
Cu304  O339    1.966   .     S
Cu304  O342    1.962   .     S
Cu304  O338    1.966   .     S
Cu304  Cu389   2.682   .     S
H322   N335    1.046   .     S
H323   N335    1.045   .     S
H324   N336    1.045   .     S
H325   N336    1.046   .     S
H328   C361    1.083   .     S
H329   C446    1.083   1_455 S
O339   C345    1.295   .     S
O340   C442    1.295   1_455 S
O341   C439    1.297   1_455 S
O342   C354    1.297   .     S
C345   O423    1.290   .     A
C345   C348    1.452   .     S
C346   C348    1.413   .     A
C346   C377    1.479   .     S
C347   C356    1.452   .     S
C347   C388    1.413   .     A
C347   C473    1.399   .     S
C349   C351    1.420   .     A
C349   N421    1.429   .     S
C349   N420    1.374   .     A
C350   N419    1.374   .     A
C350   C352    1.420   .     A
C350   N422    1.429   .     S
C351   N419    1.362   .     A
C351   H395    1.082   .     S
C352   N420    1.362   .     A
C352   H396    1.082   .     S
C353   O429    1.295   .     A
C353   C355    1.465   .     S
C353   O513    1.297   .     S
C354   O430    1.295   .     A
C354   C357    1.465   .     S
C355   C362    1.397   .     A
C355   C360    1.398   .     A
C356   O424    1.290   .     A
C356   O512    1.295   .     S
C357   C363    1.397   .     A
C357   C361    1.398   .     A
C358   C360    1.391   .     A
C358   H416    1.083   .     S
C358   C366    1.404   .     A
C359   C368    1.404   .     A
C359   H417    1.083   .     S
C359   C361    1.391   .     A
C360   H501    1.083   .     S
C362   H413    1.072   .     S
C362   C364    1.404   .     A
C363   C365    1.404   .     A
C363   H412    1.072   .     S
C364   C369    1.428   .     A
C364   C366    1.418   .     A
C365   C370    1.428   .     A
C365   C368    1.418   .     A
C366   C1158   1.389   .     S
C367   C384    1.385   .     A
C367   C370    1.418   .     A
C367   H418    1.075   .     S
C368   C1159   1.389   1_554 S
C369   C378    1.418   .     A
C369   C1144   1.425   .     S
C370   C1143   1.425   1_554 S
C371   C388    1.479   .     S
C371   C376    1.403   .     A
C371   C372    1.404   .     A
C372   C373    1.399   .     A
C372   H397    1.083   .     S
C373   C374    1.397   .     A
C373   H398    1.082   .     S
C374   C375    1.398   .     A
C374   H399    1.082   .     S
C375   H400    1.080   .     S
C375   C376    1.398   .     A
C376   H401    1.083   .     S
C377   C383    1.404   .     A
C377   C379    1.403   .     A
C378   C385    1.385   .     A
C378   H392    1.075   .     S
C379   H403    1.083   .     S
C379   C380    1.398   .     A
C380   C381    1.398   .     A
C380   H404    1.080   .     S
C381   C382    1.397   .     A
C381   H405    1.082   .     S
C382   C383    1.399   .     A
C382   H406    1.082   .     S
C383   H407    1.083   .     S
C384   H391    1.084   .     S
C384   C1140   1.389   1_554 S
C385   H402    1.084   .     S
C385   C1142   1.389   .     S
C386   H393    1.084   .     S
C386   C434    1.399   .     S
C387   H394    1.084   .     S
C387   C604    1.387   .     S
C388   C644    1.387   .     S
Cu389  O426    1.966   .     S
Cu389  O427    1.962   .     S
Cu389  O423    1.966   .     S
Cu389  N419    2.016   .     S
Cu389  O430    1.950   .     S
Cu390  N420    2.016   .     S
Cu390  O429    1.950   .     S
Cu390  O425    1.966   .     S
Cu390  O428    1.962   .     S
Cu390  O424    1.966   .     S
Cu390  Cu475   2.682   .     S
H408   N421    1.046   .     S
H409   N421    1.045   .     S
H410   N422    1.045   .     S
H411   N422    1.046   .     S
H414   C447    1.083   .     S
O425   C431    1.295   .     S
O428   C440    1.297   .     S
C431   O509    1.290   .     A
C431   C434    1.452   .     S
C432   C434    1.413   .     A
C432   C463    1.479   .     S
C433   C442    1.452   .     S
C433   C474    1.413   .     A
C433   C301    1.399   1_655 S
C435   C437    1.420   .     A
C435   N507    1.429   .     S
C435   N506    1.374   .     A
C436   N505    1.374   .     A
C436   C438    1.420   .     A
C436   N508    1.429   .     S
C437   N505    1.362   .     A
C437   H481    1.082   .     S
C438   N506    1.362   .     A
C438   H482    1.082   .     S
C439   O515    1.295   .     A
C439   C441    1.465   .     S
C439   O341    1.297   1_655 S
C440   O516    1.295   .     A
C440   C443    1.465   .     S
C441   C448    1.397   .     A
C441   C446    1.398   .     A
C442   O510    1.290   .     A
C442   O340    1.295   1_655 S
C443   C449    1.397   .     A
C443   C447    1.398   .     A
C444   C446    1.391   .     A
C444   H502    1.083   .     S
C444   C452    1.404   .     A
C445   C454    1.404   .     A
C445   H503    1.083   .     S
C445   C447    1.391   .     A
C446   H329    1.083   1_655 S
C448   H499    1.072   .     S
C448   C450    1.404   .     A
C449   C451    1.404   .     A
C449   H498    1.072   .     S
C450   C455    1.428   .     A
C450   C452    1.418   .     A
C451   C456    1.428   .     A
C451   C454    1.418   .     A
C452   C1244   1.389   .     S
C453   C470    1.385   .     A
C453   C456    1.418   .     A
C453   H504    1.075   .     S
C454   C1245   1.389   1_554 S
C455   C464    1.418   .     A
C455   C1230   1.425   .     S
C456   C1229   1.425   1_554 S
C457   C474    1.479   .     S
C457   C462    1.403   .     A
C457   C458    1.404   .     A
C458   C459    1.399   .     A
C458   H483    1.083   .     S
C459   C460    1.397   .     A
C459   H484    1.082   .     S
C460   C461    1.398   .     A
C460   H485    1.082   .     S
C461   H486    1.080   .     S
C461   C462    1.398   .     A
C462   H487    1.083   .     S
C463   C469    1.404   .     A
C463   C465    1.403   .     A
C464   C471    1.385   .     A
C464   H478    1.075   .     S
C465   H489    1.083   .     S
C465   C466    1.398   .     A
C466   C467    1.398   .     A
C466   H490    1.080   .     S
C467   C468    1.397   .     A
C467   H491    1.082   .     S
C468   C469    1.399   .     A
C468   H492    1.082   .     S
C469   H493    1.083   .     S
C470   H477    1.084   .     S
C470   C1226   1.389   1_554 S
C471   H488    1.084   .     S
C471   C1228   1.389   .     S
C472   H479    1.084   .     S
C472   C262    1.399   1_655 S
C473   H480    1.084   .     S
C473   C690    1.387   .     S
C474   C730    1.387   .     S
Cu475  O512    1.966   .     S
Cu475  O513    1.962   .     S
Cu475  O509    1.966   .     S
Cu475  N505    2.016   .     S
Cu475  O516    1.950   .     S
Cu476  N506    2.016   .     S
Cu476  O515    1.950   .     S
Cu476  O511    1.966   .     S
Cu476  O514    1.962   .     S
Cu476  O510    1.966   .     S
Cu476  Cu303   2.682   1_655 S
H494   N507    1.046   .     S
H495   N507    1.045   .     S
H496   N508    1.045   .     S
H497   N508    1.046   .     S
H500   C275    1.083   1_655 S
O511   C259    1.295   1_655 S
O514   C268    1.297   1_655 S
C517   O595    1.290   .     A
C517   C520    1.452   .     S
C517   O769    1.295   1_455 S
C518   C520    1.413   .     A
C518   C549    1.479   .     S
C519   C528    1.452   .     S
C519   C560    1.413   .     A
C519   C645    1.399   .     S
C520   C730    1.399   1_455 S
C521   C523    1.420   .     A
C521   N593    1.429   .     S
C521   N592    1.374   .     A
C522   N591    1.374   .     A
C522   C524    1.420   .     A
C522   N594    1.429   .     S
C523   N591    1.362   .     A
C523   H567    1.082   .     S
C524   N592    1.362   .     A
C524   H568    1.082   .     S
C525   O601    1.295   .     A
C525   C527    1.465   .     S
C525   O685    1.297   .     S
C526   O602    1.295   .     A
C526   C529    1.465   .     S
C526   O772    1.297   1_455 S
C527   C534    1.397   .     A
C527   C532    1.398   .     A
C528   O596    1.290   .     A
C528   O684    1.295   .     S
C529   C535    1.397   .     A
C529   C533    1.398   .     A
C530   C532    1.391   .     A
C530   H588    1.083   .     S
C530   C538    1.404   .     A
C531   C540    1.404   .     A
C531   H589    1.083   .     S
C531   C533    1.391   .     A
C532   H673    1.083   .     S
C533   H758    1.083   1_455 S
C534   H585    1.072   .     S
C534   C536    1.404   .     A
C535   C537    1.404   .     A
C535   H584    1.072   .     S
C536   C541    1.428   .     A
C536   C538    1.418   .     A
C537   C542    1.428   .     A
C537   C540    1.418   .     A
C538   C1330   1.389   .     S
C539   C556    1.385   .     A
C539   C542    1.418   .     A
C539   H590    1.075   .     S
C540   C1331   1.389   1_554 S
C541   C550    1.418   .     A
C541   C1316   1.425   .     S
C542   C1315   1.425   1_554 S
C543   C560    1.479   .     S
C543   C548    1.403   .     A
C543   C544    1.404   .     A
C544   C545    1.399   .     A
C544   H569    1.083   .     S
C545   C546    1.397   .     A
C545   H570    1.082   .     S
C546   C547    1.398   .     A
C546   H571    1.082   .     S
C547   H572    1.080   .     S
C547   C548    1.398   .     A
C548   H573    1.083   .     S
C549   C555    1.404   .     A
C549   C551    1.403   .     A
C550   C557    1.385   .     A
C550   H564    1.075   .     S
C551   H575    1.083   .     S
C551   C552    1.398   .     A
C552   C553    1.398   .     A
C552   H576    1.080   .     S
C553   C554    1.397   .     A
C553   H577    1.082   .     S
C554   C555    1.399   .     A
C554   H578    1.082   .     S
C555   H579    1.083   .     S
C556   H563    1.084   .     S
C556   C1312   1.389   1_554 S
C557   H574    1.084   .     S
C557   C1314   1.389   .     S
C558   H565    1.084   .     S
C558   C606    1.399   .     S
C559   H566    1.084   .     S
C559   C691    1.399   1_455 S
C559   C2      1.387   1_565 S
C560   C42     1.387   1_565 S
Cu561  O598    1.966   .     S
Cu561  O599    1.962   .     S
Cu561  O595    1.966   .     S
Cu561  N591    2.016   .     S
Cu561  O602    1.950   .     S
Cu561  Cu734   2.682   1_455 S
Cu562  N592    2.016   .     S
Cu562  O601    1.950   .     S
Cu562  O597    1.966   .     S
Cu562  O600    1.962   .     S
Cu562  O596    1.966   .     S
Cu562  Cu647   2.682   .     S
H580   N593    1.046   .     S
H581   N593    1.045   .     S
H582   N594    1.045   .     S
H583   N594    1.046   .     S
H586   C619    1.083   .     S
H587   C704    1.083   1_455 S
O597   C603    1.295   .     S
O598   C700    1.295   1_455 S
O599   C697    1.297   1_455 S
O600   C612    1.297   .     S
C603   O681    1.290   .     A
C603   C606    1.452   .     S
C604   C606    1.413   .     A
C604   C635    1.479   .     S
C605   C614    1.452   .     S
C605   C646    1.413   .     A
C605   C731    1.399   .     S
C607   C609    1.420   .     A
C607   N679    1.429   .     S
C607   N678    1.374   .     A
C608   N677    1.374   .     A
C608   C610    1.420   .     A
C608   N680    1.429   .     S
C609   N677    1.362   .     A
C609   H653    1.082   .     S
C610   N678    1.362   .     A
C610   H654    1.082   .     S
C611   O687    1.295   .     A
C611   C613    1.465   .     S
C611   O771    1.297   .     S
C612   O688    1.295   .     A
C612   C615    1.465   .     S
C613   C620    1.397   .     A
C613   C618    1.398   .     A
C614   O682    1.290   .     A
C614   O770    1.295   .     S
C615   C621    1.397   .     A
C615   C619    1.398   .     A
C616   C618    1.391   .     A
C616   H674    1.083   .     S
C616   C624    1.404   .     A
C617   C626    1.404   .     A
C617   H675    1.083   .     S
C617   C619    1.391   .     A
C618   H759    1.083   .     S
C620   H671    1.072   .     S
C620   C622    1.404   .     A
C621   C623    1.404   .     A
C621   H670    1.072   .     S
C622   C627    1.428   .     A
C622   C624    1.418   .     A
C623   C628    1.428   .     A
C623   C626    1.418   .     A
C624   C1416   1.389   .     S
C625   C642    1.385   .     A
C625   C628    1.418   .     A
C625   H676    1.075   .     S
C626   C1417   1.389   1_554 S
C627   C636    1.418   .     A
C627   C1402   1.425   .     S
C628   C1401   1.425   1_554 S
C629   C646    1.479   .     S
C629   C634    1.403   .     A
C629   C630    1.404   .     A
C630   C631    1.399   .     A
C630   H655    1.083   .     S
C631   C632    1.397   .     A
C631   H656    1.082   .     S
C632   C633    1.398   .     A
C632   H657    1.082   .     S
C633   H658    1.080   .     S
C633   C634    1.398   .     A
C634   H659    1.083   .     S
C635   C641    1.404   .     A
C635   C637    1.403   .     A
C636   C643    1.385   .     A
C636   H650    1.075   .     S
C637   H661    1.083   .     S
C637   C638    1.398   .     A
C638   C639    1.398   .     A
C638   H662    1.080   .     S
C639   C640    1.397   .     A
C639   H663    1.082   .     S
C640   C641    1.399   .     A
C640   H664    1.082   .     S
C641   H665    1.083   .     S
C642   H649    1.084   .     S
C642   C1398   1.389   1_554 S
C643   H660    1.084   .     S
C643   C1400   1.389   .     S
C644   H651    1.084   .     S
C644   C692    1.399   .     S
C645   H652    1.084   .     S
C645   C88     1.387   1_565 S
C646   C128    1.387   1_565 S
Cu647  O684    1.966   .     S
Cu647  O685    1.962   .     S
Cu647  O681    1.966   .     S
Cu647  N677    2.016   .     S
Cu647  O688    1.950   .     S
Cu648  N678    2.016   .     S
Cu648  O687    1.950   .     S
Cu648  O683    1.966   .     S
Cu648  O686    1.962   .     S
Cu648  O682    1.966   .     S
Cu648  Cu733   2.682   .     S
H666   N679    1.046   .     S
H667   N679    1.045   .     S
H668   N680    1.045   .     S
H669   N680    1.046   .     S
H672   C705    1.083   .     S
O683   C689    1.295   .     S
O686   C698    1.297   .     S
C689   O767    1.290   .     A
C689   C692    1.452   .     S
C690   C692    1.413   .     A
C690   C721    1.479   .     S
C691   C700    1.452   .     S
C691   C732    1.413   .     A
C691   C559    1.399   1_655 S
C693   C695    1.420   .     A
C693   N765    1.429   .     S
C693   N764    1.374   .     A
C694   N763    1.374   .     A
C694   C696    1.420   .     A
C694   N766    1.429   .     S
C695   N763    1.362   .     A
C695   H739    1.082   .     S
C696   N764    1.362   .     A
C696   H740    1.082   .     S
C697   O773    1.295   .     A
C697   C699    1.465   .     S
C697   O599    1.297   1_655 S
C698   O774    1.295   .     A
C698   C701    1.465   .     S
C699   C706    1.397   .     A
C699   C704    1.398   .     A
C700   O768    1.290   .     A
C700   O598    1.295   1_655 S
C701   C707    1.397   .     A
C701   C705    1.398   .     A
C702   C704    1.391   .     A
C702   H760    1.083   .     S
C702   C710    1.404   .     A
C703   C712    1.404   .     A
C703   H761    1.083   .     S
C703   C705    1.391   .     A
C704   H587    1.083   1_655 S
C706   H757    1.072   .     S
C706   C708    1.404   .     A
C707   C709    1.404   .     A
C707   H756    1.072   .     S
C708   C713    1.428   .     A
C708   C710    1.418   .     A
C709   C714    1.428   .     A
C709   C712    1.418   .     A
C710   C1502   1.389   .     S
C711   C728    1.385   .     A
C711   C714    1.418   .     A
C711   H762    1.075   .     S
C712   C1503   1.389   1_554 S
C713   C722    1.418   .     A
C713   C1488   1.425   .     S
C714   C1487   1.425   1_554 S
C715   C732    1.479   .     S
C715   C720    1.403   .     A
C715   C716    1.404   .     A
C716   C717    1.399   .     A
C716   H741    1.083   .     S
C717   C718    1.397   .     A
C717   H742    1.082   .     S
C718   C719    1.398   .     A
C718   H743    1.082   .     S
C719   H744    1.080   .     S
C719   C720    1.398   .     A
C720   H745    1.083   .     S
C721   C727    1.404   .     A
C721   C723    1.403   .     A
C722   C729    1.385   .     A
C722   H736    1.075   .     S
C723   H747    1.083   .     S
C723   C724    1.398   .     A
C724   C725    1.398   .     A
C724   H748    1.080   .     S
C725   C726    1.397   .     A
C725   H749    1.082   .     S
C726   C727    1.399   .     A
C726   H750    1.082   .     S
C727   H751    1.083   .     S
C728   H735    1.084   .     S
C728   C1484   1.389   1_554 S
C729   H746    1.084   .     S
C729   C1486   1.389   .     S
C730   H737    1.084   .     S
C730   C520    1.399   1_655 S
C731   H738    1.084   .     S
C731   C174    1.387   1_565 S
C732   C214    1.387   1_565 S
Cu733  O770    1.966   .     S
Cu733  O771    1.962   .     S
Cu733  O767    1.966   .     S
Cu733  N763    2.016   .     S
Cu733  O774    1.950   .     S
Cu734  N764    2.016   .     S
Cu734  O773    1.950   .     S
Cu734  O769    1.966   .     S
Cu734  O772    1.962   .     S
Cu734  O768    1.966   .     S
Cu734  Cu561   2.682   1_655 S
H752   N765    1.046   .     S
H753   N765    1.045   .     S
H754   N766    1.045   .     S
H755   N766    1.046   .     S
H758   C533    1.083   1_655 S
O769   C517    1.295   1_655 S
O772   C526    1.297   1_655 S
C775   O853    1.290   .     A
C775   C778    1.452   .     S
C775   O1027   1.295   1_455 S
C776   C778    1.413   .     A
C776   C807    1.479   .     S
C776   C1333   1.387   1_545 S
C777   C786    1.452   .     S
C777   C818    1.413   .     A
C777   C903    1.399   .     S
C778   C988    1.399   1_455 S
C779   C781    1.420   .     A
C779   N851    1.429   .     S
C779   N850    1.374   .     A
C780   N849    1.374   .     A
C780   C782    1.420   .     A
C780   N852    1.429   .     S
C781   N849    1.362   .     A
C781   H825    1.082   .     S
C782   N850    1.362   .     A
C782   H826    1.082   .     S
C783   O859    1.295   .     A
C783   C785    1.465   .     S
C783   O943    1.297   .     S
C784   O860    1.295   .     A
C784   C787    1.465   .     S
C784   O1030   1.297   1_455 S
C785   C792    1.397   .     A
C785   C790    1.398   .     A
C786   O854    1.290   .     A
C786   O942    1.295   .     S
C787   C793    1.397   .     A
C787   C791    1.398   .     A
C788   C790    1.391   .     A
C788   H846    1.083   .     S
C788   C796    1.404   .     A
C789   C798    1.404   .     A
C789   H847    1.083   .     S
C789   C791    1.391   .     A
C790   H931    1.083   .     S
C791   H1016   1.083   1_455 S
C792   H843    1.072   .     S
C792   C794    1.404   .     A
C793   C795    1.404   .     A
C793   H842    1.072   .     S
C794   C799    1.428   .     A
C794   C796    1.418   .     A
C795   C800    1.428   .     A
C795   C798    1.418   .     A
C796   C40     1.389   1_556 S
C797   C814    1.385   .     A
C797   C800    1.418   .     A
C797   H848    1.075   .     S
C799   C808    1.418   .     A
C799   C26     1.425   1_556 S
C801   C818    1.479   .     S
C801   C806    1.403   .     A
C801   C802    1.404   .     A
C802   C803    1.399   .     A
C802   H827    1.083   .     S
C803   C804    1.397   .     A
C803   H828    1.082   .     S
C804   C805    1.398   .     A
C804   H829    1.082   .     S
C805   H830    1.080   .     S
C805   C806    1.398   .     A
C806   H831    1.083   .     S
C807   C813    1.404   .     A
C807   C809    1.403   .     A
C808   C815    1.385   .     A
C808   H822    1.075   .     S
C809   H833    1.083   .     S
C809   C810    1.398   .     A
C810   C811    1.398   .     A
C810   H834    1.080   .     S
C811   C812    1.397   .     A
C811   H835    1.082   .     S
C812   C813    1.399   .     A
C812   H836    1.082   .     S
C813   H837    1.083   .     S
C814   H821    1.084   .     S
C815   H832    1.084   .     S
C815   C24     1.389   1_556 S
C816   H823    1.084   .     S
C816   C864    1.399   .     S
C816   C1334   1.387   1_545 S
C817   H824    1.084   .     S
C817   C949    1.399   1_455 S
C817   C1034   1.387   .     S
C818   C1074   1.387   .     S
Cu819  O856    1.966   .     S
Cu819  O857    1.962   .     S
Cu819  O853    1.966   .     S
Cu819  N849    2.016   .     S
Cu819  O860    1.950   .     S
Cu819  Cu992   2.682   1_455 S
Cu820  N850    2.016   .     S
Cu820  O859    1.950   .     S
Cu820  O855    1.966   .     S
Cu820  O858    1.962   .     S
Cu820  O854    1.966   .     S
Cu820  Cu905   2.682   .     S
H838   N851    1.046   .     S
H839   N851    1.045   .     S
H840   N852    1.045   .     S
H841   N852    1.046   .     S
H844   C877    1.083   .     S
H845   C962    1.083   1_455 S
O855   C861    1.295   .     S
O856   C958    1.295   1_455 S
O857   C955    1.297   1_455 S
O858   C870    1.297   .     S
C861   O939    1.290   .     A
C861   C864    1.452   .     S
C862   C864    1.413   .     A
C862   C893    1.479   .     S
C862   C1419   1.387   1_545 S
C863   C872    1.452   .     S
C863   C904    1.413   .     A
C863   C989    1.399   .     S
C865   C867    1.420   .     A
C865   N937    1.429   .     S
C865   N936    1.374   .     A
C866   N935    1.374   .     A
C866   C868    1.420   .     A
C866   N938    1.429   .     S
C867   N935    1.362   .     A
C867   H911    1.082   .     S
C868   N936    1.362   .     A
C868   H912    1.082   .     S
C869   O945    1.295   .     A
C869   C871    1.465   .     S
C869   O1029   1.297   .     S
C870   O946    1.295   .     A
C870   C873    1.465   .     S
C871   C878    1.397   .     A
C871   C876    1.398   .     A
C872   O940    1.290   .     A
C872   O1028   1.295   .     S
C873   C879    1.397   .     A
C873   C877    1.398   .     A
C874   C876    1.391   .     A
C874   H932    1.083   .     S
C874   C882    1.404   .     A
C875   C884    1.404   .     A
C875   H933    1.083   .     S
C875   C877    1.391   .     A
C876   H1017   1.083   .     S
C878   H929    1.072   .     S
C878   C880    1.404   .     A
C879   C881    1.404   .     A
C879   H928    1.072   .     S
C880   C885    1.428   .     A
C880   C882    1.418   .     A
C881   C886    1.428   .     A
C881   C884    1.418   .     A
C882   C126    1.389   1_556 S
C883   C900    1.385   .     A
C883   C886    1.418   .     A
C883   H934    1.075   .     S
C885   C894    1.418   .     A
C885   C112    1.425   1_556 S
C887   C904    1.479   .     S
C887   C892    1.403   .     A
C887   C888    1.404   .     A
C888   C889    1.399   .     A
C888   H913    1.083   .     S
C889   C890    1.397   .     A
C889   H914    1.082   .     S
C890   C891    1.398   .     A
C890   H915    1.082   .     S
C891   H916    1.080   .     S
C891   C892    1.398   .     A
C892   H917    1.083   .     S
C893   C899    1.404   .     A
C893   C895    1.403   .     A
C894   C901    1.385   .     A
C894   H908    1.075   .     S
C895   H919    1.083   .     S
C895   C896    1.398   .     A
C896   C897    1.398   .     A
C896   H920    1.080   .     S
C897   C898    1.397   .     A
C897   H921    1.082   .     S
C898   C899    1.399   .     A
C898   H922    1.082   .     S
C899   H923    1.083   .     S
C900   H907    1.084   .     S
C901   H918    1.084   .     S
C901   C110    1.389   1_556 S
C902   H909    1.084   .     S
C902   C950    1.399   .     S
C902   C1420   1.387   1_545 S
C903   H910    1.084   .     S
C903   C1120   1.387   .     S
C904   C1160   1.387   .     S
Cu905  O942    1.966   .     S
Cu905  O943    1.962   .     S
Cu905  O939    1.966   .     S
Cu905  N935    2.016   .     S
Cu905  O946    1.950   .     S
Cu906  N936    2.016   .     S
Cu906  O945    1.950   .     S
Cu906  O941    1.966   .     S
Cu906  O944    1.962   .     S
Cu906  O940    1.966   .     S
Cu906  Cu991   2.682   .     S
H924   N937    1.046   .     S
H925   N937    1.045   .     S
H926   N938    1.045   .     S
H927   N938    1.046   .     S
H930   C963    1.083   .     S
O941   C947    1.295   .     S
O944   C956    1.297   .     S
C947   O1025   1.290   .     A
C947   C950    1.452   .     S
C948   C950    1.413   .     A
C948   C979    1.479   .     S
C948   C1505   1.387   1_545 S
C949   C958    1.452   .     S
C949   C990    1.413   .     A
C949   C817    1.399   1_655 S
C951   C953    1.420   .     A
C951   N1023   1.429   .     S
C951   N1022   1.374   .     A
C952   N1021   1.374   .     A
C952   C954    1.420   .     A
C952   N1024   1.429   .     S
C953   N1021   1.362   .     A
C953   H997    1.082   .     S
C954   N1022   1.362   .     A
C954   H998    1.082   .     S
C955   O1031   1.295   .     A
C955   C957    1.465   .     S
C955   O857    1.297   1_655 S
C956   O1032   1.295   .     A
C956   C959    1.465   .     S
C957   C964    1.397   .     A
C957   C962    1.398   .     A
C958   O1026   1.290   .     A
C958   O856    1.295   1_655 S
C959   C965    1.397   .     A
C959   C963    1.398   .     A
C960   C962    1.391   .     A
C960   H1018   1.083   .     S
C960   C968    1.404   .     A
C961   C970    1.404   .     A
C961   H1019   1.083   .     S
C961   C963    1.391   .     A
C962   H845    1.083   1_655 S
C964   H1015   1.072   .     S
C964   C966    1.404   .     A
C965   C967    1.404   .     A
C965   H1014   1.072   .     S
C966   C971    1.428   .     A
C966   C968    1.418   .     A
C967   C972    1.428   .     A
C967   C970    1.418   .     A
C968   C212    1.389   1_556 S
C969   C986    1.385   .     A
C969   C972    1.418   .     A
C969   H1020   1.075   .     S
C971   C980    1.418   .     A
C971   C198    1.425   1_556 S
C973   C990    1.479   .     S
C973   C978    1.403   .     A
C973   C974    1.404   .     A
C974   C975    1.399   .     A
C974   H999    1.083   .     S
C975   C976    1.397   .     A
C975   H1000   1.082   .     S
C976   C977    1.398   .     A
C976   H1001   1.082   .     S
C977   H1002   1.080   .     S
C977   C978    1.398   .     A
C978   H1003   1.083   .     S
C979   C985    1.404   .     A
C979   C981    1.403   .     A
C980   C987    1.385   .     A
C980   H994    1.075   .     S
C981   H1005   1.083   .     S
C981   C982    1.398   .     A
C982   C983    1.398   .     A
C982   H1006   1.080   .     S
C983   C984    1.397   .     A
C983   H1007   1.082   .     S
C984   C985    1.399   .     A
C984   H1008   1.082   .     S
C985   H1009   1.083   .     S
C986   H993    1.084   .     S
C987   H1004   1.084   .     S
C987   C196    1.389   1_556 S
C988   H995    1.084   .     S
C988   C778    1.399   1_655 S
C988   C1506   1.387   1_545 S
C989   H996    1.084   .     S
C989   C1206   1.387   .     S
C990   C1246   1.387   .     S
Cu991  O1028   1.966   .     S
Cu991  O1029   1.962   .     S
Cu991  O1025   1.966   .     S
Cu991  N1021   2.016   .     S
Cu991  O1032   1.950   .     S
Cu992  N1022   2.016   .     S
Cu992  O1031   1.950   .     S
Cu992  O1027   1.966   .     S
Cu992  O1030   1.962   .     S
Cu992  O1026   1.966   .     S
Cu992  Cu819   2.682   1_655 S
H1010  N1023   1.046   .     S
H1011  N1023   1.045   .     S
H1012  N1024   1.045   .     S
H1013  N1024   1.046   .     S
H1016  C791    1.083   1_655 S
O1027  C775    1.295   1_655 S
O1030  C784    1.297   1_655 S
C1033  O1111   1.290   .     A
C1033  C1036   1.452   .     S
C1033  O1285   1.295   1_455 S
C1034  C1036   1.413   .     A
C1034  C1065   1.479   .     S
C1035  C1044   1.452   .     S
C1035  C1076   1.413   .     A
C1035  C1161   1.399   .     S
C1036  C1246   1.399   1_455 S
C1037  C1039   1.420   .     A
C1037  N1109   1.429   .     S
C1037  N1108   1.374   .     A
C1038  N1107   1.374   .     A
C1038  C1040   1.420   .     A
C1038  N1110   1.429   .     S
C1039  N1107   1.362   .     A
C1039  H1083   1.082   .     S
C1040  N1108   1.362   .     A
C1040  H1084   1.082   .     S
C1041  O1117   1.295   .     A
C1041  C1043   1.465   .     S
C1041  O1201   1.297   .     S
C1042  O1118   1.295   .     A
C1042  C1045   1.465   .     S
C1042  O1288   1.297   1_455 S
C1043  C1050   1.397   .     A
C1043  C1048   1.398   .     A
C1044  O1112   1.290   .     A
C1044  O1200   1.295   .     S
C1045  C1051   1.397   .     A
C1045  C1049   1.398   .     A
C1046  C1048   1.391   .     A
C1046  H1104   1.083   .     S
C1046  C1054   1.404   .     A
C1047  C1056   1.404   .     A
C1047  H1105   1.083   .     S
C1047  C1049   1.391   .     A
C1048  H1189   1.083   .     S
C1049  H1274   1.083   1_455 S
C1050  H1101   1.072   .     S
C1050  C1052   1.404   .     A
C1051  C1053   1.404   .     A
C1051  H1100   1.072   .     S
C1052  C1057   1.428   .     A
C1052  C1054   1.418   .     A
C1053  C1058   1.428   .     A
C1053  C1056   1.418   .     A
C1054  C298    1.389   1_556 S
C1055  C1072   1.385   .     A
C1055  C1058   1.418   .     A
C1055  H1106   1.075   .     S
C1057  C1066   1.418   .     A
C1057  C284    1.425   1_556 S
C1059  C1076   1.479   .     S
C1059  C1064   1.403   .     A
C1059  C1060   1.404   .     A
C1060  C1061   1.399   .     A
C1060  H1085   1.083   .     S
C1061  C1062   1.397   .     A
C1061  H1086   1.082   .     S
C1062  C1063   1.398   .     A
C1062  H1087   1.082   .     S
C1063  H1088   1.080   .     S
C1063  C1064   1.398   .     A
C1064  H1089   1.083   .     S
C1065  C1071   1.404   .     A
C1065  C1067   1.403   .     A
C1066  C1073   1.385   .     A
C1066  H1080   1.075   .     S
C1067  H1091   1.083   .     S
C1067  C1068   1.398   .     A
C1068  C1069   1.398   .     A
C1068  H1092   1.080   .     S
C1069  C1070   1.397   .     A
C1069  H1093   1.082   .     S
C1070  C1071   1.399   .     A
C1070  H1094   1.082   .     S
C1071  H1095   1.083   .     S
C1072  H1079   1.084   .     S
C1073  H1090   1.084   .     S
C1073  C282    1.389   1_556 S
C1074  H1081   1.084   .     S
C1074  C1122   1.399   .     S
C1075  H1082   1.084   .     S
C1075  C1207   1.399   1_455 S
C1075  C1292   1.387   .     S
C1076  C1332   1.387   .     S
Cu1077 O1114   1.966   .     S
Cu1077 O1115   1.962   .     S
Cu1077 O1111   1.966   .     S
Cu1077 N1107   2.016   .     S
Cu1077 O1118   1.950   .     S
Cu1077 Cu1250  2.682   1_455 S
Cu1078 N1108   2.016   .     S
Cu1078 O1117   1.950   .     S
Cu1078 O1113   1.966   .     S
Cu1078 O1116   1.962   .     S
Cu1078 O1112   1.966   .     S
Cu1078 Cu1163  2.682   .     S
H1096  N1109   1.046   .     S
H1097  N1109   1.045   .     S
H1098  N1110   1.045   .     S
H1099  N1110   1.046   .     S
H1102  C1135   1.083   .     S
H1103  C1220   1.083   1_455 S
O1113  C1119   1.295   .     S
O1114  C1216   1.295   1_455 S
O1115  C1213   1.297   1_455 S
O1116  C1128   1.297   .     S
C1119  O1197   1.290   .     A
C1119  C1122   1.452   .     S
C1120  C1122   1.413   .     A
C1120  C1151   1.479   .     S
C1121  C1130   1.452   .     S
C1121  C1162   1.413   .     A
C1121  C1247   1.399   .     S
C1123  C1125   1.420   .     A
C1123  N1195   1.429   .     S
C1123  N1194   1.374   .     A
C1124  N1193   1.374   .     A
C1124  C1126   1.420   .     A
C1124  N1196   1.429   .     S
C1125  N1193   1.362   .     A
C1125  H1169   1.082   .     S
C1126  N1194   1.362   .     A
C1126  H1170   1.082   .     S
C1127  O1203   1.295   .     A
C1127  C1129   1.465   .     S
C1127  O1287   1.297   .     S
C1128  O1204   1.295   .     A
C1128  C1131   1.465   .     S
C1129  C1136   1.397   .     A
C1129  C1134   1.398   .     A
C1130  O1198   1.290   .     A
C1130  O1286   1.295   .     S
C1131  C1137   1.397   .     A
C1131  C1135   1.398   .     A
C1132  C1134   1.391   .     A
C1132  H1190   1.083   .     S
C1132  C1140   1.404   .     A
C1133  C1142   1.404   .     A
C1133  H1191   1.083   .     S
C1133  C1135   1.391   .     A
C1134  H1275   1.083   .     S
C1136  H1187   1.072   .     S
C1136  C1138   1.404   .     A
C1137  C1139   1.404   .     A
C1137  H1186   1.072   .     S
C1138  C1143   1.428   .     A
C1138  C1140   1.418   .     A
C1139  C1144   1.428   .     A
C1139  C1142   1.418   .     A
C1140  C384    1.389   1_556 S
C1141  C1158   1.385   .     A
C1141  C1144   1.418   .     A
C1141  H1192   1.075   .     S
C1143  C1152   1.418   .     A
C1143  C370    1.425   1_556 S
C1145  C1162   1.479   .     S
C1145  C1150   1.403   .     A
C1145  C1146   1.404   .     A
C1146  C1147   1.399   .     A
C1146  H1171   1.083   .     S
C1147  C1148   1.397   .     A
C1147  H1172   1.082   .     S
C1148  C1149   1.398   .     A
C1148  H1173   1.082   .     S
C1149  H1174   1.080   .     S
C1149  C1150   1.398   .     A
C1150  H1175   1.083   .     S
C1151  C1157   1.404   .     A
C1151  C1153   1.403   .     A
C1152  C1159   1.385   .     A
C1152  H1166   1.075   .     S
C1153  H1177   1.083   .     S
C1153  C1154   1.398   .     A
C1154  C1155   1.398   .     A
C1154  H1178   1.080   .     S
C1155  C1156   1.397   .     A
C1155  H1179   1.082   .     S
C1156  C1157   1.399   .     A
C1156  H1180   1.082   .     S
C1157  H1181   1.083   .     S
C1158  H1165   1.084   .     S
C1159  H1176   1.084   .     S
C1159  C368    1.389   1_556 S
C1160  H1167   1.084   .     S
C1160  C1208   1.399   .     S
C1161  H1168   1.084   .     S
C1161  C1378   1.387   .     S
C1162  C1418   1.387   .     S
Cu1163 O1200   1.966   .     S
Cu1163 O1201   1.962   .     S
Cu1163 O1197   1.966   .     S
Cu1163 N1193   2.016   .     S
Cu1163 O1204   1.950   .     S
Cu1164 N1194   2.016   .     S
Cu1164 O1203   1.950   .     S
Cu1164 O1199   1.966   .     S
Cu1164 O1202   1.962   .     S
Cu1164 O1198   1.966   .     S
Cu1164 Cu1249  2.682   .     S
H1182  N1195   1.046   .     S
H1183  N1195   1.045   .     S
H1184  N1196   1.045   .     S
H1185  N1196   1.046   .     S
H1188  C1221   1.083   .     S
O1199  C1205   1.295   .     S
O1202  C1214   1.297   .     S
C1205  O1283   1.290   .     A
C1205  C1208   1.452   .     S
C1206  C1208   1.413   .     A
C1206  C1237   1.479   .     S
C1207  C1216   1.452   .     S
C1207  C1248   1.413   .     A
C1207  C1075   1.399   1_655 S
C1209  C1211   1.420   .     A
C1209  N1281   1.429   .     S
C1209  N1280   1.374   .     A
C1210  N1279   1.374   .     A
C1210  C1212   1.420   .     A
C1210  N1282   1.429   .     S
C1211  N1279   1.362   .     A
C1211  H1255   1.082   .     S
C1212  N1280   1.362   .     A
C1212  H1256   1.082   .     S
C1213  O1289   1.295   .     A
C1213  C1215   1.465   .     S
C1213  O1115   1.297   1_655 S
C1214  O1290   1.295   .     A
C1214  C1217   1.465   .     S
C1215  C1222   1.397   .     A
C1215  C1220   1.398   .     A
C1216  O1284   1.290   .     A
C1216  O1114   1.295   1_655 S
C1217  C1223   1.397   .     A
C1217  C1221   1.398   .     A
C1218  C1220   1.391   .     A
C1218  H1276   1.083   .     S
C1218  C1226   1.404   .     A
C1219  C1228   1.404   .     A
C1219  H1277   1.083   .     S
C1219  C1221   1.391   .     A
C1220  H1103   1.083   1_655 S
C1222  H1273   1.072   .     S
C1222  C1224   1.404   .     A
C1223  C1225   1.404   .     A
C1223  H1272   1.072   .     S
C1224  C1229   1.428   .     A
C1224  C1226   1.418   .     A
C1225  C1230   1.428   .     A
C1225  C1228   1.418   .     A
C1226  C470    1.389   1_556 S
C1227  C1244   1.385   .     A
C1227  C1230   1.418   .     A
C1227  H1278   1.075   .     S
C1229  C1238   1.418   .     A
C1229  C456    1.425   1_556 S
C1231  C1248   1.479   .     S
C1231  C1236   1.403   .     A
C1231  C1232   1.404   .     A
C1232  C1233   1.399   .     A
C1232  H1257   1.083   .     S
C1233  C1234   1.397   .     A
C1233  H1258   1.082   .     S
C1234  C1235   1.398   .     A
C1234  H1259   1.082   .     S
C1235  H1260   1.080   .     S
C1235  C1236   1.398   .     A
C1236  H1261   1.083   .     S
C1237  C1243   1.404   .     A
C1237  C1239   1.403   .     A
C1238  C1245   1.385   .     A
C1238  H1252   1.075   .     S
C1239  H1263   1.083   .     S
C1239  C1240   1.398   .     A
C1240  C1241   1.398   .     A
C1240  H1264   1.080   .     S
C1241  C1242   1.397   .     A
C1241  H1265   1.082   .     S
C1242  C1243   1.399   .     A
C1242  H1266   1.082   .     S
C1243  H1267   1.083   .     S
C1244  H1251   1.084   .     S
C1245  H1262   1.084   .     S
C1245  C454    1.389   1_556 S
C1246  H1253   1.084   .     S
C1246  C1036   1.399   1_655 S
C1247  H1254   1.084   .     S
C1247  C1464   1.387   .     S
C1248  C1504   1.387   .     S
Cu1249 O1286   1.966   .     S
Cu1249 O1287   1.962   .     S
Cu1249 O1283   1.966   .     S
Cu1249 N1279   2.016   .     S
Cu1249 O1290   1.950   .     S
Cu1250 N1280   2.016   .     S
Cu1250 O1289   1.950   .     S
Cu1250 O1285   1.966   .     S
Cu1250 O1288   1.962   .     S
Cu1250 O1284   1.966   .     S
Cu1250 Cu1077  2.682   1_655 S
H1268  N1281   1.046   .     S
H1269  N1281   1.045   .     S
H1270  N1282   1.045   .     S
H1271  N1282   1.046   .     S
H1274  C1049   1.083   1_655 S
O1285  C1033   1.295   1_655 S
O1288  C1042   1.297   1_655 S
C1291  O1369   1.290   .     A
C1291  C1294   1.452   .     S
C1291  O1543   1.295   1_455 S
C1292  C1294   1.413   .     A
C1292  C1323   1.479   .     S
C1293  C1302   1.452   .     S
C1293  C1334   1.413   .     A
C1293  C1419   1.399   .     S
C1294  C1504   1.399   1_455 S
C1295  C1297   1.420   .     A
C1295  N1367   1.429   .     S
C1295  N1366   1.374   .     A
C1296  N1365   1.374   .     A
C1296  C1298   1.420   .     A
C1296  N1368   1.429   .     S
C1297  N1365   1.362   .     A
C1297  H1341   1.082   .     S
C1298  N1366   1.362   .     A
C1298  H1342   1.082   .     S
C1299  O1375   1.295   .     A
C1299  C1301   1.465   .     S
C1299  O1459   1.297   .     S
C1300  O1376   1.295   .     A
C1300  C1303   1.465   .     S
C1300  O1546   1.297   1_455 S
C1301  C1308   1.397   .     A
C1301  C1306   1.398   .     A
C1302  O1370   1.290   .     A
C1302  O1458   1.295   .     S
C1303  C1309   1.397   .     A
C1303  C1307   1.398   .     A
C1304  C1306   1.391   .     A
C1304  H1362   1.083   .     S
C1304  C1312   1.404   .     A
C1305  C1314   1.404   .     A
C1305  H1363   1.083   .     S
C1305  C1307   1.391   .     A
C1306  H1447   1.083   .     S
C1307  H1532   1.083   1_455 S
C1308  H1359   1.072   .     S
C1308  C1310   1.404   .     A
C1309  C1311   1.404   .     A
C1309  H1358   1.072   .     S
C1310  C1315   1.428   .     A
C1310  C1312   1.418   .     A
C1311  C1316   1.428   .     A
C1311  C1314   1.418   .     A
C1312  C556    1.389   1_556 S
C1313  C1330   1.385   .     A
C1313  C1316   1.418   .     A
C1313  H1364   1.075   .     S
C1315  C1324   1.418   .     A
C1315  C542    1.425   1_556 S
C1317  C1334   1.479   .     S
C1317  C1322   1.403   .     A
C1317  C1318   1.404   .     A
C1318  C1319   1.399   .     A
C1318  H1343   1.083   .     S
C1319  C1320   1.397   .     A
C1319  H1344   1.082   .     S
C1320  C1321   1.398   .     A
C1320  H1345   1.082   .     S
C1321  H1346   1.080   .     S
C1321  C1322   1.398   .     A
C1322  H1347   1.083   .     S
C1323  C1329   1.404   .     A
C1323  C1325   1.403   .     A
C1324  C1331   1.385   .     A
C1324  H1338   1.075   .     S
C1325  H1349   1.083   .     S
C1325  C1326   1.398   .     A
C1326  C1327   1.398   .     A
C1326  H1350   1.080   .     S
C1327  C1328   1.397   .     A
C1327  H1351   1.082   .     S
C1328  C1329   1.399   .     A
C1328  H1352   1.082   .     S
C1329  H1353   1.083   .     S
C1330  H1337   1.084   .     S
C1331  H1348   1.084   .     S
C1331  C540    1.389   1_556 S
C1332  H1339   1.084   .     S
C1332  C1380   1.399   .     S
C1333  H1340   1.084   .     S
C1333  C1465   1.399   1_455 S
C1333  C776    1.387   1_565 S
C1334  C816    1.387   1_565 S
Cu1335 O1372   1.966   .     S
Cu1335 O1373   1.962   .     S
Cu1335 O1369   1.966   .     S
Cu1335 N1365   2.016   .     S
Cu1335 O1376   1.950   .     S
Cu1335 Cu1508  2.682   1_455 S
Cu1336 N1366   2.016   .     S
Cu1336 O1375   1.950   .     S
Cu1336 O1371   1.966   .     S
Cu1336 O1374   1.962   .     S
Cu1336 O1370   1.966   .     S
Cu1336 Cu1421  2.682   .     S
H1354  N1367   1.046   .     S
H1355  N1367   1.045   .     S
H1356  N1368   1.045   .     S
H1357  N1368   1.046   .     S
H1360  C1393   1.083   .     S
H1361  C1478   1.083   1_455 S
O1371  C1377   1.295   .     S
O1372  C1474   1.295   1_455 S
O1373  C1471   1.297   1_455 S
O1374  C1386   1.297   .     S
C1377  O1455   1.290   .     A
C1377  C1380   1.452   .     S
C1378  C1380   1.413   .     A
C1378  C1409   1.479   .     S
C1379  C1388   1.452   .     S
C1379  C1420   1.413   .     A
C1379  C1505   1.399   .     S
C1381  C1383   1.420   .     A
C1381  N1453   1.429   .     S
C1381  N1452   1.374   .     A
C1382  N1451   1.374   .     A
C1382  C1384   1.420   .     A
C1382  N1454   1.429   .     S
C1383  N1451   1.362   .     A
C1383  H1427   1.082   .     S
C1384  N1452   1.362   .     A
C1384  H1428   1.082   .     S
C1385  O1461   1.295   .     A
C1385  C1387   1.465   .     S
C1385  O1545   1.297   .     S
C1386  O1462   1.295   .     A
C1386  C1389   1.465   .     S
C1387  C1394   1.397   .     A
C1387  C1392   1.398   .     A
C1388  O1456   1.290   .     A
C1388  O1544   1.295   .     S
C1389  C1395   1.397   .     A
C1389  C1393   1.398   .     A
C1390  C1392   1.391   .     A
C1390  H1448   1.083   .     S
C1390  C1398   1.404   .     A
C1391  C1400   1.404   .     A
C1391  H1449   1.083   .     S
C1391  C1393   1.391   .     A
C1392  H1533   1.083   .     S
C1394  H1445   1.072   .     S
C1394  C1396   1.404   .     A
C1395  C1397   1.404   .     A
C1395  H1444   1.072   .     S
C1396  C1401   1.428   .     A
C1396  C1398   1.418   .     A
C1397  C1402   1.428   .     A
C1397  C1400   1.418   .     A
C1398  C642    1.389   1_556 S
C1399  C1416   1.385   .     A
C1399  C1402   1.418   .     A
C1399  H1450   1.075   .     S
C1401  C1410   1.418   .     A
C1401  C628    1.425   1_556 S
C1403  C1420   1.479   .     S
C1403  C1408   1.403   .     A
C1403  C1404   1.404   .     A
C1404  C1405   1.399   .     A
C1404  H1429   1.083   .     S
C1405  C1406   1.397   .     A
C1405  H1430   1.082   .     S
C1406  C1407   1.398   .     A
C1406  H1431   1.082   .     S
C1407  H1432   1.080   .     S
C1407  C1408   1.398   .     A
C1408  H1433   1.083   .     S
C1409  C1415   1.404   .     A
C1409  C1411   1.403   .     A
C1410  C1417   1.385   .     A
C1410  H1424   1.075   .     S
C1411  H1435   1.083   .     S
C1411  C1412   1.398   .     A
C1412  C1413   1.398   .     A
C1412  H1436   1.080   .     S
C1413  C1414   1.397   .     A
C1413  H1437   1.082   .     S
C1414  C1415   1.399   .     A
C1414  H1438   1.082   .     S
C1415  H1439   1.083   .     S
C1416  H1423   1.084   .     S
C1417  H1434   1.084   .     S
C1417  C626    1.389   1_556 S
C1418  H1425   1.084   .     S
C1418  C1466   1.399   .     S
C1419  H1426   1.084   .     S
C1419  C862    1.387   1_565 S
C1420  C902    1.387   1_565 S
Cu1421 O1458   1.966   .     S
Cu1421 O1459   1.962   .     S
Cu1421 O1455   1.966   .     S
Cu1421 N1451   2.016   .     S
Cu1421 O1462   1.950   .     S
Cu1422 N1452   2.016   .     S
Cu1422 O1461   1.950   .     S
Cu1422 O1457   1.966   .     S
Cu1422 O1460   1.962   .     S
Cu1422 O1456   1.966   .     S
Cu1422 Cu1507  2.682   .     S
H1440  N1453   1.046   .     S
H1441  N1453   1.045   .     S
H1442  N1454   1.045   .     S
H1443  N1454   1.046   .     S
H1446  C1479   1.083   .     S
O1457  C1463   1.295   .     S
O1460  C1472   1.297   .     S
C1463  O1541   1.290   .     A
C1463  C1466   1.452   .     S
C1464  C1466   1.413   .     A
C1464  C1495   1.479   .     S
C1465  C1474   1.452   .     S
C1465  C1506   1.413   .     A
C1465  C1333   1.399   1_655 S
C1467  C1469   1.420   .     A
C1467  N1539   1.429   .     S
C1467  N1538   1.374   .     A
C1468  N1537   1.374   .     A
C1468  C1470   1.420   .     A
C1468  N1540   1.429   .     S
C1469  N1537   1.362   .     A
C1469  H1513   1.082   .     S
C1470  N1538   1.362   .     A
C1470  H1514   1.082   .     S
C1471  O1547   1.295   .     A
C1471  C1473   1.465   .     S
C1471  O1373   1.297   1_655 S
C1472  O1548   1.295   .     A
C1472  C1475   1.465   .     S
C1473  C1480   1.397   .     A
C1473  C1478   1.398   .     A
C1474  O1542   1.290   .     A
C1474  O1372   1.295   1_655 S
C1475  C1481   1.397   .     A
C1475  C1479   1.398   .     A
C1476  C1478   1.391   .     A
C1476  H1534   1.083   .     S
C1476  C1484   1.404   .     A
C1477  C1486   1.404   .     A
C1477  H1535   1.083   .     S
C1477  C1479   1.391   .     A
C1478  H1361   1.083   1_655 S
C1480  H1531   1.072   .     S
C1480  C1482   1.404   .     A
C1481  C1483   1.404   .     A
C1481  H1530   1.072   .     S
C1482  C1487   1.428   .     A
C1482  C1484   1.418   .     A
C1483  C1488   1.428   .     A
C1483  C1486   1.418   .     A
C1484  C728    1.389   1_556 S
C1485  C1502   1.385   .     A
C1485  C1488   1.418   .     A
C1485  H1536   1.075   .     S
C1487  C1496   1.418   .     A
C1487  C714    1.425   1_556 S
C1489  C1506   1.479   .     S
C1489  C1494   1.403   .     A
C1489  C1490   1.404   .     A
C1490  C1491   1.399   .     A
C1490  H1515   1.083   .     S
C1491  C1492   1.397   .     A
C1491  H1516   1.082   .     S
C1492  C1493   1.398   .     A
C1492  H1517   1.082   .     S
C1493  H1518   1.080   .     S
C1493  C1494   1.398   .     A
C1494  H1519   1.083   .     S
C1495  C1501   1.404   .     A
C1495  C1497   1.403   .     A
C1496  C1503   1.385   .     A
C1496  H1510   1.075   .     S
C1497  H1521   1.083   .     S
C1497  C1498   1.398   .     A
C1498  C1499   1.398   .     A
C1498  H1522   1.080   .     S
C1499  C1500   1.397   .     A
C1499  H1523   1.082   .     S
C1500  C1501   1.399   .     A
C1500  H1524   1.082   .     S
C1501  H1525   1.083   .     S
C1502  H1509   1.084   .     S
C1503  H1520   1.084   .     S
C1503  C712    1.389   1_556 S
C1504  H1511   1.084   .     S
C1504  C1294   1.399   1_655 S
C1505  H1512   1.084   .     S
C1505  C948    1.387   1_565 S
C1506  C988    1.387   1_565 S
Cu1507 O1544   1.966   .     S
Cu1507 O1545   1.962   .     S
Cu1507 O1541   1.966   .     S
Cu1507 N1537   2.016   .     S
Cu1507 O1548   1.950   .     S
Cu1508 N1538   2.016   .     S
Cu1508 O1547   1.950   .     S
Cu1508 O1543   1.966   .     S
Cu1508 O1546   1.962   .     S
Cu1508 O1542   1.966   .     S
Cu1508 Cu1335  2.682   1_655 S
H1526  N1539   1.046   .     S
H1527  N1539   1.045   .     S
H1528  N1540   1.045   .     S
H1529  N1540   1.046   .     S
H1532  C1307   1.083   1_655 S
O1543  C1291   1.295   1_655 S
O1546  C1300   1.297   1_655 S
