data_str_m2_o10_o16_pcu_sym.115
_audit_creation_date              2020-01-03
_audit_creation_method            'Materials Studio'
_symmetry_space_group_name_H-M    'P1'
_symmetry_Int_Tables_number       1
_symmetry_cell_setting            triclinic
loop_
_symmetry_equiv_pos_as_xyz
  x,y,z
_cell_length_a                    22.4280
_cell_length_b                    26.1173
_cell_length_c                    26.8256
_cell_angle_alpha                 94.2618
_cell_angle_beta                  77.4447
_cell_angle_gamma                 102.5265
loop_
_atom_site_label
_atom_site_type_symbol
_atom_site_fract_x
_atom_site_fract_y
_atom_site_fract_z
_atom_site_U_iso_or_equiv
_atom_site_adp_type
_atom_site_occupancy
C1     C     0.18162   0.26656   0.25064   0.00000  Uiso   1.00
C2     C     0.13725   0.16736   0.48790   0.00000  Uiso   1.00
C3     C     0.15149   0.18412   0.43672   0.00000  Uiso   1.00
C4     C     0.18386   0.18226   0.01799   0.00000  Uiso   1.00
C5     C     0.24122   0.21585   0.49733   0.00000  Uiso   1.00
C6     C     0.25010   0.23759   0.44981   0.00000  Uiso   1.00
C7     C     0.20532   0.22275   0.42035   0.00000  Uiso   1.00
C8     C     0.17556   0.16492   0.06781   0.00000  Uiso   1.00
C9     C     0.27972   0.21258   0.07492   0.00000  Uiso   1.00
C10    C     0.11119   0.16237   0.40318   0.00000  Uiso   1.00
C11    C     0.18729   0.32218   0.25424   0.00000  Uiso   1.00
C12    C     0.13293   0.16501   0.34716   0.00000  Uiso   1.00
C13    C     0.14905   0.01205   0.23627   0.00000  Uiso   1.00
C14    C     0.15293   0.06699   0.24604   0.00000  Uiso   1.00
C15    C     0.20072   0.17181   0.15296   0.00000  Uiso   1.00
C16    C     0.28894   0.22883   0.02478   0.00000  Uiso   1.00
C17    C     0.22092   0.18197   0.09762   0.00000  Uiso   1.00
C18    C     0.05198   0.13234   0.42306   0.00000  Uiso   1.00
C19    C     0.03470   0.12078   0.47461   0.00000  Uiso   1.00
C20    C     0.07715   0.13663   0.00652   0.00000  Uiso   1.00
Cu21   Cu    0.10710   0.16105   0.24435   0.00000  Uiso   1.00
Cu22   Cu    0.22623   0.17228   0.25564   0.00000  Uiso   1.00
H23    H     0.33000   0.12739   0.21037   0.00000  Uiso   1.00
H24    H     0.29207   0.26619   0.43528   0.00000  Uiso   1.00
H25    H     0.33293   0.25378   0.00763   0.00000  Uiso   1.00
H26    H     0.13314   0.13877   0.08500   0.00000  Uiso   1.00
H27    H     0.01971   0.11624   0.39839   0.00000  Uiso   1.00
H28    H     0.06095   0.12500   0.04565   0.00000  Uiso   1.00
H29    H     0.32214   0.09762   0.48958   0.00000  Uiso   1.00
H30    H     0.21305   0.24219   0.38462   0.00000  Uiso   1.00
H31    H     0.22133   0.01106   0.27525   0.00000  Uiso   1.00
N32    N     0.31574   0.18074   0.26416   0.00000  Uiso   1.00
N33    N     0.01759   0.15259   0.23584   0.00000  Uiso   1.00
O34    O     0.12797   0.23807   0.24633   0.00000  Uiso   1.00
O35    O     0.22858   0.24755   0.25586   0.00000  Uiso   1.00
O36    O     0.09181   0.15960   0.31839   0.00000  Uiso   1.00
O37    O     0.19242   0.16908   0.32793   0.00000  Uiso   1.00
O38    O     0.10476   0.08578   0.24413   0.00000  Uiso   1.00
O39    O     0.20536   0.09526   0.25367   0.00000  Uiso   1.00
O40    O     0.14092   0.16425   0.17207   0.00000  Uiso   1.00
O41    O     0.24152   0.17373   0.18160   0.00000  Uiso   1.00
C42    C     0.33127   0.23117   0.10242   0.00000  Uiso   1.00
H43    H     0.32215   0.23817   0.14321   0.00000  Uiso   1.00
O44    O     0.05214   0.24020   0.07908   0.00000  Uiso   1.00
I45    I     0.08950   0.31066   0.18538   0.00000  Uiso   1.00
I46    I     0.00906   0.23565   0.31958   0.00000  Uiso   1.00
C47    C     0.51495   0.26656   0.25064   0.00000  Uiso   1.00
C48    C     0.47059   0.16736   0.48790   0.00000  Uiso   1.00
C49    C     0.48482   0.18412   0.43672   0.00000  Uiso   1.00
C50    C     0.51720   0.18226   0.01799   0.00000  Uiso   1.00
C51    C     0.57456   0.21585   0.49733   0.00000  Uiso   1.00
C52    C     0.58344   0.23759   0.44981   0.00000  Uiso   1.00
C53    C     0.53865   0.22275   0.42035   0.00000  Uiso   1.00
C54    C     0.50889   0.16492   0.06781   0.00000  Uiso   1.00
C55    C     0.61305   0.21258   0.07492   0.00000  Uiso   1.00
C56    C     0.44452   0.16237   0.40318   0.00000  Uiso   1.00
C57    C     0.52062   0.32218   0.25424   0.00000  Uiso   1.00
C58    C     0.46626   0.16501   0.34716   0.00000  Uiso   1.00
C59    C     0.48238   0.01205   0.23627   0.00000  Uiso   1.00
C60    C     0.48626   0.06699   0.24604   0.00000  Uiso   1.00
C61    C     0.53405   0.17181   0.15296   0.00000  Uiso   1.00
C62    C     0.62227   0.22883   0.02478   0.00000  Uiso   1.00
C63    C     0.55425   0.18197   0.09762   0.00000  Uiso   1.00
C64    C     0.38532   0.13234   0.42306   0.00000  Uiso   1.00
C65    C     0.36803   0.12078   0.47461   0.00000  Uiso   1.00
C66    C     0.41048   0.13663   0.00652   0.00000  Uiso   1.00
Cu67   Cu    0.44043   0.16105   0.24435   0.00000  Uiso   1.00
Cu68   Cu    0.55957   0.17228   0.25564   0.00000  Uiso   1.00
H69    H     0.66334   0.12739   0.21037   0.00000  Uiso   1.00
H70    H     0.62540   0.26619   0.43528   0.00000  Uiso   1.00
H71    H     0.66626   0.25378   0.00763   0.00000  Uiso   1.00
H72    H     0.46647   0.13877   0.08500   0.00000  Uiso   1.00
H73    H     0.35304   0.11624   0.39839   0.00000  Uiso   1.00
H74    H     0.39429   0.12500   0.04565   0.00000  Uiso   1.00
H75    H     0.65548   0.09762   0.48958   0.00000  Uiso   1.00
H76    H     0.54638   0.24219   0.38462   0.00000  Uiso   1.00
H77    H     0.55467   0.01106   0.27525   0.00000  Uiso   1.00
N78    N     0.64908   0.18074   0.26416   0.00000  Uiso   1.00
N79    N     0.35092   0.15259   0.23584   0.00000  Uiso   1.00
O80    O     0.46131   0.23807   0.24633   0.00000  Uiso   1.00
O81    O     0.56191   0.24755   0.25586   0.00000  Uiso   1.00
O82    O     0.42515   0.15960   0.31839   0.00000  Uiso   1.00
O83    O     0.52575   0.16908   0.32793   0.00000  Uiso   1.00
O84    O     0.43809   0.08578   0.24413   0.00000  Uiso   1.00
O85    O     0.53869   0.09526   0.25367   0.00000  Uiso   1.00
O86    O     0.47425   0.16425   0.17207   0.00000  Uiso   1.00
O87    O     0.57485   0.17373   0.18160   0.00000  Uiso   1.00
C88    C     0.66460   0.23117   0.10242   0.00000  Uiso   1.00
H89    H     0.65549   0.23817   0.14321   0.00000  Uiso   1.00
O90    O     0.38548   0.24020   0.07908   0.00000  Uiso   1.00
I91    I     0.42284   0.31066   0.18538   0.00000  Uiso   1.00
I92    I     0.34239   0.23565   0.31958   0.00000  Uiso   1.00
C93    C     0.84829   0.26656   0.25064   0.00000  Uiso   1.00
C94    C     0.80392   0.16736   0.48790   0.00000  Uiso   1.00
C95    C     0.81816   0.18412   0.43672   0.00000  Uiso   1.00
C96    C     0.85053   0.18226   0.01799   0.00000  Uiso   1.00
C97    C     0.90789   0.21585   0.49733   0.00000  Uiso   1.00
C98    C     0.91677   0.23759   0.44981   0.00000  Uiso   1.00
C99    C     0.87198   0.22275   0.42035   0.00000  Uiso   1.00
C100   C     0.84223   0.16492   0.06781   0.00000  Uiso   1.00
C101   C     0.94638   0.21258   0.07492   0.00000  Uiso   1.00
C102   C     0.77785   0.16237   0.40318   0.00000  Uiso   1.00
C103   C     0.85396   0.32218   0.25424   0.00000  Uiso   1.00
C104   C     0.79960   0.16501   0.34716   0.00000  Uiso   1.00
C105   C     0.81571   0.01205   0.23627   0.00000  Uiso   1.00
C106   C     0.81959   0.06699   0.24604   0.00000  Uiso   1.00
C107   C     0.86738   0.17181   0.15296   0.00000  Uiso   1.00
C108   C     0.95561   0.22883   0.02478   0.00000  Uiso   1.00
C109   C     0.88759   0.18197   0.09762   0.00000  Uiso   1.00
C110   C     0.71865   0.13234   0.42306   0.00000  Uiso   1.00
C111   C     0.70136   0.12078   0.47461   0.00000  Uiso   1.00
C112   C     0.74381   0.13663   0.00652   0.00000  Uiso   1.00
Cu113  Cu    0.77377   0.16105   0.24435   0.00000  Uiso   1.00
Cu114  Cu    0.89290   0.17228   0.25564   0.00000  Uiso   1.00
H115   H     0.99667   0.12739   0.21037   0.00000  Uiso   1.00
H116   H     0.95873   0.26619   0.43528   0.00000  Uiso   1.00
H117   H     0.99960   0.25378   0.00763   0.00000  Uiso   1.00
H118   H     0.79980   0.13877   0.08500   0.00000  Uiso   1.00
H119   H     0.68637   0.11624   0.39839   0.00000  Uiso   1.00
H120   H     0.72762   0.12500   0.04565   0.00000  Uiso   1.00
H121   H     0.98881   0.09762   0.48958   0.00000  Uiso   1.00
H122   H     0.87971   0.24219   0.38462   0.00000  Uiso   1.00
H123   H     0.88800   0.01106   0.27525   0.00000  Uiso   1.00
N124   N     0.98241   0.18074   0.26416   0.00000  Uiso   1.00
N125   N     0.68426   0.15259   0.23584   0.00000  Uiso   1.00
O126   O     0.79464   0.23807   0.24633   0.00000  Uiso   1.00
O127   O     0.89524   0.24755   0.25586   0.00000  Uiso   1.00
O128   O     0.75848   0.15960   0.31839   0.00000  Uiso   1.00
O129   O     0.85908   0.16908   0.32793   0.00000  Uiso   1.00
O130   O     0.77142   0.08578   0.24413   0.00000  Uiso   1.00
O131   O     0.87203   0.09526   0.25367   0.00000  Uiso   1.00
O132   O     0.80758   0.16425   0.17207   0.00000  Uiso   1.00
O133   O     0.90819   0.17373   0.18160   0.00000  Uiso   1.00
C134   C     0.99793   0.23117   0.10242   0.00000  Uiso   1.00
H135   H     0.98882   0.23817   0.14321   0.00000  Uiso   1.00
O136   O     0.71881   0.24020   0.07908   0.00000  Uiso   1.00
I137   I     0.75617   0.31066   0.18538   0.00000  Uiso   1.00
I138   I     0.67572   0.23565   0.31958   0.00000  Uiso   1.00
C139   C     0.18162   0.59989   0.25064   0.00000  Uiso   1.00
C140   C     0.13725   0.50070   0.48790   0.00000  Uiso   1.00
C141   C     0.15149   0.51745   0.43672   0.00000  Uiso   1.00
C142   C     0.18386   0.51559   0.01799   0.00000  Uiso   1.00
C143   C     0.24122   0.54919   0.49733   0.00000  Uiso   1.00
C144   C     0.25010   0.57093   0.44981   0.00000  Uiso   1.00
C145   C     0.20532   0.55608   0.42035   0.00000  Uiso   1.00
C146   C     0.17556   0.49825   0.06781   0.00000  Uiso   1.00
C147   C     0.27972   0.54591   0.07492   0.00000  Uiso   1.00
C148   C     0.11119   0.49570   0.40318   0.00000  Uiso   1.00
C149   C     0.18729   0.65551   0.25424   0.00000  Uiso   1.00
C150   C     0.13293   0.49834   0.34716   0.00000  Uiso   1.00
C151   C     0.14905   0.34539   0.23627   0.00000  Uiso   1.00
C152   C     0.15293   0.40032   0.24604   0.00000  Uiso   1.00
C153   C     0.20072   0.50514   0.15296   0.00000  Uiso   1.00
C154   C     0.28894   0.56216   0.02478   0.00000  Uiso   1.00
C155   C     0.22092   0.51530   0.09762   0.00000  Uiso   1.00
C156   C     0.05198   0.46567   0.42306   0.00000  Uiso   1.00
C157   C     0.03470   0.45411   0.47461   0.00000  Uiso   1.00
C158   C     0.07715   0.46997   0.00652   0.00000  Uiso   1.00
Cu159  Cu    0.10710   0.49439   0.24435   0.00000  Uiso   1.00
Cu160  Cu    0.22623   0.50561   0.25564   0.00000  Uiso   1.00
H161   H     0.33000   0.46072   0.21037   0.00000  Uiso   1.00
H162   H     0.29207   0.59953   0.43528   0.00000  Uiso   1.00
H163   H     0.33293   0.58711   0.00763   0.00000  Uiso   1.00
H164   H     0.13314   0.47211   0.08500   0.00000  Uiso   1.00
H165   H     0.01971   0.44957   0.39839   0.00000  Uiso   1.00
H166   H     0.06095   0.45834   0.04565   0.00000  Uiso   1.00
H167   H     0.32214   0.43096   0.48958   0.00000  Uiso   1.00
H168   H     0.21305   0.57552   0.38462   0.00000  Uiso   1.00
H169   H     0.22133   0.34439   0.27525   0.00000  Uiso   1.00
N170   N     0.31574   0.51407   0.26416   0.00000  Uiso   1.00
N171   N     0.01759   0.48593   0.23584   0.00000  Uiso   1.00
O172   O     0.12797   0.57141   0.24633   0.00000  Uiso   1.00
O173   O     0.22858   0.58089   0.25586   0.00000  Uiso   1.00
O174   O     0.09181   0.49293   0.31839   0.00000  Uiso   1.00
O175   O     0.19242   0.50241   0.32793   0.00000  Uiso   1.00
O176   O     0.10476   0.41911   0.24413   0.00000  Uiso   1.00
O177   O     0.20536   0.42859   0.25367   0.00000  Uiso   1.00
O178   O     0.14092   0.49759   0.17207   0.00000  Uiso   1.00
O179   O     0.24152   0.50707   0.18160   0.00000  Uiso   1.00
C180   C     0.33127   0.56450   0.10242   0.00000  Uiso   1.00
H181   H     0.32215   0.57150   0.14321   0.00000  Uiso   1.00
O182   O     0.05214   0.57353   0.07908   0.00000  Uiso   1.00
I183   I     0.08950   0.64399   0.18538   0.00000  Uiso   1.00
I184   I     0.00906   0.56898   0.31958   0.00000  Uiso   1.00
C185   C     0.51495   0.59989   0.25064   0.00000  Uiso   1.00
C186   C     0.47059   0.50070   0.48790   0.00000  Uiso   1.00
C187   C     0.48482   0.51745   0.43672   0.00000  Uiso   1.00
C188   C     0.51720   0.51559   0.01799   0.00000  Uiso   1.00
C189   C     0.57456   0.54919   0.49733   0.00000  Uiso   1.00
C190   C     0.58344   0.57093   0.44981   0.00000  Uiso   1.00
C191   C     0.53865   0.55608   0.42035   0.00000  Uiso   1.00
C192   C     0.50889   0.49825   0.06781   0.00000  Uiso   1.00
C193   C     0.61305   0.54591   0.07492   0.00000  Uiso   1.00
C194   C     0.44452   0.49570   0.40318   0.00000  Uiso   1.00
C195   C     0.52062   0.65551   0.25424   0.00000  Uiso   1.00
C196   C     0.46626   0.49834   0.34716   0.00000  Uiso   1.00
C197   C     0.48238   0.34539   0.23627   0.00000  Uiso   1.00
C198   C     0.48626   0.40032   0.24604   0.00000  Uiso   1.00
C199   C     0.53405   0.50514   0.15296   0.00000  Uiso   1.00
C200   C     0.62227   0.56216   0.02478   0.00000  Uiso   1.00
C201   C     0.55425   0.51530   0.09762   0.00000  Uiso   1.00
C202   C     0.38532   0.46567   0.42306   0.00000  Uiso   1.00
C203   C     0.36803   0.45411   0.47461   0.00000  Uiso   1.00
C204   C     0.41048   0.46997   0.00652   0.00000  Uiso   1.00
Cu205  Cu    0.44043   0.49439   0.24435   0.00000  Uiso   1.00
Cu206  Cu    0.55957   0.50561   0.25564   0.00000  Uiso   1.00
H207   H     0.66334   0.46072   0.21037   0.00000  Uiso   1.00
H208   H     0.62540   0.59953   0.43528   0.00000  Uiso   1.00
H209   H     0.66626   0.58711   0.00763   0.00000  Uiso   1.00
H210   H     0.46647   0.47211   0.08500   0.00000  Uiso   1.00
H211   H     0.35304   0.44957   0.39839   0.00000  Uiso   1.00
H212   H     0.39429   0.45834   0.04565   0.00000  Uiso   1.00
H213   H     0.65548   0.43096   0.48958   0.00000  Uiso   1.00
H214   H     0.54638   0.57552   0.38462   0.00000  Uiso   1.00
H215   H     0.55467   0.34439   0.27525   0.00000  Uiso   1.00
N216   N     0.64908   0.51407   0.26416   0.00000  Uiso   1.00
N217   N     0.35092   0.48593   0.23584   0.00000  Uiso   1.00
O218   O     0.46131   0.57141   0.24633   0.00000  Uiso   1.00
O219   O     0.56191   0.58089   0.25586   0.00000  Uiso   1.00
O220   O     0.42515   0.49293   0.31839   0.00000  Uiso   1.00
O221   O     0.52575   0.50241   0.32793   0.00000  Uiso   1.00
O222   O     0.43809   0.41911   0.24413   0.00000  Uiso   1.00
O223   O     0.53869   0.42859   0.25367   0.00000  Uiso   1.00
O224   O     0.47425   0.49759   0.17207   0.00000  Uiso   1.00
O225   O     0.57485   0.50707   0.18160   0.00000  Uiso   1.00
C226   C     0.66460   0.56450   0.10242   0.00000  Uiso   1.00
H227   H     0.65549   0.57150   0.14321   0.00000  Uiso   1.00
O228   O     0.38548   0.57353   0.07908   0.00000  Uiso   1.00
I229   I     0.42284   0.64399   0.18538   0.00000  Uiso   1.00
I230   I     0.34239   0.56898   0.31958   0.00000  Uiso   1.00
C231   C     0.84829   0.59989   0.25064   0.00000  Uiso   1.00
C232   C     0.80392   0.50070   0.48790   0.00000  Uiso   1.00
C233   C     0.81816   0.51745   0.43672   0.00000  Uiso   1.00
C234   C     0.85053   0.51559   0.01799   0.00000  Uiso   1.00
C235   C     0.90789   0.54919   0.49733   0.00000  Uiso   1.00
C236   C     0.91677   0.57093   0.44981   0.00000  Uiso   1.00
C237   C     0.87198   0.55608   0.42035   0.00000  Uiso   1.00
C238   C     0.84223   0.49825   0.06781   0.00000  Uiso   1.00
C239   C     0.94638   0.54591   0.07492   0.00000  Uiso   1.00
C240   C     0.77785   0.49570   0.40318   0.00000  Uiso   1.00
C241   C     0.85396   0.65551   0.25424   0.00000  Uiso   1.00
C242   C     0.79960   0.49834   0.34716   0.00000  Uiso   1.00
C243   C     0.81571   0.34539   0.23627   0.00000  Uiso   1.00
C244   C     0.81959   0.40032   0.24604   0.00000  Uiso   1.00
C245   C     0.86738   0.50514   0.15296   0.00000  Uiso   1.00
C246   C     0.95561   0.56216   0.02478   0.00000  Uiso   1.00
C247   C     0.88759   0.51530   0.09762   0.00000  Uiso   1.00
C248   C     0.71865   0.46567   0.42306   0.00000  Uiso   1.00
C249   C     0.70136   0.45411   0.47461   0.00000  Uiso   1.00
C250   C     0.74381   0.46997   0.00652   0.00000  Uiso   1.00
Cu251  Cu    0.77377   0.49439   0.24435   0.00000  Uiso   1.00
Cu252  Cu    0.89290   0.50561   0.25564   0.00000  Uiso   1.00
H253   H     0.99667   0.46072   0.21037   0.00000  Uiso   1.00
H254   H     0.95873   0.59953   0.43528   0.00000  Uiso   1.00
H255   H     0.99960   0.58711   0.00763   0.00000  Uiso   1.00
H256   H     0.79980   0.47211   0.08500   0.00000  Uiso   1.00
H257   H     0.68637   0.44957   0.39839   0.00000  Uiso   1.00
H258   H     0.72762   0.45834   0.04565   0.00000  Uiso   1.00
H259   H     0.98881   0.43096   0.48958   0.00000  Uiso   1.00
H260   H     0.87971   0.57552   0.38462   0.00000  Uiso   1.00
H261   H     0.88800   0.34439   0.27525   0.00000  Uiso   1.00
N262   N     0.98241   0.51407   0.26416   0.00000  Uiso   1.00
N263   N     0.68426   0.48593   0.23584   0.00000  Uiso   1.00
O264   O     0.79464   0.57141   0.24633   0.00000  Uiso   1.00
O265   O     0.89524   0.58089   0.25586   0.00000  Uiso   1.00
O266   O     0.75848   0.49293   0.31839   0.00000  Uiso   1.00
O267   O     0.85908   0.50241   0.32793   0.00000  Uiso   1.00
O268   O     0.77142   0.41911   0.24413   0.00000  Uiso   1.00
O269   O     0.87203   0.42859   0.25367   0.00000  Uiso   1.00
O270   O     0.80758   0.49759   0.17207   0.00000  Uiso   1.00
O271   O     0.90819   0.50707   0.18160   0.00000  Uiso   1.00
C272   C     0.99793   0.56450   0.10242   0.00000  Uiso   1.00
H273   H     0.98882   0.57150   0.14321   0.00000  Uiso   1.00
O274   O     0.71881   0.57353   0.07908   0.00000  Uiso   1.00
I275   I     0.75617   0.64399   0.18538   0.00000  Uiso   1.00
I276   I     0.67572   0.56898   0.31958   0.00000  Uiso   1.00
C277   C     0.18162   0.93322   0.25064   0.00000  Uiso   1.00
C278   C     0.13725   0.83403   0.48790   0.00000  Uiso   1.00
C279   C     0.15149   0.85079   0.43672   0.00000  Uiso   1.00
C280   C     0.18386   0.84892   0.01799   0.00000  Uiso   1.00
C281   C     0.24122   0.88252   0.49733   0.00000  Uiso   1.00
C282   C     0.25010   0.90426   0.44981   0.00000  Uiso   1.00
C283   C     0.20532   0.88942   0.42035   0.00000  Uiso   1.00
C284   C     0.17556   0.83159   0.06781   0.00000  Uiso   1.00
C285   C     0.27972   0.87925   0.07492   0.00000  Uiso   1.00
C286   C     0.11119   0.82903   0.40318   0.00000  Uiso   1.00
C287   C     0.18729   0.98884   0.25424   0.00000  Uiso   1.00
C288   C     0.13293   0.83168   0.34716   0.00000  Uiso   1.00
C289   C     0.14905   0.67872   0.23627   0.00000  Uiso   1.00
C290   C     0.15293   0.73365   0.24604   0.00000  Uiso   1.00
C291   C     0.20072   0.83848   0.15296   0.00000  Uiso   1.00
C292   C     0.28894   0.89549   0.02478   0.00000  Uiso   1.00
C293   C     0.22092   0.84863   0.09762   0.00000  Uiso   1.00
C294   C     0.05198   0.79900   0.42306   0.00000  Uiso   1.00
C295   C     0.03470   0.78745   0.47461   0.00000  Uiso   1.00
C296   C     0.07715   0.80330   0.00652   0.00000  Uiso   1.00
Cu297  Cu    0.10710   0.82772   0.24435   0.00000  Uiso   1.00
Cu298  Cu    0.22623   0.83895   0.25564   0.00000  Uiso   1.00
H299   H     0.33000   0.79406   0.21037   0.00000  Uiso   1.00
H300   H     0.29207   0.93286   0.43528   0.00000  Uiso   1.00
H301   H     0.33293   0.92044   0.00763   0.00000  Uiso   1.00
H302   H     0.13314   0.80544   0.08500   0.00000  Uiso   1.00
H303   H     0.01971   0.78291   0.39839   0.00000  Uiso   1.00
H304   H     0.06095   0.79167   0.04565   0.00000  Uiso   1.00
H305   H     0.32214   0.76429   0.48958   0.00000  Uiso   1.00
H306   H     0.21305   0.90885   0.38462   0.00000  Uiso   1.00
H307   H     0.22133   0.67772   0.27525   0.00000  Uiso   1.00
N308   N     0.31574   0.84741   0.26416   0.00000  Uiso   1.00
N309   N     0.01759   0.81926   0.23584   0.00000  Uiso   1.00
O310   O     0.12797   0.90474   0.24633   0.00000  Uiso   1.00
O311   O     0.22858   0.91422   0.25586   0.00000  Uiso   1.00
O312   O     0.09181   0.82627   0.31839   0.00000  Uiso   1.00
O313   O     0.19242   0.83575   0.32793   0.00000  Uiso   1.00
O314   O     0.10476   0.75245   0.24413   0.00000  Uiso   1.00
O315   O     0.20536   0.76193   0.25367   0.00000  Uiso   1.00
O316   O     0.14092   0.83092   0.17207   0.00000  Uiso   1.00
O317   O     0.24152   0.84040   0.18160   0.00000  Uiso   1.00
C318   C     0.33127   0.89783   0.10242   0.00000  Uiso   1.00
H319   H     0.32215   0.90483   0.14321   0.00000  Uiso   1.00
O320   O     0.05214   0.90686   0.07908   0.00000  Uiso   1.00
I321   I     0.08950   0.97732   0.18538   0.00000  Uiso   1.00
I322   I     0.00906   0.90232   0.31958   0.00000  Uiso   1.00
C323   C     0.51495   0.93322   0.25064   0.00000  Uiso   1.00
C324   C     0.47059   0.83403   0.48790   0.00000  Uiso   1.00
C325   C     0.48482   0.85079   0.43672   0.00000  Uiso   1.00
C326   C     0.51720   0.84892   0.01799   0.00000  Uiso   1.00
C327   C     0.57456   0.88252   0.49733   0.00000  Uiso   1.00
C328   C     0.58344   0.90426   0.44981   0.00000  Uiso   1.00
C329   C     0.53865   0.88942   0.42035   0.00000  Uiso   1.00
C330   C     0.50889   0.83159   0.06781   0.00000  Uiso   1.00
C331   C     0.61305   0.87925   0.07492   0.00000  Uiso   1.00
C332   C     0.44452   0.82903   0.40318   0.00000  Uiso   1.00
C333   C     0.52062   0.98884   0.25424   0.00000  Uiso   1.00
C334   C     0.46626   0.83168   0.34716   0.00000  Uiso   1.00
C335   C     0.48238   0.67872   0.23627   0.00000  Uiso   1.00
C336   C     0.48626   0.73365   0.24604   0.00000  Uiso   1.00
C337   C     0.53405   0.83848   0.15296   0.00000  Uiso   1.00
C338   C     0.62227   0.89549   0.02478   0.00000  Uiso   1.00
C339   C     0.55425   0.84863   0.09762   0.00000  Uiso   1.00
C340   C     0.38532   0.79900   0.42306   0.00000  Uiso   1.00
C341   C     0.36803   0.78745   0.47461   0.00000  Uiso   1.00
C342   C     0.41048   0.80330   0.00652   0.00000  Uiso   1.00
Cu343  Cu    0.44043   0.82772   0.24435   0.00000  Uiso   1.00
Cu344  Cu    0.55957   0.83895   0.25564   0.00000  Uiso   1.00
H345   H     0.66334   0.79406   0.21037   0.00000  Uiso   1.00
H346   H     0.62540   0.93286   0.43528   0.00000  Uiso   1.00
H347   H     0.66626   0.92044   0.00763   0.00000  Uiso   1.00
H348   H     0.46647   0.80544   0.08500   0.00000  Uiso   1.00
H349   H     0.35304   0.78291   0.39839   0.00000  Uiso   1.00
H350   H     0.39429   0.79167   0.04565   0.00000  Uiso   1.00
H351   H     0.65548   0.76429   0.48958   0.00000  Uiso   1.00
H352   H     0.54638   0.90885   0.38462   0.00000  Uiso   1.00
H353   H     0.55467   0.67772   0.27525   0.00000  Uiso   1.00
N354   N     0.64908   0.84741   0.26416   0.00000  Uiso   1.00
N355   N     0.35092   0.81926   0.23584   0.00000  Uiso   1.00
O356   O     0.46131   0.90474   0.24633   0.00000  Uiso   1.00
O357   O     0.56191   0.91422   0.25586   0.00000  Uiso   1.00
O358   O     0.42515   0.82627   0.31839   0.00000  Uiso   1.00
O359   O     0.52575   0.83575   0.32793   0.00000  Uiso   1.00
O360   O     0.43809   0.75245   0.24413   0.00000  Uiso   1.00
O361   O     0.53869   0.76193   0.25367   0.00000  Uiso   1.00
O362   O     0.47425   0.83092   0.17207   0.00000  Uiso   1.00
O363   O     0.57485   0.84040   0.18160   0.00000  Uiso   1.00
C364   C     0.66460   0.89783   0.10242   0.00000  Uiso   1.00
H365   H     0.65549   0.90483   0.14321   0.00000  Uiso   1.00
O366   O     0.38548   0.90686   0.07908   0.00000  Uiso   1.00
I367   I     0.42284   0.97732   0.18538   0.00000  Uiso   1.00
I368   I     0.34239   0.90232   0.31958   0.00000  Uiso   1.00
C369   C     0.84829   0.93322   0.25064   0.00000  Uiso   1.00
C370   C     0.80392   0.83403   0.48790   0.00000  Uiso   1.00
C371   C     0.81816   0.85079   0.43672   0.00000  Uiso   1.00
C372   C     0.85053   0.84892   0.01799   0.00000  Uiso   1.00
C373   C     0.90789   0.88252   0.49733   0.00000  Uiso   1.00
C374   C     0.91677   0.90426   0.44981   0.00000  Uiso   1.00
C375   C     0.87198   0.88942   0.42035   0.00000  Uiso   1.00
C376   C     0.84223   0.83159   0.06781   0.00000  Uiso   1.00
C377   C     0.94638   0.87925   0.07492   0.00000  Uiso   1.00
C378   C     0.77785   0.82903   0.40318   0.00000  Uiso   1.00
C379   C     0.85396   0.98884   0.25424   0.00000  Uiso   1.00
C380   C     0.79960   0.83168   0.34716   0.00000  Uiso   1.00
C381   C     0.81571   0.67872   0.23627   0.00000  Uiso   1.00
C382   C     0.81959   0.73365   0.24604   0.00000  Uiso   1.00
C383   C     0.86738   0.83848   0.15296   0.00000  Uiso   1.00
C384   C     0.95561   0.89549   0.02478   0.00000  Uiso   1.00
C385   C     0.88759   0.84863   0.09762   0.00000  Uiso   1.00
C386   C     0.71865   0.79900   0.42306   0.00000  Uiso   1.00
C387   C     0.70136   0.78745   0.47461   0.00000  Uiso   1.00
C388   C     0.74381   0.80330   0.00652   0.00000  Uiso   1.00
Cu389  Cu    0.77377   0.82772   0.24435   0.00000  Uiso   1.00
Cu390  Cu    0.89290   0.83895   0.25564   0.00000  Uiso   1.00
H391   H     0.99667   0.79406   0.21037   0.00000  Uiso   1.00
H392   H     0.95873   0.93286   0.43528   0.00000  Uiso   1.00
H393   H     0.99960   0.92044   0.00763   0.00000  Uiso   1.00
H394   H     0.79980   0.80544   0.08500   0.00000  Uiso   1.00
H395   H     0.68637   0.78291   0.39839   0.00000  Uiso   1.00
H396   H     0.72762   0.79167   0.04565   0.00000  Uiso   1.00
H397   H     0.98881   0.76429   0.48958   0.00000  Uiso   1.00
H398   H     0.87971   0.90885   0.38462   0.00000  Uiso   1.00
H399   H     0.88800   0.67772   0.27525   0.00000  Uiso   1.00
N400   N     0.98241   0.84741   0.26416   0.00000  Uiso   1.00
N401   N     0.68426   0.81926   0.23584   0.00000  Uiso   1.00
O402   O     0.79464   0.90474   0.24633   0.00000  Uiso   1.00
O403   O     0.89524   0.91422   0.25586   0.00000  Uiso   1.00
O404   O     0.75848   0.82627   0.31839   0.00000  Uiso   1.00
O405   O     0.85908   0.83575   0.32793   0.00000  Uiso   1.00
O406   O     0.77142   0.75245   0.24413   0.00000  Uiso   1.00
O407   O     0.87203   0.76193   0.25367   0.00000  Uiso   1.00
O408   O     0.80758   0.83092   0.17207   0.00000  Uiso   1.00
O409   O     0.90819   0.84040   0.18160   0.00000  Uiso   1.00
C410   C     0.99793   0.89783   0.10242   0.00000  Uiso   1.00
H411   H     0.98882   0.90483   0.14321   0.00000  Uiso   1.00
O412   O     0.71881   0.90686   0.07908   0.00000  Uiso   1.00
I413   I     0.75617   0.97732   0.18538   0.00000  Uiso   1.00
I414   I     0.67572   0.90232   0.31958   0.00000  Uiso   1.00
C415   C     0.18162   0.26656   0.75064   0.00000  Uiso   1.00
C416   C     0.13725   0.16736   0.98790   0.00000  Uiso   1.00
C417   C     0.15149   0.18412   0.93672   0.00000  Uiso   1.00
C418   C     0.18386   0.18226   0.51799   0.00000  Uiso   1.00
C419   C     0.24122   0.21585   0.99733   0.00000  Uiso   1.00
C420   C     0.25010   0.23759   0.94981   0.00000  Uiso   1.00
C421   C     0.20532   0.22275   0.92035   0.00000  Uiso   1.00
C422   C     0.17556   0.16492   0.56781   0.00000  Uiso   1.00
C423   C     0.27972   0.21258   0.57492   0.00000  Uiso   1.00
C424   C     0.11119   0.16237   0.90318   0.00000  Uiso   1.00
C425   C     0.18729   0.32218   0.75424   0.00000  Uiso   1.00
C426   C     0.13293   0.16501   0.84716   0.00000  Uiso   1.00
C427   C     0.14905   0.01205   0.73627   0.00000  Uiso   1.00
C428   C     0.15293   0.06699   0.74604   0.00000  Uiso   1.00
C429   C     0.20072   0.17181   0.65296   0.00000  Uiso   1.00
C430   C     0.28894   0.22883   0.52478   0.00000  Uiso   1.00
C431   C     0.22092   0.18197   0.59762   0.00000  Uiso   1.00
C432   C     0.05198   0.13234   0.92306   0.00000  Uiso   1.00
C433   C     0.03470   0.12078   0.97461   0.00000  Uiso   1.00
C434   C     0.07715   0.13663   0.50652   0.00000  Uiso   1.00
Cu435  Cu    0.10710   0.16105   0.74435   0.00000  Uiso   1.00
Cu436  Cu    0.22623   0.17228   0.75564   0.00000  Uiso   1.00
H437   H     0.33000   0.12739   0.71037   0.00000  Uiso   1.00
H438   H     0.29207   0.26619   0.93528   0.00000  Uiso   1.00
H439   H     0.33293   0.25378   0.50763   0.00000  Uiso   1.00
H440   H     0.13314   0.13877   0.58500   0.00000  Uiso   1.00
H441   H     0.01971   0.11624   0.89839   0.00000  Uiso   1.00
H442   H     0.06095   0.12500   0.54565   0.00000  Uiso   1.00
H443   H     0.32214   0.09762   0.98958   0.00000  Uiso   1.00
H444   H     0.21305   0.24219   0.88462   0.00000  Uiso   1.00
H445   H     0.22133   0.01106   0.77525   0.00000  Uiso   1.00
N446   N     0.31574   0.18074   0.76416   0.00000  Uiso   1.00
N447   N     0.01759   0.15259   0.73584   0.00000  Uiso   1.00
O448   O     0.12797   0.23807   0.74633   0.00000  Uiso   1.00
O449   O     0.22858   0.24755   0.75586   0.00000  Uiso   1.00
O450   O     0.09181   0.15960   0.81839   0.00000  Uiso   1.00
O451   O     0.19242   0.16908   0.82793   0.00000  Uiso   1.00
O452   O     0.10476   0.08578   0.74413   0.00000  Uiso   1.00
O453   O     0.20536   0.09526   0.75367   0.00000  Uiso   1.00
O454   O     0.14092   0.16425   0.67207   0.00000  Uiso   1.00
O455   O     0.24152   0.17373   0.68160   0.00000  Uiso   1.00
C456   C     0.33127   0.23117   0.60242   0.00000  Uiso   1.00
H457   H     0.32215   0.23817   0.64321   0.00000  Uiso   1.00
O458   O     0.05214   0.24020   0.57908   0.00000  Uiso   1.00
I459   I     0.08950   0.31066   0.68538   0.00000  Uiso   1.00
I460   I     0.00906   0.23565   0.81958   0.00000  Uiso   1.00
C461   C     0.51495   0.26656   0.75064   0.00000  Uiso   1.00
C462   C     0.47059   0.16736   0.98790   0.00000  Uiso   1.00
C463   C     0.48482   0.18412   0.93672   0.00000  Uiso   1.00
C464   C     0.51720   0.18226   0.51799   0.00000  Uiso   1.00
C465   C     0.57456   0.21585   0.99733   0.00000  Uiso   1.00
C466   C     0.58344   0.23759   0.94981   0.00000  Uiso   1.00
C467   C     0.53865   0.22275   0.92035   0.00000  Uiso   1.00
C468   C     0.50889   0.16492   0.56781   0.00000  Uiso   1.00
C469   C     0.61305   0.21258   0.57492   0.00000  Uiso   1.00
C470   C     0.44452   0.16237   0.90318   0.00000  Uiso   1.00
C471   C     0.52062   0.32218   0.75424   0.00000  Uiso   1.00
C472   C     0.46626   0.16501   0.84716   0.00000  Uiso   1.00
C473   C     0.48238   0.01205   0.73627   0.00000  Uiso   1.00
C474   C     0.48626   0.06699   0.74604   0.00000  Uiso   1.00
C475   C     0.53405   0.17181   0.65296   0.00000  Uiso   1.00
C476   C     0.62227   0.22883   0.52478   0.00000  Uiso   1.00
C477   C     0.55425   0.18197   0.59762   0.00000  Uiso   1.00
C478   C     0.38532   0.13234   0.92306   0.00000  Uiso   1.00
C479   C     0.36803   0.12078   0.97461   0.00000  Uiso   1.00
C480   C     0.41048   0.13663   0.50652   0.00000  Uiso   1.00
Cu481  Cu    0.44043   0.16105   0.74435   0.00000  Uiso   1.00
Cu482  Cu    0.55957   0.17228   0.75564   0.00000  Uiso   1.00
H483   H     0.66334   0.12739   0.71037   0.00000  Uiso   1.00
H484   H     0.62540   0.26619   0.93528   0.00000  Uiso   1.00
H485   H     0.66626   0.25378   0.50763   0.00000  Uiso   1.00
H486   H     0.46647   0.13877   0.58500   0.00000  Uiso   1.00
H487   H     0.35304   0.11624   0.89839   0.00000  Uiso   1.00
H488   H     0.39429   0.12500   0.54565   0.00000  Uiso   1.00
H489   H     0.65548   0.09762   0.98958   0.00000  Uiso   1.00
H490   H     0.54638   0.24219   0.88462   0.00000  Uiso   1.00
H491   H     0.55467   0.01106   0.77525   0.00000  Uiso   1.00
N492   N     0.64908   0.18074   0.76416   0.00000  Uiso   1.00
N493   N     0.35092   0.15259   0.73584   0.00000  Uiso   1.00
O494   O     0.46131   0.23807   0.74633   0.00000  Uiso   1.00
O495   O     0.56191   0.24755   0.75586   0.00000  Uiso   1.00
O496   O     0.42515   0.15960   0.81839   0.00000  Uiso   1.00
O497   O     0.52575   0.16908   0.82793   0.00000  Uiso   1.00
O498   O     0.43809   0.08578   0.74413   0.00000  Uiso   1.00
O499   O     0.53869   0.09526   0.75367   0.00000  Uiso   1.00
O500   O     0.47425   0.16425   0.67207   0.00000  Uiso   1.00
O501   O     0.57485   0.17373   0.68160   0.00000  Uiso   1.00
C502   C     0.66460   0.23117   0.60242   0.00000  Uiso   1.00
H503   H     0.65549   0.23817   0.64321   0.00000  Uiso   1.00
O504   O     0.38548   0.24020   0.57908   0.00000  Uiso   1.00
I505   I     0.42284   0.31066   0.68538   0.00000  Uiso   1.00
I506   I     0.34239   0.23565   0.81958   0.00000  Uiso   1.00
C507   C     0.84829   0.26656   0.75064   0.00000  Uiso   1.00
C508   C     0.80392   0.16736   0.98790   0.00000  Uiso   1.00
C509   C     0.81816   0.18412   0.93672   0.00000  Uiso   1.00
C510   C     0.85053   0.18226   0.51799   0.00000  Uiso   1.00
C511   C     0.90789   0.21585   0.99733   0.00000  Uiso   1.00
C512   C     0.91677   0.23759   0.94981   0.00000  Uiso   1.00
C513   C     0.87198   0.22275   0.92035   0.00000  Uiso   1.00
C514   C     0.84223   0.16492   0.56781   0.00000  Uiso   1.00
C515   C     0.94638   0.21258   0.57492   0.00000  Uiso   1.00
C516   C     0.77785   0.16237   0.90318   0.00000  Uiso   1.00
C517   C     0.85396   0.32218   0.75424   0.00000  Uiso   1.00
C518   C     0.79960   0.16501   0.84716   0.00000  Uiso   1.00
C519   C     0.81571   0.01205   0.73627   0.00000  Uiso   1.00
C520   C     0.81959   0.06699   0.74604   0.00000  Uiso   1.00
C521   C     0.86738   0.17181   0.65296   0.00000  Uiso   1.00
C522   C     0.95561   0.22883   0.52478   0.00000  Uiso   1.00
C523   C     0.88759   0.18197   0.59762   0.00000  Uiso   1.00
C524   C     0.71865   0.13234   0.92306   0.00000  Uiso   1.00
C525   C     0.70136   0.12078   0.97461   0.00000  Uiso   1.00
C526   C     0.74381   0.13663   0.50652   0.00000  Uiso   1.00
Cu527  Cu    0.77377   0.16105   0.74435   0.00000  Uiso   1.00
Cu528  Cu    0.89290   0.17228   0.75564   0.00000  Uiso   1.00
H529   H     0.99667   0.12739   0.71037   0.00000  Uiso   1.00
H530   H     0.95873   0.26619   0.93528   0.00000  Uiso   1.00
H531   H     0.99960   0.25378   0.50763   0.00000  Uiso   1.00
H532   H     0.79980   0.13877   0.58500   0.00000  Uiso   1.00
H533   H     0.68637   0.11624   0.89839   0.00000  Uiso   1.00
H534   H     0.72762   0.12500   0.54565   0.00000  Uiso   1.00
H535   H     0.98881   0.09762   0.98958   0.00000  Uiso   1.00
H536   H     0.87971   0.24219   0.88462   0.00000  Uiso   1.00
H537   H     0.88800   0.01106   0.77525   0.00000  Uiso   1.00
N538   N     0.98241   0.18074   0.76416   0.00000  Uiso   1.00
N539   N     0.68426   0.15259   0.73584   0.00000  Uiso   1.00
O540   O     0.79464   0.23807   0.74633   0.00000  Uiso   1.00
O541   O     0.89524   0.24755   0.75586   0.00000  Uiso   1.00
O542   O     0.75848   0.15960   0.81839   0.00000  Uiso   1.00
O543   O     0.85908   0.16908   0.82793   0.00000  Uiso   1.00
O544   O     0.77142   0.08578   0.74413   0.00000  Uiso   1.00
O545   O     0.87203   0.09526   0.75367   0.00000  Uiso   1.00
O546   O     0.80758   0.16425   0.67207   0.00000  Uiso   1.00
O547   O     0.90819   0.17373   0.68160   0.00000  Uiso   1.00
C548   C     0.99793   0.23117   0.60242   0.00000  Uiso   1.00
H549   H     0.98882   0.23817   0.64321   0.00000  Uiso   1.00
O550   O     0.71881   0.24020   0.57908   0.00000  Uiso   1.00
I551   I     0.75617   0.31066   0.68538   0.00000  Uiso   1.00
I552   I     0.67572   0.23565   0.81958   0.00000  Uiso   1.00
C553   C     0.18162   0.59989   0.75064   0.00000  Uiso   1.00
C554   C     0.13725   0.50070   0.98790   0.00000  Uiso   1.00
C555   C     0.15149   0.51745   0.93672   0.00000  Uiso   1.00
C556   C     0.18386   0.51559   0.51799   0.00000  Uiso   1.00
C557   C     0.24122   0.54919   0.99733   0.00000  Uiso   1.00
C558   C     0.25010   0.57093   0.94981   0.00000  Uiso   1.00
C559   C     0.20532   0.55608   0.92035   0.00000  Uiso   1.00
C560   C     0.17556   0.49825   0.56781   0.00000  Uiso   1.00
C561   C     0.27972   0.54591   0.57492   0.00000  Uiso   1.00
C562   C     0.11119   0.49570   0.90318   0.00000  Uiso   1.00
C563   C     0.18729   0.65551   0.75424   0.00000  Uiso   1.00
C564   C     0.13293   0.49834   0.84716   0.00000  Uiso   1.00
C565   C     0.14905   0.34539   0.73627   0.00000  Uiso   1.00
C566   C     0.15293   0.40032   0.74604   0.00000  Uiso   1.00
C567   C     0.20072   0.50514   0.65296   0.00000  Uiso   1.00
C568   C     0.28894   0.56216   0.52478   0.00000  Uiso   1.00
C569   C     0.22092   0.51530   0.59762   0.00000  Uiso   1.00
C570   C     0.05198   0.46567   0.92306   0.00000  Uiso   1.00
C571   C     0.03470   0.45411   0.97461   0.00000  Uiso   1.00
C572   C     0.07715   0.46997   0.50652   0.00000  Uiso   1.00
Cu573  Cu    0.10710   0.49439   0.74435   0.00000  Uiso   1.00
Cu574  Cu    0.22623   0.50561   0.75564   0.00000  Uiso   1.00
H575   H     0.33000   0.46072   0.71037   0.00000  Uiso   1.00
H576   H     0.29207   0.59953   0.93528   0.00000  Uiso   1.00
H577   H     0.33293   0.58711   0.50763   0.00000  Uiso   1.00
H578   H     0.13314   0.47211   0.58500   0.00000  Uiso   1.00
H579   H     0.01971   0.44957   0.89839   0.00000  Uiso   1.00
H580   H     0.06095   0.45834   0.54565   0.00000  Uiso   1.00
H581   H     0.32214   0.43096   0.98958   0.00000  Uiso   1.00
H582   H     0.21305   0.57552   0.88462   0.00000  Uiso   1.00
H583   H     0.22133   0.34439   0.77525   0.00000  Uiso   1.00
N584   N     0.31574   0.51407   0.76416   0.00000  Uiso   1.00
N585   N     0.01759   0.48593   0.73584   0.00000  Uiso   1.00
O586   O     0.12797   0.57141   0.74633   0.00000  Uiso   1.00
O587   O     0.22858   0.58089   0.75586   0.00000  Uiso   1.00
O588   O     0.09181   0.49293   0.81839   0.00000  Uiso   1.00
O589   O     0.19242   0.50241   0.82793   0.00000  Uiso   1.00
O590   O     0.10476   0.41911   0.74413   0.00000  Uiso   1.00
O591   O     0.20536   0.42859   0.75367   0.00000  Uiso   1.00
O592   O     0.14092   0.49759   0.67207   0.00000  Uiso   1.00
O593   O     0.24152   0.50707   0.68160   0.00000  Uiso   1.00
C594   C     0.33127   0.56450   0.60242   0.00000  Uiso   1.00
H595   H     0.32215   0.57150   0.64321   0.00000  Uiso   1.00
O596   O     0.05214   0.57353   0.57908   0.00000  Uiso   1.00
I597   I     0.08950   0.64399   0.68538   0.00000  Uiso   1.00
I598   I     0.00906   0.56898   0.81958   0.00000  Uiso   1.00
C599   C     0.51495   0.59989   0.75064   0.00000  Uiso   1.00
C600   C     0.47059   0.50070   0.98790   0.00000  Uiso   1.00
C601   C     0.48482   0.51745   0.93672   0.00000  Uiso   1.00
C602   C     0.51720   0.51559   0.51799   0.00000  Uiso   1.00
C603   C     0.57456   0.54919   0.99733   0.00000  Uiso   1.00
C604   C     0.58344   0.57093   0.94981   0.00000  Uiso   1.00
C605   C     0.53865   0.55608   0.92035   0.00000  Uiso   1.00
C606   C     0.50889   0.49825   0.56781   0.00000  Uiso   1.00
C607   C     0.61305   0.54591   0.57492   0.00000  Uiso   1.00
C608   C     0.44452   0.49570   0.90318   0.00000  Uiso   1.00
C609   C     0.52062   0.65551   0.75424   0.00000  Uiso   1.00
C610   C     0.46626   0.49834   0.84716   0.00000  Uiso   1.00
C611   C     0.48238   0.34539   0.73627   0.00000  Uiso   1.00
C612   C     0.48626   0.40032   0.74604   0.00000  Uiso   1.00
C613   C     0.53405   0.50514   0.65296   0.00000  Uiso   1.00
C614   C     0.62227   0.56216   0.52478   0.00000  Uiso   1.00
C615   C     0.55425   0.51530   0.59762   0.00000  Uiso   1.00
C616   C     0.38532   0.46567   0.92306   0.00000  Uiso   1.00
C617   C     0.36803   0.45411   0.97461   0.00000  Uiso   1.00
C618   C     0.41048   0.46997   0.50652   0.00000  Uiso   1.00
Cu619  Cu    0.44043   0.49439   0.74435   0.00000  Uiso   1.00
Cu620  Cu    0.55957   0.50561   0.75564   0.00000  Uiso   1.00
H621   H     0.66334   0.46072   0.71037   0.00000  Uiso   1.00
H622   H     0.62540   0.59953   0.93528   0.00000  Uiso   1.00
H623   H     0.66626   0.58711   0.50763   0.00000  Uiso   1.00
H624   H     0.46647   0.47211   0.58500   0.00000  Uiso   1.00
H625   H     0.35304   0.44957   0.89839   0.00000  Uiso   1.00
H626   H     0.39429   0.45834   0.54565   0.00000  Uiso   1.00
H627   H     0.65548   0.43096   0.98958   0.00000  Uiso   1.00
H628   H     0.54638   0.57552   0.88462   0.00000  Uiso   1.00
H629   H     0.55467   0.34439   0.77525   0.00000  Uiso   1.00
N630   N     0.64908   0.51407   0.76416   0.00000  Uiso   1.00
N631   N     0.35092   0.48593   0.73584   0.00000  Uiso   1.00
O632   O     0.46131   0.57141   0.74633   0.00000  Uiso   1.00
O633   O     0.56191   0.58089   0.75586   0.00000  Uiso   1.00
O634   O     0.42515   0.49293   0.81839   0.00000  Uiso   1.00
O635   O     0.52575   0.50241   0.82793   0.00000  Uiso   1.00
O636   O     0.43809   0.41911   0.74413   0.00000  Uiso   1.00
O637   O     0.53869   0.42859   0.75367   0.00000  Uiso   1.00
O638   O     0.47425   0.49759   0.67207   0.00000  Uiso   1.00
O639   O     0.57485   0.50707   0.68160   0.00000  Uiso   1.00
C640   C     0.66460   0.56450   0.60242   0.00000  Uiso   1.00
H641   H     0.65549   0.57150   0.64321   0.00000  Uiso   1.00
O642   O     0.38548   0.57353   0.57908   0.00000  Uiso   1.00
I643   I     0.42284   0.64399   0.68538   0.00000  Uiso   1.00
I644   I     0.34239   0.56898   0.81958   0.00000  Uiso   1.00
C645   C     0.84829   0.59989   0.75064   0.00000  Uiso   1.00
C646   C     0.80392   0.50070   0.98790   0.00000  Uiso   1.00
C647   C     0.81816   0.51745   0.93672   0.00000  Uiso   1.00
C648   C     0.85053   0.51559   0.51799   0.00000  Uiso   1.00
C649   C     0.90789   0.54919   0.99733   0.00000  Uiso   1.00
C650   C     0.91677   0.57093   0.94981   0.00000  Uiso   1.00
C651   C     0.87198   0.55608   0.92035   0.00000  Uiso   1.00
C652   C     0.84223   0.49825   0.56781   0.00000  Uiso   1.00
C653   C     0.94638   0.54591   0.57492   0.00000  Uiso   1.00
C654   C     0.77785   0.49570   0.90318   0.00000  Uiso   1.00
C655   C     0.85396   0.65551   0.75424   0.00000  Uiso   1.00
C656   C     0.79960   0.49834   0.84716   0.00000  Uiso   1.00
C657   C     0.81571   0.34539   0.73627   0.00000  Uiso   1.00
C658   C     0.81959   0.40032   0.74604   0.00000  Uiso   1.00
C659   C     0.86738   0.50514   0.65296   0.00000  Uiso   1.00
C660   C     0.95561   0.56216   0.52478   0.00000  Uiso   1.00
C661   C     0.88759   0.51530   0.59762   0.00000  Uiso   1.00
C662   C     0.71865   0.46567   0.92306   0.00000  Uiso   1.00
C663   C     0.70136   0.45411   0.97461   0.00000  Uiso   1.00
C664   C     0.74381   0.46997   0.50652   0.00000  Uiso   1.00
Cu665  Cu    0.77377   0.49439   0.74435   0.00000  Uiso   1.00
Cu666  Cu    0.89290   0.50561   0.75564   0.00000  Uiso   1.00
H667   H     0.99667   0.46072   0.71037   0.00000  Uiso   1.00
H668   H     0.95873   0.59953   0.93528   0.00000  Uiso   1.00
H669   H     0.99960   0.58711   0.50763   0.00000  Uiso   1.00
H670   H     0.79980   0.47211   0.58500   0.00000  Uiso   1.00
H671   H     0.68637   0.44957   0.89839   0.00000  Uiso   1.00
H672   H     0.72762   0.45834   0.54565   0.00000  Uiso   1.00
H673   H     0.98881   0.43096   0.98958   0.00000  Uiso   1.00
H674   H     0.87971   0.57552   0.88462   0.00000  Uiso   1.00
H675   H     0.88800   0.34439   0.77525   0.00000  Uiso   1.00
N676   N     0.98241   0.51407   0.76416   0.00000  Uiso   1.00
N677   N     0.68426   0.48593   0.73584   0.00000  Uiso   1.00
O678   O     0.79464   0.57141   0.74633   0.00000  Uiso   1.00
O679   O     0.89524   0.58089   0.75586   0.00000  Uiso   1.00
O680   O     0.75848   0.49293   0.81839   0.00000  Uiso   1.00
O681   O     0.85908   0.50241   0.82793   0.00000  Uiso   1.00
O682   O     0.77142   0.41911   0.74413   0.00000  Uiso   1.00
O683   O     0.87203   0.42859   0.75367   0.00000  Uiso   1.00
O684   O     0.80758   0.49759   0.67207   0.00000  Uiso   1.00
O685   O     0.90819   0.50707   0.68160   0.00000  Uiso   1.00
C686   C     0.99793   0.56450   0.60242   0.00000  Uiso   1.00
H687   H     0.98882   0.57150   0.64321   0.00000  Uiso   1.00
O688   O     0.71881   0.57353   0.57908   0.00000  Uiso   1.00
I689   I     0.75617   0.64399   0.68538   0.00000  Uiso   1.00
I690   I     0.67572   0.56898   0.81958   0.00000  Uiso   1.00
C691   C     0.18162   0.93322   0.75064   0.00000  Uiso   1.00
C692   C     0.13725   0.83403   0.98790   0.00000  Uiso   1.00
C693   C     0.15149   0.85079   0.93672   0.00000  Uiso   1.00
C694   C     0.18386   0.84892   0.51799   0.00000  Uiso   1.00
C695   C     0.24122   0.88252   0.99733   0.00000  Uiso   1.00
C696   C     0.25010   0.90426   0.94981   0.00000  Uiso   1.00
C697   C     0.20532   0.88942   0.92035   0.00000  Uiso   1.00
C698   C     0.17556   0.83159   0.56781   0.00000  Uiso   1.00
C699   C     0.27972   0.87925   0.57492   0.00000  Uiso   1.00
C700   C     0.11119   0.82903   0.90318   0.00000  Uiso   1.00
C701   C     0.18729   0.98884   0.75424   0.00000  Uiso   1.00
C702   C     0.13293   0.83168   0.84716   0.00000  Uiso   1.00
C703   C     0.14905   0.67872   0.73627   0.00000  Uiso   1.00
C704   C     0.15293   0.73365   0.74604   0.00000  Uiso   1.00
C705   C     0.20072   0.83848   0.65296   0.00000  Uiso   1.00
C706   C     0.28894   0.89549   0.52478   0.00000  Uiso   1.00
C707   C     0.22092   0.84863   0.59762   0.00000  Uiso   1.00
C708   C     0.05198   0.79900   0.92306   0.00000  Uiso   1.00
C709   C     0.03470   0.78745   0.97461   0.00000  Uiso   1.00
C710   C     0.07715   0.80330   0.50652   0.00000  Uiso   1.00
Cu711  Cu    0.10710   0.82772   0.74435   0.00000  Uiso   1.00
Cu712  Cu    0.22623   0.83895   0.75564   0.00000  Uiso   1.00
H713   H     0.33000   0.79406   0.71037   0.00000  Uiso   1.00
H714   H     0.29207   0.93286   0.93528   0.00000  Uiso   1.00
H715   H     0.33293   0.92044   0.50763   0.00000  Uiso   1.00
H716   H     0.13314   0.80544   0.58500   0.00000  Uiso   1.00
H717   H     0.01971   0.78291   0.89839   0.00000  Uiso   1.00
H718   H     0.06095   0.79167   0.54565   0.00000  Uiso   1.00
H719   H     0.32214   0.76429   0.98958   0.00000  Uiso   1.00
H720   H     0.21305   0.90885   0.88462   0.00000  Uiso   1.00
H721   H     0.22133   0.67772   0.77525   0.00000  Uiso   1.00
N722   N     0.31574   0.84741   0.76416   0.00000  Uiso   1.00
N723   N     0.01759   0.81926   0.73584   0.00000  Uiso   1.00
O724   O     0.12797   0.90474   0.74633   0.00000  Uiso   1.00
O725   O     0.22858   0.91422   0.75586   0.00000  Uiso   1.00
O726   O     0.09181   0.82627   0.81839   0.00000  Uiso   1.00
O727   O     0.19242   0.83575   0.82793   0.00000  Uiso   1.00
O728   O     0.10476   0.75245   0.74413   0.00000  Uiso   1.00
O729   O     0.20536   0.76193   0.75367   0.00000  Uiso   1.00
O730   O     0.14092   0.83092   0.67207   0.00000  Uiso   1.00
O731   O     0.24152   0.84040   0.68160   0.00000  Uiso   1.00
C732   C     0.33127   0.89783   0.60242   0.00000  Uiso   1.00
H733   H     0.32215   0.90483   0.64321   0.00000  Uiso   1.00
O734   O     0.05214   0.90686   0.57908   0.00000  Uiso   1.00
I735   I     0.08950   0.97732   0.68538   0.00000  Uiso   1.00
I736   I     0.00906   0.90232   0.81958   0.00000  Uiso   1.00
C737   C     0.51495   0.93322   0.75064   0.00000  Uiso   1.00
C738   C     0.47059   0.83403   0.98790   0.00000  Uiso   1.00
C739   C     0.48482   0.85079   0.93672   0.00000  Uiso   1.00
C740   C     0.51720   0.84892   0.51799   0.00000  Uiso   1.00
C741   C     0.57456   0.88252   0.99733   0.00000  Uiso   1.00
C742   C     0.58344   0.90426   0.94981   0.00000  Uiso   1.00
C743   C     0.53865   0.88942   0.92035   0.00000  Uiso   1.00
C744   C     0.50889   0.83159   0.56781   0.00000  Uiso   1.00
C745   C     0.61305   0.87925   0.57492   0.00000  Uiso   1.00
C746   C     0.44452   0.82903   0.90318   0.00000  Uiso   1.00
C747   C     0.52062   0.98884   0.75424   0.00000  Uiso   1.00
C748   C     0.46626   0.83168   0.84716   0.00000  Uiso   1.00
C749   C     0.48238   0.67872   0.73627   0.00000  Uiso   1.00
C750   C     0.48626   0.73365   0.74604   0.00000  Uiso   1.00
C751   C     0.53405   0.83848   0.65296   0.00000  Uiso   1.00
C752   C     0.62227   0.89549   0.52478   0.00000  Uiso   1.00
C753   C     0.55425   0.84863   0.59762   0.00000  Uiso   1.00
C754   C     0.38532   0.79900   0.92306   0.00000  Uiso   1.00
C755   C     0.36803   0.78745   0.97461   0.00000  Uiso   1.00
C756   C     0.41048   0.80330   0.50652   0.00000  Uiso   1.00
Cu757  Cu    0.44043   0.82772   0.74435   0.00000  Uiso   1.00
Cu758  Cu    0.55957   0.83895   0.75564   0.00000  Uiso   1.00
H759   H     0.66334   0.79406   0.71037   0.00000  Uiso   1.00
H760   H     0.62540   0.93286   0.93528   0.00000  Uiso   1.00
H761   H     0.66626   0.92044   0.50763   0.00000  Uiso   1.00
H762   H     0.46647   0.80544   0.58500   0.00000  Uiso   1.00
H763   H     0.35304   0.78291   0.89839   0.00000  Uiso   1.00
H764   H     0.39429   0.79167   0.54565   0.00000  Uiso   1.00
H765   H     0.65548   0.76429   0.98958   0.00000  Uiso   1.00
H766   H     0.54638   0.90885   0.88462   0.00000  Uiso   1.00
H767   H     0.55467   0.67772   0.77525   0.00000  Uiso   1.00
N768   N     0.64908   0.84741   0.76416   0.00000  Uiso   1.00
N769   N     0.35092   0.81926   0.73584   0.00000  Uiso   1.00
O770   O     0.46131   0.90474   0.74633   0.00000  Uiso   1.00
O771   O     0.56191   0.91422   0.75586   0.00000  Uiso   1.00
O772   O     0.42515   0.82627   0.81839   0.00000  Uiso   1.00
O773   O     0.52575   0.83575   0.82793   0.00000  Uiso   1.00
O774   O     0.43809   0.75245   0.74413   0.00000  Uiso   1.00
O775   O     0.53869   0.76193   0.75367   0.00000  Uiso   1.00
O776   O     0.47425   0.83092   0.67207   0.00000  Uiso   1.00
O777   O     0.57485   0.84040   0.68160   0.00000  Uiso   1.00
C778   C     0.66460   0.89783   0.60242   0.00000  Uiso   1.00
H779   H     0.65549   0.90483   0.64321   0.00000  Uiso   1.00
O780   O     0.38548   0.90686   0.57908   0.00000  Uiso   1.00
I781   I     0.42284   0.97732   0.68538   0.00000  Uiso   1.00
I782   I     0.34239   0.90232   0.81958   0.00000  Uiso   1.00
C783   C     0.84829   0.93322   0.75064   0.00000  Uiso   1.00
C784   C     0.80392   0.83403   0.98790   0.00000  Uiso   1.00
C785   C     0.81816   0.85079   0.93672   0.00000  Uiso   1.00
C786   C     0.85053   0.84892   0.51799   0.00000  Uiso   1.00
C787   C     0.90789   0.88252   0.99733   0.00000  Uiso   1.00
C788   C     0.91677   0.90426   0.94981   0.00000  Uiso   1.00
C789   C     0.87198   0.88942   0.92035   0.00000  Uiso   1.00
C790   C     0.84223   0.83159   0.56781   0.00000  Uiso   1.00
C791   C     0.94638   0.87925   0.57492   0.00000  Uiso   1.00
C792   C     0.77785   0.82903   0.90318   0.00000  Uiso   1.00
C793   C     0.85396   0.98884   0.75424   0.00000  Uiso   1.00
C794   C     0.79960   0.83168   0.84716   0.00000  Uiso   1.00
C795   C     0.81571   0.67872   0.73627   0.00000  Uiso   1.00
C796   C     0.81959   0.73365   0.74604   0.00000  Uiso   1.00
C797   C     0.86738   0.83848   0.65296   0.00000  Uiso   1.00
C798   C     0.95561   0.89549   0.52478   0.00000  Uiso   1.00
C799   C     0.88759   0.84863   0.59762   0.00000  Uiso   1.00
C800   C     0.71865   0.79900   0.92306   0.00000  Uiso   1.00
C801   C     0.70136   0.78745   0.97461   0.00000  Uiso   1.00
C802   C     0.74381   0.80330   0.50652   0.00000  Uiso   1.00
Cu803  Cu    0.77377   0.82772   0.74435   0.00000  Uiso   1.00
Cu804  Cu    0.89290   0.83895   0.75564   0.00000  Uiso   1.00
H805   H     0.99667   0.79406   0.71037   0.00000  Uiso   1.00
H806   H     0.95873   0.93286   0.93528   0.00000  Uiso   1.00
H807   H     0.99960   0.92044   0.50763   0.00000  Uiso   1.00
H808   H     0.79980   0.80544   0.58500   0.00000  Uiso   1.00
H809   H     0.68637   0.78291   0.89839   0.00000  Uiso   1.00
H810   H     0.72762   0.79167   0.54565   0.00000  Uiso   1.00
H811   H     0.98881   0.76429   0.98958   0.00000  Uiso   1.00
H812   H     0.87971   0.90885   0.88462   0.00000  Uiso   1.00
H813   H     0.88800   0.67772   0.77525   0.00000  Uiso   1.00
N814   N     0.98241   0.84741   0.76416   0.00000  Uiso   1.00
N815   N     0.68426   0.81926   0.73584   0.00000  Uiso   1.00
O816   O     0.79464   0.90474   0.74633   0.00000  Uiso   1.00
O817   O     0.89524   0.91422   0.75586   0.00000  Uiso   1.00
O818   O     0.75848   0.82627   0.81839   0.00000  Uiso   1.00
O819   O     0.85908   0.83575   0.82793   0.00000  Uiso   1.00
O820   O     0.77142   0.75245   0.74413   0.00000  Uiso   1.00
O821   O     0.87203   0.76193   0.75367   0.00000  Uiso   1.00
O822   O     0.80758   0.83092   0.67207   0.00000  Uiso   1.00
O823   O     0.90819   0.84040   0.68160   0.00000  Uiso   1.00
C824   C     0.99793   0.89783   0.60242   0.00000  Uiso   1.00
H825   H     0.98882   0.90483   0.64321   0.00000  Uiso   1.00
O826   O     0.71881   0.90686   0.57908   0.00000  Uiso   1.00
I827   I     0.75617   0.97732   0.68538   0.00000  Uiso   1.00
I828   I     0.67572   0.90232   0.81958   0.00000  Uiso   1.00
loop_
_geom_bond_atom_site_label_1
_geom_bond_atom_site_label_2
_geom_bond_distance
_geom_bond_site_symmetry_2
_ccdc_geom_bond_type
C1     C11     1.428   .     S
C1     O34     1.294   .     A
C1     O35     1.295   .     A
C2     C3      1.420   .     A
C2     C418    1.428   .     S
C2     C434    1.417   .     S
C3     C10     1.416   .     A
C3     C7      1.405   .     A
C4     C8      1.404   .     A
C4     C416    1.428   1_554 S
C4     C419    1.416   1_554 S
C5     C6      1.391   .     A
C5     C418    1.416   .     S
C5     C430    1.397   .     S
C6     C7      1.384   .     A
C6     H24     1.084   .     S
C7     H30     1.081   .     S
C8     H26     1.076   .     S
C8     C17     1.406   .     A
C9     C42     1.480   .     S
C9     C17     1.420   .     A
C9     C16     1.399   .     A
C10    C18     1.402   .     A
C10    C12     1.478   .     S
C11    C151    1.336   .     S
C11    H169    1.088   .     S
C12    O36     1.305   .     A
C12    O37     1.306   .     A
C13    C14     1.426   .     S
C13    C287    1.336   1_545 S
C13    I321    2.134   1_545 S
C14    O38     1.292   .     A
C14    O39     1.294   .     A
C15    O41     1.308   .     A
C15    O40     1.305   .     A
C15    C17     1.481   .     S
C16    H25     1.085   .     S
C16    C419    1.397   1_554 S
C18    C19     1.390   .     A
C18    H27     1.083   .     S
C19    C434    1.393   .     S
C19    H121    1.083   1_455 S
C20    H28     1.077   .     S
C20    C416    1.417   1_554 S
C20    C433    1.393   1_554 S
Cu21   O36     1.943   .     S
Cu21   Cu22    2.705   .     S
Cu21   O40     1.923   .     S
Cu21   O38     1.955   .     S
Cu21   N33     2.032   .     S
Cu21   O34     1.963   .     S
Cu22   O35     1.955   .     S
Cu22   N32     2.032   .     S
Cu22   O39     1.963   .     S
Cu22   O41     1.943   .     S
Cu22   O37     1.923   .     S
H23    N79     1.029   .     S
H29    C65     1.083   .     S
H31    C287    1.088   1_545 S
N32    N79     1.284   .     S
N32    I92     2.079   .     S
N33    H115    1.029   1_455 S
N33    N124    1.284   1_455 S
C42    H43     1.078   .     S
C42    O90     1.222   .     S
O44    C134    1.222   1_455 S
I45    C151    2.134   .     S
I46    N124    2.079   1_455 S
C47    C57     1.428   .     S
C47    O80     1.294   .     A
C47    O81     1.295   .     A
C48    C49     1.420   .     A
C48    C464    1.428   .     S
C48    C480    1.417   .     S
C49    C56     1.416   .     A
C49    C53     1.405   .     A
C50    C54     1.404   .     A
C50    C462    1.428   1_554 S
C50    C465    1.416   1_554 S
C51    C52     1.391   .     A
C51    C464    1.416   .     S
C51    C476    1.397   .     S
C52    C53     1.384   .     A
C52    H70     1.084   .     S
C53    H76     1.081   .     S
C54    H72     1.076   .     S
C54    C63     1.406   .     A
C55    C88     1.480   .     S
C55    C63     1.420   .     A
C55    C62     1.399   .     A
C56    C64     1.402   .     A
C56    C58     1.478   .     S
C57    C197    1.336   .     S
C57    H215    1.088   .     S
C58    O82     1.305   .     A
C58    O83     1.306   .     A
C59    C60     1.426   .     S
C59    C333    1.336   1_545 S
C59    I367    2.134   1_545 S
C60    O84     1.292   .     A
C60    O85     1.294   .     A
C61    O87     1.308   .     A
C61    O86     1.305   .     A
C61    C63     1.481   .     S
C62    H71     1.085   .     S
C62    C465    1.397   1_554 S
C64    C65     1.390   .     A
C64    H73     1.083   .     S
C65    C480    1.393   .     S
C66    H74     1.077   .     S
C66    C462    1.417   1_554 S
C66    C479    1.393   1_554 S
Cu67   O82     1.943   .     S
Cu67   Cu68    2.705   .     S
Cu67   O86     1.923   .     S
Cu67   O84     1.955   .     S
Cu67   N79     2.032   .     S
Cu67   O80     1.963   .     S
Cu68   O81     1.955   .     S
Cu68   N78     2.032   .     S
Cu68   O85     1.963   .     S
Cu68   O87     1.943   .     S
Cu68   O83     1.923   .     S
H69    N125    1.029   .     S
H75    C111    1.083   .     S
H77    C333    1.088   1_545 S
N78    N125    1.284   .     S
N78    I138    2.079   .     S
C88    H89     1.078   .     S
C88    O136    1.222   .     S
I91    C197    2.134   .     S
C93    C103    1.428   .     S
C93    O126    1.294   .     A
C93    O127    1.295   .     A
C94    C95     1.420   .     A
C94    C510    1.428   .     S
C94    C526    1.417   .     S
C95    C102    1.416   .     A
C95    C99     1.405   .     A
C96    C100    1.404   .     A
C96    C508    1.428   1_554 S
C96    C511    1.416   1_554 S
C97    C98     1.391   .     A
C97    C510    1.416   .     S
C97    C522    1.397   .     S
C98    C99     1.384   .     A
C98    H116    1.084   .     S
C99    H122    1.081   .     S
C100   H118    1.076   .     S
C100   C109    1.406   .     A
C101   C134    1.480   .     S
C101   C109    1.420   .     A
C101   C108    1.399   .     A
C102   C110    1.402   .     A
C102   C104    1.478   .     S
C103   C243    1.336   .     S
C103   H261    1.088   .     S
C104   O128    1.305   .     A
C104   O129    1.306   .     A
C105   C106    1.426   .     S
C105   C379    1.336   1_545 S
C105   I413    2.134   1_545 S
C106   O130    1.292   .     A
C106   O131    1.294   .     A
C107   O133    1.308   .     A
C107   O132    1.305   .     A
C107   C109    1.481   .     S
C108   H117    1.085   .     S
C108   C511    1.397   1_554 S
C110   C111    1.390   .     A
C110   H119    1.083   .     S
C111   C526    1.393   .     S
C112   H120    1.077   .     S
C112   C508    1.417   1_554 S
C112   C525    1.393   1_554 S
Cu113  O128    1.943   .     S
Cu113  Cu114   2.705   .     S
Cu113  O132    1.923   .     S
Cu113  O130    1.955   .     S
Cu113  N125    2.032   .     S
Cu113  O126    1.963   .     S
Cu114  O127    1.955   .     S
Cu114  N124    2.032   .     S
Cu114  O131    1.963   .     S
Cu114  O133    1.943   .     S
Cu114  O129    1.923   .     S
H115   N33     1.029   1_655 S
H121   C19     1.083   1_655 S
H123   C379    1.088   1_545 S
N124   N33     1.284   1_655 S
N124   I46     2.079   1_655 S
C134   H135    1.078   .     S
C134   O44     1.222   1_655 S
I137   C243    2.134   .     S
C139   C149    1.428   .     S
C139   O172    1.294   .     A
C139   O173    1.295   .     A
C140   C141    1.420   .     A
C140   C556    1.428   .     S
C140   C572    1.417   .     S
C141   C148    1.416   .     A
C141   C145    1.405   .     A
C142   C146    1.404   .     A
C142   C554    1.428   1_554 S
C142   C557    1.416   1_554 S
C143   C144    1.391   .     A
C143   C556    1.416   .     S
C143   C568    1.397   .     S
C144   C145    1.384   .     A
C144   H162    1.084   .     S
C145   H168    1.081   .     S
C146   H164    1.076   .     S
C146   C155    1.406   .     A
C147   C180    1.480   .     S
C147   C155    1.420   .     A
C147   C154    1.399   .     A
C148   C156    1.402   .     A
C148   C150    1.478   .     S
C149   C289    1.336   .     S
C149   H307    1.088   .     S
C150   O174    1.305   .     A
C150   O175    1.306   .     A
C151   C152    1.426   .     S
C152   O176    1.292   .     A
C152   O177    1.294   .     A
C153   O179    1.308   .     A
C153   O178    1.305   .     A
C153   C155    1.481   .     S
C154   H163    1.085   .     S
C154   C557    1.397   1_554 S
C156   C157    1.390   .     A
C156   H165    1.083   .     S
C157   C572    1.393   .     S
C157   H259    1.083   1_455 S
C158   H166    1.077   .     S
C158   C554    1.417   1_554 S
C158   C571    1.393   1_554 S
Cu159  O174    1.943   .     S
Cu159  Cu160   2.705   .     S
Cu159  O178    1.923   .     S
Cu159  O176    1.955   .     S
Cu159  N171    2.032   .     S
Cu159  O172    1.963   .     S
Cu160  O173    1.955   .     S
Cu160  N170    2.032   .     S
Cu160  O177    1.963   .     S
Cu160  O179    1.943   .     S
Cu160  O175    1.923   .     S
H161   N217    1.029   .     S
H167   C203    1.083   .     S
N170   N217    1.284   .     S
N170   I230    2.079   .     S
N171   H253    1.029   1_455 S
N171   N262    1.284   1_455 S
C180   H181    1.078   .     S
C180   O228    1.222   .     S
O182   C272    1.222   1_455 S
I183   C289    2.134   .     S
I184   N262    2.079   1_455 S
C185   C195    1.428   .     S
C185   O218    1.294   .     A
C185   O219    1.295   .     A
C186   C187    1.420   .     A
C186   C602    1.428   .     S
C186   C618    1.417   .     S
C187   C194    1.416   .     A
C187   C191    1.405   .     A
C188   C192    1.404   .     A
C188   C600    1.428   1_554 S
C188   C603    1.416   1_554 S
C189   C190    1.391   .     A
C189   C602    1.416   .     S
C189   C614    1.397   .     S
C190   C191    1.384   .     A
C190   H208    1.084   .     S
C191   H214    1.081   .     S
C192   H210    1.076   .     S
C192   C201    1.406   .     A
C193   C226    1.480   .     S
C193   C201    1.420   .     A
C193   C200    1.399   .     A
C194   C202    1.402   .     A
C194   C196    1.478   .     S
C195   C335    1.336   .     S
C195   H353    1.088   .     S
C196   O220    1.305   .     A
C196   O221    1.306   .     A
C197   C198    1.426   .     S
C198   O222    1.292   .     A
C198   O223    1.294   .     A
C199   O225    1.308   .     A
C199   O224    1.305   .     A
C199   C201    1.481   .     S
C200   H209    1.085   .     S
C200   C603    1.397   1_554 S
C202   C203    1.390   .     A
C202   H211    1.083   .     S
C203   C618    1.393   .     S
C204   H212    1.077   .     S
C204   C600    1.417   1_554 S
C204   C617    1.393   1_554 S
Cu205  O220    1.943   .     S
Cu205  Cu206   2.705   .     S
Cu205  O224    1.923   .     S
Cu205  O222    1.955   .     S
Cu205  N217    2.032   .     S
Cu205  O218    1.963   .     S
Cu206  O219    1.955   .     S
Cu206  N216    2.032   .     S
Cu206  O223    1.963   .     S
Cu206  O225    1.943   .     S
Cu206  O221    1.923   .     S
H207   N263    1.029   .     S
H213   C249    1.083   .     S
N216   N263    1.284   .     S
N216   I276    2.079   .     S
C226   H227    1.078   .     S
C226   O274    1.222   .     S
I229   C335    2.134   .     S
C231   C241    1.428   .     S
C231   O264    1.294   .     A
C231   O265    1.295   .     A
C232   C233    1.420   .     A
C232   C648    1.428   .     S
C232   C664    1.417   .     S
C233   C240    1.416   .     A
C233   C237    1.405   .     A
C234   C238    1.404   .     A
C234   C646    1.428   1_554 S
C234   C649    1.416   1_554 S
C235   C236    1.391   .     A
C235   C648    1.416   .     S
C235   C660    1.397   .     S
C236   C237    1.384   .     A
C236   H254    1.084   .     S
C237   H260    1.081   .     S
C238   H256    1.076   .     S
C238   C247    1.406   .     A
C239   C272    1.480   .     S
C239   C247    1.420   .     A
C239   C246    1.399   .     A
C240   C248    1.402   .     A
C240   C242    1.478   .     S
C241   C381    1.336   .     S
C241   H399    1.088   .     S
C242   O266    1.305   .     A
C242   O267    1.306   .     A
C243   C244    1.426   .     S
C244   O268    1.292   .     A
C244   O269    1.294   .     A
C245   O271    1.308   .     A
C245   O270    1.305   .     A
C245   C247    1.481   .     S
C246   H255    1.085   .     S
C246   C649    1.397   1_554 S
C248   C249    1.390   .     A
C248   H257    1.083   .     S
C249   C664    1.393   .     S
C250   H258    1.077   .     S
C250   C646    1.417   1_554 S
C250   C663    1.393   1_554 S
Cu251  O266    1.943   .     S
Cu251  Cu252   2.705   .     S
Cu251  O270    1.923   .     S
Cu251  O268    1.955   .     S
Cu251  N263    2.032   .     S
Cu251  O264    1.963   .     S
Cu252  O265    1.955   .     S
Cu252  N262    2.032   .     S
Cu252  O269    1.963   .     S
Cu252  O271    1.943   .     S
Cu252  O267    1.923   .     S
H253   N171    1.029   1_655 S
H259   C157    1.083   1_655 S
N262   N171    1.284   1_655 S
N262   I184    2.079   1_655 S
C272   H273    1.078   .     S
C272   O182    1.222   1_655 S
I275   C381    2.134   .     S
C277   C287    1.428   .     S
C277   O310    1.294   .     A
C277   O311    1.295   .     A
C278   C279    1.420   .     A
C278   C694    1.428   .     S
C278   C710    1.417   .     S
C279   C286    1.416   .     A
C279   C283    1.405   .     A
C280   C284    1.404   .     A
C280   C692    1.428   1_554 S
C280   C695    1.416   1_554 S
C281   C282    1.391   .     A
C281   C694    1.416   .     S
C281   C706    1.397   .     S
C282   C283    1.384   .     A
C282   H300    1.084   .     S
C283   H306    1.081   .     S
C284   H302    1.076   .     S
C284   C293    1.406   .     A
C285   C318    1.480   .     S
C285   C293    1.420   .     A
C285   C292    1.399   .     A
C286   C294    1.402   .     A
C286   C288    1.478   .     S
C287   C13     1.336   1_565 S
C287   H31     1.088   1_565 S
C288   O312    1.305   .     A
C288   O313    1.306   .     A
C289   C290    1.426   .     S
C290   O314    1.292   .     A
C290   O315    1.294   .     A
C291   O317    1.308   .     A
C291   O316    1.305   .     A
C291   C293    1.481   .     S
C292   H301    1.085   .     S
C292   C695    1.397   1_554 S
C294   C295    1.390   .     A
C294   H303    1.083   .     S
C295   C710    1.393   .     S
C295   H397    1.083   1_455 S
C296   H304    1.077   .     S
C296   C692    1.417   1_554 S
C296   C709    1.393   1_554 S
Cu297  O312    1.943   .     S
Cu297  Cu298   2.705   .     S
Cu297  O316    1.923   .     S
Cu297  O314    1.955   .     S
Cu297  N309    2.032   .     S
Cu297  O310    1.963   .     S
Cu298  O311    1.955   .     S
Cu298  N308    2.032   .     S
Cu298  O315    1.963   .     S
Cu298  O317    1.943   .     S
Cu298  O313    1.923   .     S
H299   N355    1.029   .     S
H305   C341    1.083   .     S
N308   N355    1.284   .     S
N308   I368    2.079   .     S
N309   H391    1.029   1_455 S
N309   N400    1.284   1_455 S
C318   H319    1.078   .     S
C318   O366    1.222   .     S
O320   C410    1.222   1_455 S
I321   C13     2.134   1_565 S
I322   N400    2.079   1_455 S
C323   C333    1.428   .     S
C323   O356    1.294   .     A
C323   O357    1.295   .     A
C324   C325    1.420   .     A
C324   C740    1.428   .     S
C324   C756    1.417   .     S
C325   C332    1.416   .     A
C325   C329    1.405   .     A
C326   C330    1.404   .     A
C326   C738    1.428   1_554 S
C326   C741    1.416   1_554 S
C327   C328    1.391   .     A
C327   C740    1.416   .     S
C327   C752    1.397   .     S
C328   C329    1.384   .     A
C328   H346    1.084   .     S
C329   H352    1.081   .     S
C330   H348    1.076   .     S
C330   C339    1.406   .     A
C331   C364    1.480   .     S
C331   C339    1.420   .     A
C331   C338    1.399   .     A
C332   C340    1.402   .     A
C332   C334    1.478   .     S
C333   C59     1.336   1_565 S
C333   H77     1.088   1_565 S
C334   O358    1.305   .     A
C334   O359    1.306   .     A
C335   C336    1.426   .     S
C336   O360    1.292   .     A
C336   O361    1.294   .     A
C337   O363    1.308   .     A
C337   O362    1.305   .     A
C337   C339    1.481   .     S
C338   H347    1.085   .     S
C338   C741    1.397   1_554 S
C340   C341    1.390   .     A
C340   H349    1.083   .     S
C341   C756    1.393   .     S
C342   H350    1.077   .     S
C342   C738    1.417   1_554 S
C342   C755    1.393   1_554 S
Cu343  O358    1.943   .     S
Cu343  Cu344   2.705   .     S
Cu343  O362    1.923   .     S
Cu343  O360    1.955   .     S
Cu343  N355    2.032   .     S
Cu343  O356    1.963   .     S
Cu344  O357    1.955   .     S
Cu344  N354    2.032   .     S
Cu344  O361    1.963   .     S
Cu344  O363    1.943   .     S
Cu344  O359    1.923   .     S
H345   N401    1.029   .     S
H351   C387    1.083   .     S
N354   N401    1.284   .     S
N354   I414    2.079   .     S
C364   H365    1.078   .     S
C364   O412    1.222   .     S
I367   C59     2.134   1_565 S
C369   C379    1.428   .     S
C369   O402    1.294   .     A
C369   O403    1.295   .     A
C370   C371    1.420   .     A
C370   C786    1.428   .     S
C370   C802    1.417   .     S
C371   C378    1.416   .     A
C371   C375    1.405   .     A
C372   C376    1.404   .     A
C372   C784    1.428   1_554 S
C372   C787    1.416   1_554 S
C373   C374    1.391   .     A
C373   C786    1.416   .     S
C373   C798    1.397   .     S
C374   C375    1.384   .     A
C374   H392    1.084   .     S
C375   H398    1.081   .     S
C376   H394    1.076   .     S
C376   C385    1.406   .     A
C377   C410    1.480   .     S
C377   C385    1.420   .     A
C377   C384    1.399   .     A
C378   C386    1.402   .     A
C378   C380    1.478   .     S
C379   C105    1.336   1_565 S
C379   H123    1.088   1_565 S
C380   O404    1.305   .     A
C380   O405    1.306   .     A
C381   C382    1.426   .     S
C382   O406    1.292   .     A
C382   O407    1.294   .     A
C383   O409    1.308   .     A
C383   O408    1.305   .     A
C383   C385    1.481   .     S
C384   H393    1.085   .     S
C384   C787    1.397   1_554 S
C386   C387    1.390   .     A
C386   H395    1.083   .     S
C387   C802    1.393   .     S
C388   H396    1.077   .     S
C388   C784    1.417   1_554 S
C388   C801    1.393   1_554 S
Cu389  O404    1.943   .     S
Cu389  Cu390   2.705   .     S
Cu389  O408    1.923   .     S
Cu389  O406    1.955   .     S
Cu389  N401    2.032   .     S
Cu389  O402    1.963   .     S
Cu390  O403    1.955   .     S
Cu390  N400    2.032   .     S
Cu390  O407    1.963   .     S
Cu390  O409    1.943   .     S
Cu390  O405    1.923   .     S
H391   N309    1.029   1_655 S
H397   C295    1.083   1_655 S
N400   N309    1.284   1_655 S
N400   I322    2.079   1_655 S
C410   H411    1.078   .     S
C410   O320    1.222   1_655 S
I413   C105    2.134   1_565 S
C415   C425    1.428   .     S
C415   O448    1.294   .     A
C415   O449    1.295   .     A
C416   C417    1.420   .     A
C416   C4      1.428   1_556 S
C416   C20     1.417   1_556 S
C417   C424    1.416   .     A
C417   C421    1.405   .     A
C418   C422    1.404   .     A
C419   C420    1.391   .     A
C419   C4      1.416   1_556 S
C419   C16     1.397   1_556 S
C420   C421    1.384   .     A
C420   H438    1.084   .     S
C421   H444    1.081   .     S
C422   H440    1.076   .     S
C422   C431    1.406   .     A
C423   C456    1.480   .     S
C423   C431    1.420   .     A
C423   C430    1.399   .     A
C424   C432    1.402   .     A
C424   C426    1.478   .     S
C425   C565    1.336   .     S
C425   H583    1.088   .     S
C426   O450    1.305   .     A
C426   O451    1.306   .     A
C427   C428    1.426   .     S
C427   C701    1.336   1_545 S
C427   I735    2.134   1_545 S
C428   O452    1.292   .     A
C428   O453    1.294   .     A
C429   O455    1.308   .     A
C429   O454    1.305   .     A
C429   C431    1.481   .     S
C430   H439    1.085   .     S
C432   C433    1.390   .     A
C432   H441    1.083   .     S
C433   C20     1.393   1_556 S
C433   H535    1.083   1_455 S
C434   H442    1.077   .     S
Cu435  O450    1.943   .     S
Cu435  Cu436   2.705   .     S
Cu435  O454    1.923   .     S
Cu435  O452    1.955   .     S
Cu435  N447    2.032   .     S
Cu435  O448    1.963   .     S
Cu436  O449    1.955   .     S
Cu436  N446    2.032   .     S
Cu436  O453    1.963   .     S
Cu436  O455    1.943   .     S
Cu436  O451    1.923   .     S
H437   N493    1.029   .     S
H443   C479    1.083   .     S
H445   C701    1.088   1_545 S
N446   N493    1.284   .     S
N446   I506    2.079   .     S
N447   H529    1.029   1_455 S
N447   N538    1.284   1_455 S
C456   H457    1.078   .     S
C456   O504    1.222   .     S
O458   C548    1.222   1_455 S
I459   C565    2.134   .     S
I460   N538    2.079   1_455 S
C461   C471    1.428   .     S
C461   O494    1.294   .     A
C461   O495    1.295   .     A
C462   C463    1.420   .     A
C462   C50     1.428   1_556 S
C462   C66     1.417   1_556 S
C463   C470    1.416   .     A
C463   C467    1.405   .     A
C464   C468    1.404   .     A
C465   C466    1.391   .     A
C465   C50     1.416   1_556 S
C465   C62     1.397   1_556 S
C466   C467    1.384   .     A
C466   H484    1.084   .     S
C467   H490    1.081   .     S
C468   H486    1.076   .     S
C468   C477    1.406   .     A
C469   C502    1.480   .     S
C469   C477    1.420   .     A
C469   C476    1.399   .     A
C470   C478    1.402   .     A
C470   C472    1.478   .     S
C471   C611    1.336   .     S
C471   H629    1.088   .     S
C472   O496    1.305   .     A
C472   O497    1.306   .     A
C473   C474    1.426   .     S
C473   C747    1.336   1_545 S
C473   I781    2.134   1_545 S
C474   O498    1.292   .     A
C474   O499    1.294   .     A
C475   O501    1.308   .     A
C475   O500    1.305   .     A
C475   C477    1.481   .     S
C476   H485    1.085   .     S
C478   C479    1.390   .     A
C478   H487    1.083   .     S
C479   C66     1.393   1_556 S
C480   H488    1.077   .     S
Cu481  O496    1.943   .     S
Cu481  Cu482   2.705   .     S
Cu481  O500    1.923   .     S
Cu481  O498    1.955   .     S
Cu481  N493    2.032   .     S
Cu481  O494    1.963   .     S
Cu482  O495    1.955   .     S
Cu482  N492    2.032   .     S
Cu482  O499    1.963   .     S
Cu482  O501    1.943   .     S
Cu482  O497    1.923   .     S
H483   N539    1.029   .     S
H489   C525    1.083   .     S
H491   C747    1.088   1_545 S
N492   N539    1.284   .     S
N492   I552    2.079   .     S
C502   H503    1.078   .     S
C502   O550    1.222   .     S
I505   C611    2.134   .     S
C507   C517    1.428   .     S
C507   O540    1.294   .     A
C507   O541    1.295   .     A
C508   C509    1.420   .     A
C508   C96     1.428   1_556 S
C508   C112    1.417   1_556 S
C509   C516    1.416   .     A
C509   C513    1.405   .     A
C510   C514    1.404   .     A
C511   C512    1.391   .     A
C511   C96     1.416   1_556 S
C511   C108    1.397   1_556 S
C512   C513    1.384   .     A
C512   H530    1.084   .     S
C513   H536    1.081   .     S
C514   H532    1.076   .     S
C514   C523    1.406   .     A
C515   C548    1.480   .     S
C515   C523    1.420   .     A
C515   C522    1.399   .     A
C516   C524    1.402   .     A
C516   C518    1.478   .     S
C517   C657    1.336   .     S
C517   H675    1.088   .     S
C518   O542    1.305   .     A
C518   O543    1.306   .     A
C519   C520    1.426   .     S
C519   C793    1.336   1_545 S
C519   I827    2.134   1_545 S
C520   O544    1.292   .     A
C520   O545    1.294   .     A
C521   O547    1.308   .     A
C521   O546    1.305   .     A
C521   C523    1.481   .     S
C522   H531    1.085   .     S
C524   C525    1.390   .     A
C524   H533    1.083   .     S
C525   C112    1.393   1_556 S
C526   H534    1.077   .     S
Cu527  O542    1.943   .     S
Cu527  Cu528   2.705   .     S
Cu527  O546    1.923   .     S
Cu527  O544    1.955   .     S
Cu527  N539    2.032   .     S
Cu527  O540    1.963   .     S
Cu528  O541    1.955   .     S
Cu528  N538    2.032   .     S
Cu528  O545    1.963   .     S
Cu528  O547    1.943   .     S
Cu528  O543    1.923   .     S
H529   N447    1.029   1_655 S
H535   C433    1.083   1_655 S
H537   C793    1.088   1_545 S
N538   N447    1.284   1_655 S
N538   I460    2.079   1_655 S
C548   H549    1.078   .     S
C548   O458    1.222   1_655 S
I551   C657    2.134   .     S
C553   C563    1.428   .     S
C553   O586    1.294   .     A
C553   O587    1.295   .     A
C554   C555    1.420   .     A
C554   C142    1.428   1_556 S
C554   C158    1.417   1_556 S
C555   C562    1.416   .     A
C555   C559    1.405   .     A
C556   C560    1.404   .     A
C557   C558    1.391   .     A
C557   C142    1.416   1_556 S
C557   C154    1.397   1_556 S
C558   C559    1.384   .     A
C558   H576    1.084   .     S
C559   H582    1.081   .     S
C560   H578    1.076   .     S
C560   C569    1.406   .     A
C561   C594    1.480   .     S
C561   C569    1.420   .     A
C561   C568    1.399   .     A
C562   C570    1.402   .     A
C562   C564    1.478   .     S
C563   C703    1.336   .     S
C563   H721    1.088   .     S
C564   O588    1.305   .     A
C564   O589    1.306   .     A
C565   C566    1.426   .     S
C566   O590    1.292   .     A
C566   O591    1.294   .     A
C567   O593    1.308   .     A
C567   O592    1.305   .     A
C567   C569    1.481   .     S
C568   H577    1.085   .     S
C570   C571    1.390   .     A
C570   H579    1.083   .     S
C571   C158    1.393   1_556 S
C571   H673    1.083   1_455 S
C572   H580    1.077   .     S
Cu573  O588    1.943   .     S
Cu573  Cu574   2.705   .     S
Cu573  O592    1.923   .     S
Cu573  O590    1.955   .     S
Cu573  N585    2.032   .     S
Cu573  O586    1.963   .     S
Cu574  O587    1.955   .     S
Cu574  N584    2.032   .     S
Cu574  O591    1.963   .     S
Cu574  O593    1.943   .     S
Cu574  O589    1.923   .     S
H575   N631    1.029   .     S
H581   C617    1.083   .     S
N584   N631    1.284   .     S
N584   I644    2.079   .     S
N585   H667    1.029   1_455 S
N585   N676    1.284   1_455 S
C594   H595    1.078   .     S
C594   O642    1.222   .     S
O596   C686    1.222   1_455 S
I597   C703    2.134   .     S
I598   N676    2.079   1_455 S
C599   C609    1.428   .     S
C599   O632    1.294   .     A
C599   O633    1.295   .     A
C600   C601    1.420   .     A
C600   C188    1.428   1_556 S
C600   C204    1.417   1_556 S
C601   C608    1.416   .     A
C601   C605    1.405   .     A
C602   C606    1.404   .     A
C603   C604    1.391   .     A
C603   C188    1.416   1_556 S
C603   C200    1.397   1_556 S
C604   C605    1.384   .     A
C604   H622    1.084   .     S
C605   H628    1.081   .     S
C606   H624    1.076   .     S
C606   C615    1.406   .     A
C607   C640    1.480   .     S
C607   C615    1.420   .     A
C607   C614    1.399   .     A
C608   C616    1.402   .     A
C608   C610    1.478   .     S
C609   C749    1.336   .     S
C609   H767    1.088   .     S
C610   O634    1.305   .     A
C610   O635    1.306   .     A
C611   C612    1.426   .     S
C612   O636    1.292   .     A
C612   O637    1.294   .     A
C613   O639    1.308   .     A
C613   O638    1.305   .     A
C613   C615    1.481   .     S
C614   H623    1.085   .     S
C616   C617    1.390   .     A
C616   H625    1.083   .     S
C617   C204    1.393   1_556 S
C618   H626    1.077   .     S
Cu619  O634    1.943   .     S
Cu619  Cu620   2.705   .     S
Cu619  O638    1.923   .     S
Cu619  O636    1.955   .     S
Cu619  N631    2.032   .     S
Cu619  O632    1.963   .     S
Cu620  O633    1.955   .     S
Cu620  N630    2.032   .     S
Cu620  O637    1.963   .     S
Cu620  O639    1.943   .     S
Cu620  O635    1.923   .     S
H621   N677    1.029   .     S
H627   C663    1.083   .     S
N630   N677    1.284   .     S
N630   I690    2.079   .     S
C640   H641    1.078   .     S
C640   O688    1.222   .     S
I643   C749    2.134   .     S
C645   C655    1.428   .     S
C645   O678    1.294   .     A
C645   O679    1.295   .     A
C646   C647    1.420   .     A
C646   C234    1.428   1_556 S
C646   C250    1.417   1_556 S
C647   C654    1.416   .     A
C647   C651    1.405   .     A
C648   C652    1.404   .     A
C649   C650    1.391   .     A
C649   C234    1.416   1_556 S
C649   C246    1.397   1_556 S
C650   C651    1.384   .     A
C650   H668    1.084   .     S
C651   H674    1.081   .     S
C652   H670    1.076   .     S
C652   C661    1.406   .     A
C653   C686    1.480   .     S
C653   C661    1.420   .     A
C653   C660    1.399   .     A
C654   C662    1.402   .     A
C654   C656    1.478   .     S
C655   C795    1.336   .     S
C655   H813    1.088   .     S
C656   O680    1.305   .     A
C656   O681    1.306   .     A
C657   C658    1.426   .     S
C658   O682    1.292   .     A
C658   O683    1.294   .     A
C659   O685    1.308   .     A
C659   O684    1.305   .     A
C659   C661    1.481   .     S
C660   H669    1.085   .     S
C662   C663    1.390   .     A
C662   H671    1.083   .     S
C663   C250    1.393   1_556 S
C664   H672    1.077   .     S
Cu665  O680    1.943   .     S
Cu665  Cu666   2.705   .     S
Cu665  O684    1.923   .     S
Cu665  O682    1.955   .     S
Cu665  N677    2.032   .     S
Cu665  O678    1.963   .     S
Cu666  O679    1.955   .     S
Cu666  N676    2.032   .     S
Cu666  O683    1.963   .     S
Cu666  O685    1.943   .     S
Cu666  O681    1.923   .     S
H667   N585    1.029   1_655 S
H673   C571    1.083   1_655 S
N676   N585    1.284   1_655 S
N676   I598    2.079   1_655 S
C686   H687    1.078   .     S
C686   O596    1.222   1_655 S
I689   C795    2.134   .     S
C691   C701    1.428   .     S
C691   O724    1.294   .     A
C691   O725    1.295   .     A
C692   C693    1.420   .     A
C692   C280    1.428   1_556 S
C692   C296    1.417   1_556 S
C693   C700    1.416   .     A
C693   C697    1.405   .     A
C694   C698    1.404   .     A
C695   C696    1.391   .     A
C695   C280    1.416   1_556 S
C695   C292    1.397   1_556 S
C696   C697    1.384   .     A
C696   H714    1.084   .     S
C697   H720    1.081   .     S
C698   H716    1.076   .     S
C698   C707    1.406   .     A
C699   C732    1.480   .     S
C699   C707    1.420   .     A
C699   C706    1.399   .     A
C700   C708    1.402   .     A
C700   C702    1.478   .     S
C701   C427    1.336   1_565 S
C701   H445    1.088   1_565 S
C702   O726    1.305   .     A
C702   O727    1.306   .     A
C703   C704    1.426   .     S
C704   O728    1.292   .     A
C704   O729    1.294   .     A
C705   O731    1.308   .     A
C705   O730    1.305   .     A
C705   C707    1.481   .     S
C706   H715    1.085   .     S
C708   C709    1.390   .     A
C708   H717    1.083   .     S
C709   C296    1.393   1_556 S
C709   H811    1.083   1_455 S
C710   H718    1.077   .     S
Cu711  O726    1.943   .     S
Cu711  Cu712   2.705   .     S
Cu711  O730    1.923   .     S
Cu711  O728    1.955   .     S
Cu711  N723    2.032   .     S
Cu711  O724    1.963   .     S
Cu712  O725    1.955   .     S
Cu712  N722    2.032   .     S
Cu712  O729    1.963   .     S
Cu712  O731    1.943   .     S
Cu712  O727    1.923   .     S
H713   N769    1.029   .     S
H719   C755    1.083   .     S
N722   N769    1.284   .     S
N722   I782    2.079   .     S
N723   H805    1.029   1_455 S
N723   N814    1.284   1_455 S
C732   H733    1.078   .     S
C732   O780    1.222   .     S
O734   C824    1.222   1_455 S
I735   C427    2.134   1_565 S
I736   N814    2.079   1_455 S
C737   C747    1.428   .     S
C737   O770    1.294   .     A
C737   O771    1.295   .     A
C738   C739    1.420   .     A
C738   C326    1.428   1_556 S
C738   C342    1.417   1_556 S
C739   C746    1.416   .     A
C739   C743    1.405   .     A
C740   C744    1.404   .     A
C741   C742    1.391   .     A
C741   C326    1.416   1_556 S
C741   C338    1.397   1_556 S
C742   C743    1.384   .     A
C742   H760    1.084   .     S
C743   H766    1.081   .     S
C744   H762    1.076   .     S
C744   C753    1.406   .     A
C745   C778    1.480   .     S
C745   C753    1.420   .     A
C745   C752    1.399   .     A
C746   C754    1.402   .     A
C746   C748    1.478   .     S
C747   C473    1.336   1_565 S
C747   H491    1.088   1_565 S
C748   O772    1.305   .     A
C748   O773    1.306   .     A
C749   C750    1.426   .     S
C750   O774    1.292   .     A
C750   O775    1.294   .     A
C751   O777    1.308   .     A
C751   O776    1.305   .     A
C751   C753    1.481   .     S
C752   H761    1.085   .     S
C754   C755    1.390   .     A
C754   H763    1.083   .     S
C755   C342    1.393   1_556 S
C756   H764    1.077   .     S
Cu757  O772    1.943   .     S
Cu757  Cu758   2.705   .     S
Cu757  O776    1.923   .     S
Cu757  O774    1.955   .     S
Cu757  N769    2.032   .     S
Cu757  O770    1.963   .     S
Cu758  O771    1.955   .     S
Cu758  N768    2.032   .     S
Cu758  O775    1.963   .     S
Cu758  O777    1.943   .     S
Cu758  O773    1.923   .     S
H759   N815    1.029   .     S
H765   C801    1.083   .     S
N768   N815    1.284   .     S
N768   I828    2.079   .     S
C778   H779    1.078   .     S
C778   O826    1.222   .     S
I781   C473    2.134   1_565 S
C783   C793    1.428   .     S
C783   O816    1.294   .     A
C783   O817    1.295   .     A
C784   C785    1.420   .     A
C784   C372    1.428   1_556 S
C784   C388    1.417   1_556 S
C785   C792    1.416   .     A
C785   C789    1.405   .     A
C786   C790    1.404   .     A
C787   C788    1.391   .     A
C787   C372    1.416   1_556 S
C787   C384    1.397   1_556 S
C788   C789    1.384   .     A
C788   H806    1.084   .     S
C789   H812    1.081   .     S
C790   H808    1.076   .     S
C790   C799    1.406   .     A
C791   C824    1.480   .     S
C791   C799    1.420   .     A
C791   C798    1.399   .     A
C792   C800    1.402   .     A
C792   C794    1.478   .     S
C793   C519    1.336   1_565 S
C793   H537    1.088   1_565 S
C794   O818    1.305   .     A
C794   O819    1.306   .     A
C795   C796    1.426   .     S
C796   O820    1.292   .     A
C796   O821    1.294   .     A
C797   O823    1.308   .     A
C797   O822    1.305   .     A
C797   C799    1.481   .     S
C798   H807    1.085   .     S
C800   C801    1.390   .     A
C800   H809    1.083   .     S
C801   C388    1.393   1_556 S
C802   H810    1.077   .     S
Cu803  O818    1.943   .     S
Cu803  Cu804   2.705   .     S
Cu803  O822    1.923   .     S
Cu803  O820    1.955   .     S
Cu803  N815    2.032   .     S
Cu803  O816    1.963   .     S
Cu804  O817    1.955   .     S
Cu804  N814    2.032   .     S
Cu804  O821    1.963   .     S
Cu804  O823    1.943   .     S
Cu804  O819    1.923   .     S
H805   N723    1.029   1_655 S
H811   C709    1.083   1_655 S
N814   N723    1.284   1_655 S
N814   I736    2.079   1_655 S
C824   H825    1.078   .     S
C824   O734    1.222   1_655 S
I827   C519    2.134   1_565 S
