data_str_m2_o1_o5_pcu_sym.63
_audit_creation_date              2020-01-03
_audit_creation_method            'Materials Studio'
_symmetry_space_group_name_H-M    'P1'
_symmetry_Int_Tables_number       1
_symmetry_cell_setting            triclinic
loop_
_symmetry_equiv_pos_as_xyz
  x,y,z
_cell_length_a                    32.8144
_cell_length_b                    28.8434
_cell_length_c                    27.1870
_cell_angle_alpha                 89.7137
_cell_angle_beta                  92.1922
_cell_angle_gamma                 89.1562
loop_
_atom_site_label
_atom_site_type_symbol
_atom_site_fract_x
_atom_site_fract_y
_atom_site_fract_z
_atom_site_U_iso_or_equiv
_atom_site_adp_type
_atom_site_occupancy
O1     O     0.10655   0.20625   0.16666   0.00000  Uiso   1.00
O2     O     0.22679   0.12709   0.16667   0.00000  Uiso   1.00
O3     O     0.22679   0.20625   0.16667   0.00000  Uiso   1.00
O4     O     0.10655   0.12709   0.16666   0.00000  Uiso   1.00
C5     C     0.08759   0.16704   0.16969   0.00000  Uiso   1.00
C6     C     0.24575   0.16629   0.16367   0.00000  Uiso   1.00
O7     O     0.16667   0.20625   0.09613   0.00000  Uiso   1.00
O8     O     0.16667   0.12708   0.23720   0.00000  Uiso   1.00
O9     O     0.16667   0.20625   0.23720   0.00000  Uiso   1.00
O10    O     0.16667   0.12708   0.09613   0.00000  Uiso   1.00
C11    C     0.16657   0.16674   0.07363   0.00000  Uiso   1.00
C12    C     0.16677   0.16659   0.25970   0.00000  Uiso   1.00
Cu13   Cu    0.16667   0.21355   0.16667   0.00000  Uiso   1.00
Cu14   Cu    0.16667   0.11978   0.16667   0.00000  Uiso   1.00
C15    C     0.16663   0.16677   0.02187   0.00000  Uiso   1.00
C16    C     0.16670   0.16657   0.31146   0.00000  Uiso   1.00
C17    C     0.02197   0.12565   0.17870   0.00000  Uiso   1.00
C18    C     0.31138   0.20768   0.15473   0.00000  Uiso   1.00
C19    C     0.31331   0.12398   0.16906   0.00000  Uiso   1.00
C20    C     0.02004   0.20934   0.16441   0.00000  Uiso   1.00
C21    C     0.29059   0.16562   0.16094   0.00000  Uiso   1.00
C22    C     0.04276   0.16771   0.17248   0.00000  Uiso   1.00
C23    C     0.14708   0.02525   0.12953   0.00000  Uiso   1.00
C24    C     0.18625   0.30808   0.20381   0.00000  Uiso   1.00
C25    C     0.18556   0.02407   0.20437   0.00000  Uiso   1.00
C26    C     0.14776   0.30925   0.12899   0.00000  Uiso   1.00
N27    N     0.16667   0.28402   0.16667   0.00000  Uiso   1.00
N28    N     0.16667   0.04931   0.16667   0.00000  Uiso   1.00
C29    C     0.04268   0.08471   0.19945   0.00000  Uiso   1.00
N30    N     0.05921   0.05237   0.21642   0.00000  Uiso   1.00
C31    C     0.29069   0.24863   0.13399   0.00000  Uiso   1.00
N32    N     0.27418   0.28099   0.11703   0.00000  Uiso   1.00
C33    C     0.29512   0.07871   0.16318   0.00000  Uiso   1.00
N34    N     0.28102   0.04246   0.15796   0.00000  Uiso   1.00
C35    C     0.03821   0.25461   0.17044   0.00000  Uiso   1.00
N36    N     0.05231   0.29084   0.17578   0.00000  Uiso   1.00
N37    N     0.12382   0.04952   0.09178   0.00000  Uiso   1.00
O38    O     0.08552   0.05883   0.09826   0.00000  Uiso   1.00
O39    O     0.13734   0.05136   0.04747   0.00000  Uiso   1.00
N40    N     0.20958   0.28380   0.24149   0.00000  Uiso   1.00
O41    O     0.19602   0.28174   0.28578   0.00000  Uiso   1.00
O42    O     0.24795   0.27484   0.23506   0.00000  Uiso   1.00
N43    N     0.20304   0.04693   0.24651   0.00000  Uiso   1.00
O44    O     0.23936   0.06407   0.24545   0.00000  Uiso   1.00
O45    O     0.18519   0.04441   0.28834   0.00000  Uiso   1.00
N46    N     0.13021   0.28637   0.08690   0.00000  Uiso   1.00
O47    O     0.14821   0.28852   0.04516   0.00000  Uiso   1.00
O48    O     0.09345   0.27033   0.08772   0.00000  Uiso   1.00
O49    O     0.43988   0.20625   0.16666   0.00000  Uiso   1.00
O50    O     0.56012   0.12709   0.16667   0.00000  Uiso   1.00
O51    O     0.56012   0.20625   0.16667   0.00000  Uiso   1.00
O52    O     0.43988   0.12709   0.16666   0.00000  Uiso   1.00
C53    C     0.42092   0.16704   0.16969   0.00000  Uiso   1.00
C54    C     0.57908   0.16629   0.16367   0.00000  Uiso   1.00
O55    O     0.50000   0.20625   0.09613   0.00000  Uiso   1.00
O56    O     0.50000   0.12708   0.23720   0.00000  Uiso   1.00
O57    O     0.50000   0.20625   0.23720   0.00000  Uiso   1.00
O58    O     0.50000   0.12708   0.09613   0.00000  Uiso   1.00
C59    C     0.49990   0.16674   0.07363   0.00000  Uiso   1.00
C60    C     0.50010   0.16659   0.25970   0.00000  Uiso   1.00
Cu61   Cu    0.50000   0.21355   0.16667   0.00000  Uiso   1.00
Cu62   Cu    0.50000   0.11978   0.16667   0.00000  Uiso   1.00
C63    C     0.49997   0.16677   0.02187   0.00000  Uiso   1.00
C64    C     0.50003   0.16657   0.31146   0.00000  Uiso   1.00
C65    C     0.35530   0.12565   0.17870   0.00000  Uiso   1.00
C66    C     0.64471   0.20768   0.15473   0.00000  Uiso   1.00
C67    C     0.64664   0.12398   0.16906   0.00000  Uiso   1.00
C68    C     0.35337   0.20934   0.16441   0.00000  Uiso   1.00
C69    C     0.62392   0.16562   0.16094   0.00000  Uiso   1.00
C70    C     0.37609   0.16771   0.17248   0.00000  Uiso   1.00
C71    C     0.48042   0.02525   0.12953   0.00000  Uiso   1.00
C72    C     0.51958   0.30808   0.20381   0.00000  Uiso   1.00
C73    C     0.51889   0.02407   0.20437   0.00000  Uiso   1.00
C74    C     0.48109   0.30925   0.12899   0.00000  Uiso   1.00
N75    N     0.50000   0.28402   0.16667   0.00000  Uiso   1.00
N76    N     0.50000   0.04931   0.16667   0.00000  Uiso   1.00
C77    C     0.37602   0.08471   0.19945   0.00000  Uiso   1.00
N78    N     0.39254   0.05237   0.21642   0.00000  Uiso   1.00
C79    C     0.62402   0.24863   0.13399   0.00000  Uiso   1.00
N80    N     0.60751   0.28099   0.11703   0.00000  Uiso   1.00
C81    C     0.62846   0.07871   0.16318   0.00000  Uiso   1.00
N82    N     0.61436   0.04246   0.15796   0.00000  Uiso   1.00
C83    C     0.37155   0.25461   0.17044   0.00000  Uiso   1.00
N84    N     0.38564   0.29084   0.17578   0.00000  Uiso   1.00
N85    N     0.45715   0.04952   0.09178   0.00000  Uiso   1.00
O86    O     0.41885   0.05883   0.09826   0.00000  Uiso   1.00
O87    O     0.47067   0.05136   0.04747   0.00000  Uiso   1.00
N88    N     0.54291   0.28380   0.24149   0.00000  Uiso   1.00
O89    O     0.52935   0.28174   0.28578   0.00000  Uiso   1.00
O90    O     0.58129   0.27484   0.23506   0.00000  Uiso   1.00
N91    N     0.53637   0.04693   0.24651   0.00000  Uiso   1.00
O92    O     0.57269   0.06407   0.24545   0.00000  Uiso   1.00
O93    O     0.51853   0.04441   0.28834   0.00000  Uiso   1.00
N94    N     0.46354   0.28637   0.08690   0.00000  Uiso   1.00
O95    O     0.48155   0.28852   0.04516   0.00000  Uiso   1.00
O96    O     0.42679   0.27033   0.08772   0.00000  Uiso   1.00
O97    O     0.77321   0.20625   0.16666   0.00000  Uiso   1.00
O98    O     0.89345   0.12709   0.16667   0.00000  Uiso   1.00
O99    O     0.89345   0.20625   0.16667   0.00000  Uiso   1.00
O100   O     0.77321   0.12709   0.16666   0.00000  Uiso   1.00
C101   C     0.75425   0.16704   0.16969   0.00000  Uiso   1.00
C102   C     0.91242   0.16629   0.16367   0.00000  Uiso   1.00
O103   O     0.83333   0.20625   0.09613   0.00000  Uiso   1.00
O104   O     0.83333   0.12708   0.23720   0.00000  Uiso   1.00
O105   O     0.83333   0.20625   0.23720   0.00000  Uiso   1.00
O106   O     0.83333   0.12708   0.09613   0.00000  Uiso   1.00
C107   C     0.83323   0.16674   0.07363   0.00000  Uiso   1.00
C108   C     0.83343   0.16659   0.25970   0.00000  Uiso   1.00
Cu109  Cu    0.83333   0.21355   0.16667   0.00000  Uiso   1.00
Cu110  Cu    0.83333   0.11978   0.16667   0.00000  Uiso   1.00
C111   C     0.83330   0.16677   0.02187   0.00000  Uiso   1.00
C112   C     0.83337   0.16657   0.31146   0.00000  Uiso   1.00
C113   C     0.68864   0.12565   0.17870   0.00000  Uiso   1.00
C114   C     0.97805   0.20768   0.15473   0.00000  Uiso   1.00
C115   C     0.97997   0.12398   0.16906   0.00000  Uiso   1.00
C116   C     0.68670   0.20934   0.16441   0.00000  Uiso   1.00
C117   C     0.95725   0.16562   0.16094   0.00000  Uiso   1.00
C118   C     0.70942   0.16771   0.17248   0.00000  Uiso   1.00
C119   C     0.81375   0.02525   0.12953   0.00000  Uiso   1.00
C120   C     0.85291   0.30808   0.20381   0.00000  Uiso   1.00
C121   C     0.85223   0.02407   0.20437   0.00000  Uiso   1.00
C122   C     0.81442   0.30925   0.12899   0.00000  Uiso   1.00
N123   N     0.83333   0.28402   0.16667   0.00000  Uiso   1.00
N124   N     0.83333   0.04931   0.16667   0.00000  Uiso   1.00
C125   C     0.70935   0.08471   0.19945   0.00000  Uiso   1.00
N126   N     0.72588   0.05237   0.21642   0.00000  Uiso   1.00
C127   C     0.95735   0.24863   0.13399   0.00000  Uiso   1.00
N128   N     0.94084   0.28099   0.11703   0.00000  Uiso   1.00
C129   C     0.96179   0.07871   0.16318   0.00000  Uiso   1.00
N130   N     0.94769   0.04246   0.15796   0.00000  Uiso   1.00
C131   C     0.70488   0.25461   0.17044   0.00000  Uiso   1.00
N132   N     0.71898   0.29084   0.17578   0.00000  Uiso   1.00
N133   N     0.79048   0.04952   0.09178   0.00000  Uiso   1.00
O134   O     0.75218   0.05883   0.09826   0.00000  Uiso   1.00
O135   O     0.80401   0.05136   0.04747   0.00000  Uiso   1.00
N136   N     0.87625   0.28380   0.24149   0.00000  Uiso   1.00
O137   O     0.86269   0.28174   0.28578   0.00000  Uiso   1.00
O138   O     0.91462   0.27484   0.23506   0.00000  Uiso   1.00
N139   N     0.86970   0.04693   0.24651   0.00000  Uiso   1.00
O140   O     0.90603   0.06407   0.24545   0.00000  Uiso   1.00
O141   O     0.85186   0.04441   0.28834   0.00000  Uiso   1.00
N142   N     0.79687   0.28637   0.08690   0.00000  Uiso   1.00
O143   O     0.81488   0.28852   0.04516   0.00000  Uiso   1.00
O144   O     0.76012   0.27033   0.08772   0.00000  Uiso   1.00
O145   O     0.10655   0.53958   0.16666   0.00000  Uiso   1.00
O146   O     0.22679   0.46042   0.16667   0.00000  Uiso   1.00
O147   O     0.22679   0.53958   0.16667   0.00000  Uiso   1.00
O148   O     0.10655   0.46042   0.16666   0.00000  Uiso   1.00
C149   C     0.08759   0.50037   0.16969   0.00000  Uiso   1.00
C150   C     0.24575   0.49963   0.16367   0.00000  Uiso   1.00
O151   O     0.16667   0.53959   0.09613   0.00000  Uiso   1.00
O152   O     0.16667   0.46041   0.23720   0.00000  Uiso   1.00
O153   O     0.16667   0.53959   0.23720   0.00000  Uiso   1.00
O154   O     0.16667   0.46041   0.09613   0.00000  Uiso   1.00
C155   C     0.16657   0.50007   0.07363   0.00000  Uiso   1.00
C156   C     0.16677   0.49993   0.25970   0.00000  Uiso   1.00
Cu157  Cu    0.16667   0.54689   0.16667   0.00000  Uiso   1.00
Cu158  Cu    0.16667   0.45311   0.16667   0.00000  Uiso   1.00
C159   C     0.16663   0.50010   0.02187   0.00000  Uiso   1.00
C160   C     0.16670   0.49990   0.31146   0.00000  Uiso   1.00
C161   C     0.02197   0.45899   0.17870   0.00000  Uiso   1.00
C162   C     0.31138   0.54101   0.15473   0.00000  Uiso   1.00
C163   C     0.31331   0.45732   0.16906   0.00000  Uiso   1.00
C164   C     0.02004   0.54268   0.16441   0.00000  Uiso   1.00
C165   C     0.29059   0.49895   0.16094   0.00000  Uiso   1.00
C166   C     0.04276   0.50104   0.17248   0.00000  Uiso   1.00
C167   C     0.14708   0.35858   0.12953   0.00000  Uiso   1.00
C168   C     0.18625   0.64141   0.20381   0.00000  Uiso   1.00
C169   C     0.18556   0.35741   0.20437   0.00000  Uiso   1.00
C170   C     0.14776   0.64259   0.12899   0.00000  Uiso   1.00
N171   N     0.16667   0.61736   0.16667   0.00000  Uiso   1.00
N172   N     0.16667   0.38264   0.16667   0.00000  Uiso   1.00
C173   C     0.04268   0.41805   0.19945   0.00000  Uiso   1.00
N174   N     0.05921   0.38570   0.21642   0.00000  Uiso   1.00
C175   C     0.29069   0.58196   0.13399   0.00000  Uiso   1.00
N176   N     0.27418   0.61432   0.11703   0.00000  Uiso   1.00
C177   C     0.29512   0.41204   0.16318   0.00000  Uiso   1.00
N178   N     0.28102   0.37579   0.15796   0.00000  Uiso   1.00
C179   C     0.03821   0.58794   0.17044   0.00000  Uiso   1.00
N180   N     0.05231   0.62418   0.17578   0.00000  Uiso   1.00
N181   N     0.12382   0.38286   0.09178   0.00000  Uiso   1.00
O182   O     0.08552   0.39216   0.09826   0.00000  Uiso   1.00
O183   O     0.13734   0.38469   0.04747   0.00000  Uiso   1.00
N184   N     0.20958   0.61713   0.24149   0.00000  Uiso   1.00
O185   O     0.19602   0.61507   0.28578   0.00000  Uiso   1.00
O186   O     0.24795   0.60817   0.23506   0.00000  Uiso   1.00
N187   N     0.20304   0.38026   0.24651   0.00000  Uiso   1.00
O188   O     0.23936   0.39740   0.24545   0.00000  Uiso   1.00
O189   O     0.18519   0.37774   0.28834   0.00000  Uiso   1.00
N190   N     0.13021   0.61971   0.08690   0.00000  Uiso   1.00
O191   O     0.14821   0.62185   0.04516   0.00000  Uiso   1.00
O192   O     0.09345   0.60366   0.08772   0.00000  Uiso   1.00
O193   O     0.43988   0.53958   0.16666   0.00000  Uiso   1.00
O194   O     0.56012   0.46042   0.16667   0.00000  Uiso   1.00
O195   O     0.56012   0.53958   0.16667   0.00000  Uiso   1.00
O196   O     0.43988   0.46042   0.16666   0.00000  Uiso   1.00
C197   C     0.42092   0.50037   0.16969   0.00000  Uiso   1.00
C198   C     0.57908   0.49963   0.16367   0.00000  Uiso   1.00
O199   O     0.50000   0.53959   0.09613   0.00000  Uiso   1.00
O200   O     0.50000   0.46041   0.23720   0.00000  Uiso   1.00
O201   O     0.50000   0.53959   0.23720   0.00000  Uiso   1.00
O202   O     0.50000   0.46041   0.09613   0.00000  Uiso   1.00
C203   C     0.49990   0.50007   0.07363   0.00000  Uiso   1.00
C204   C     0.50010   0.49993   0.25970   0.00000  Uiso   1.00
Cu205  Cu    0.50000   0.54689   0.16667   0.00000  Uiso   1.00
Cu206  Cu    0.50000   0.45311   0.16667   0.00000  Uiso   1.00
C207   C     0.49997   0.50010   0.02187   0.00000  Uiso   1.00
C208   C     0.50003   0.49990   0.31146   0.00000  Uiso   1.00
C209   C     0.35530   0.45899   0.17870   0.00000  Uiso   1.00
C210   C     0.64471   0.54101   0.15473   0.00000  Uiso   1.00
C211   C     0.64664   0.45732   0.16906   0.00000  Uiso   1.00
C212   C     0.35337   0.54268   0.16441   0.00000  Uiso   1.00
C213   C     0.62392   0.49895   0.16094   0.00000  Uiso   1.00
C214   C     0.37609   0.50104   0.17248   0.00000  Uiso   1.00
C215   C     0.48042   0.35858   0.12953   0.00000  Uiso   1.00
C216   C     0.51958   0.64141   0.20381   0.00000  Uiso   1.00
C217   C     0.51889   0.35741   0.20437   0.00000  Uiso   1.00
C218   C     0.48109   0.64259   0.12899   0.00000  Uiso   1.00
N219   N     0.50000   0.61736   0.16667   0.00000  Uiso   1.00
N220   N     0.50000   0.38264   0.16667   0.00000  Uiso   1.00
C221   C     0.37602   0.41805   0.19945   0.00000  Uiso   1.00
N222   N     0.39254   0.38570   0.21642   0.00000  Uiso   1.00
C223   C     0.62402   0.58196   0.13399   0.00000  Uiso   1.00
N224   N     0.60751   0.61432   0.11703   0.00000  Uiso   1.00
C225   C     0.62846   0.41204   0.16318   0.00000  Uiso   1.00
N226   N     0.61436   0.37579   0.15796   0.00000  Uiso   1.00
C227   C     0.37155   0.58794   0.17044   0.00000  Uiso   1.00
N228   N     0.38564   0.62418   0.17578   0.00000  Uiso   1.00
N229   N     0.45715   0.38286   0.09178   0.00000  Uiso   1.00
O230   O     0.41885   0.39216   0.09826   0.00000  Uiso   1.00
O231   O     0.47067   0.38469   0.04747   0.00000  Uiso   1.00
N232   N     0.54291   0.61713   0.24149   0.00000  Uiso   1.00
O233   O     0.52935   0.61507   0.28578   0.00000  Uiso   1.00
O234   O     0.58129   0.60817   0.23506   0.00000  Uiso   1.00
N235   N     0.53637   0.38026   0.24651   0.00000  Uiso   1.00
O236   O     0.57269   0.39740   0.24545   0.00000  Uiso   1.00
O237   O     0.51853   0.37774   0.28834   0.00000  Uiso   1.00
N238   N     0.46354   0.61971   0.08690   0.00000  Uiso   1.00
O239   O     0.48155   0.62185   0.04516   0.00000  Uiso   1.00
O240   O     0.42679   0.60366   0.08772   0.00000  Uiso   1.00
O241   O     0.77321   0.53958   0.16666   0.00000  Uiso   1.00
O242   O     0.89345   0.46042   0.16667   0.00000  Uiso   1.00
O243   O     0.89345   0.53958   0.16667   0.00000  Uiso   1.00
O244   O     0.77321   0.46042   0.16666   0.00000  Uiso   1.00
C245   C     0.75425   0.50037   0.16969   0.00000  Uiso   1.00
C246   C     0.91242   0.49963   0.16367   0.00000  Uiso   1.00
O247   O     0.83333   0.53959   0.09613   0.00000  Uiso   1.00
O248   O     0.83333   0.46041   0.23720   0.00000  Uiso   1.00
O249   O     0.83333   0.53959   0.23720   0.00000  Uiso   1.00
O250   O     0.83333   0.46041   0.09613   0.00000  Uiso   1.00
C251   C     0.83323   0.50007   0.07363   0.00000  Uiso   1.00
C252   C     0.83343   0.49993   0.25970   0.00000  Uiso   1.00
Cu253  Cu    0.83333   0.54689   0.16667   0.00000  Uiso   1.00
Cu254  Cu    0.83333   0.45311   0.16667   0.00000  Uiso   1.00
C255   C     0.83330   0.50010   0.02187   0.00000  Uiso   1.00
C256   C     0.83337   0.49990   0.31146   0.00000  Uiso   1.00
C257   C     0.68864   0.45899   0.17870   0.00000  Uiso   1.00
C258   C     0.97805   0.54101   0.15473   0.00000  Uiso   1.00
C259   C     0.97997   0.45732   0.16906   0.00000  Uiso   1.00
C260   C     0.68670   0.54268   0.16441   0.00000  Uiso   1.00
C261   C     0.95725   0.49895   0.16094   0.00000  Uiso   1.00
C262   C     0.70942   0.50104   0.17248   0.00000  Uiso   1.00
C263   C     0.81375   0.35858   0.12953   0.00000  Uiso   1.00
C264   C     0.85291   0.64141   0.20381   0.00000  Uiso   1.00
C265   C     0.85223   0.35741   0.20437   0.00000  Uiso   1.00
C266   C     0.81442   0.64259   0.12899   0.00000  Uiso   1.00
N267   N     0.83333   0.61736   0.16667   0.00000  Uiso   1.00
N268   N     0.83333   0.38264   0.16667   0.00000  Uiso   1.00
C269   C     0.70935   0.41805   0.19945   0.00000  Uiso   1.00
N270   N     0.72588   0.38570   0.21642   0.00000  Uiso   1.00
C271   C     0.95735   0.58196   0.13399   0.00000  Uiso   1.00
N272   N     0.94084   0.61432   0.11703   0.00000  Uiso   1.00
C273   C     0.96179   0.41204   0.16318   0.00000  Uiso   1.00
N274   N     0.94769   0.37579   0.15796   0.00000  Uiso   1.00
C275   C     0.70488   0.58794   0.17044   0.00000  Uiso   1.00
N276   N     0.71898   0.62418   0.17578   0.00000  Uiso   1.00
N277   N     0.79048   0.38286   0.09178   0.00000  Uiso   1.00
O278   O     0.75218   0.39216   0.09826   0.00000  Uiso   1.00
O279   O     0.80401   0.38469   0.04747   0.00000  Uiso   1.00
N280   N     0.87625   0.61713   0.24149   0.00000  Uiso   1.00
O281   O     0.86269   0.61507   0.28578   0.00000  Uiso   1.00
O282   O     0.91462   0.60817   0.23506   0.00000  Uiso   1.00
N283   N     0.86970   0.38026   0.24651   0.00000  Uiso   1.00
O284   O     0.90603   0.39740   0.24545   0.00000  Uiso   1.00
O285   O     0.85186   0.37774   0.28834   0.00000  Uiso   1.00
N286   N     0.79687   0.61971   0.08690   0.00000  Uiso   1.00
O287   O     0.81488   0.62185   0.04516   0.00000  Uiso   1.00
O288   O     0.76012   0.60366   0.08772   0.00000  Uiso   1.00
O289   O     0.10655   0.87291   0.16666   0.00000  Uiso   1.00
O290   O     0.22679   0.79375   0.16667   0.00000  Uiso   1.00
O291   O     0.22679   0.87291   0.16667   0.00000  Uiso   1.00
O292   O     0.10655   0.79375   0.16666   0.00000  Uiso   1.00
C293   C     0.08759   0.83371   0.16969   0.00000  Uiso   1.00
C294   C     0.24575   0.83296   0.16367   0.00000  Uiso   1.00
O295   O     0.16667   0.87292   0.09613   0.00000  Uiso   1.00
O296   O     0.16667   0.79375   0.23720   0.00000  Uiso   1.00
O297   O     0.16667   0.87292   0.23720   0.00000  Uiso   1.00
O298   O     0.16667   0.79375   0.09613   0.00000  Uiso   1.00
C299   C     0.16657   0.83341   0.07363   0.00000  Uiso   1.00
C300   C     0.16677   0.83326   0.25970   0.00000  Uiso   1.00
Cu301  Cu    0.16667   0.88022   0.16667   0.00000  Uiso   1.00
Cu302  Cu    0.16667   0.78645   0.16667   0.00000  Uiso   1.00
C303   C     0.16663   0.83343   0.02187   0.00000  Uiso   1.00
C304   C     0.16670   0.83323   0.31146   0.00000  Uiso   1.00
C305   C     0.02197   0.79232   0.17870   0.00000  Uiso   1.00
C306   C     0.31138   0.87434   0.15473   0.00000  Uiso   1.00
C307   C     0.31331   0.79065   0.16906   0.00000  Uiso   1.00
C308   C     0.02004   0.87601   0.16441   0.00000  Uiso   1.00
C309   C     0.29059   0.83229   0.16094   0.00000  Uiso   1.00
C310   C     0.04276   0.83437   0.17248   0.00000  Uiso   1.00
C311   C     0.14708   0.69192   0.12953   0.00000  Uiso   1.00
C312   C     0.18625   0.97474   0.20381   0.00000  Uiso   1.00
C313   C     0.18556   0.69074   0.20437   0.00000  Uiso   1.00
C314   C     0.14776   0.97592   0.12899   0.00000  Uiso   1.00
N315   N     0.16667   0.95069   0.16667   0.00000  Uiso   1.00
N316   N     0.16667   0.71598   0.16667   0.00000  Uiso   1.00
C317   C     0.04268   0.75138   0.19945   0.00000  Uiso   1.00
N318   N     0.05921   0.71903   0.21642   0.00000  Uiso   1.00
C319   C     0.29069   0.91530   0.13399   0.00000  Uiso   1.00
N320   N     0.27418   0.94765   0.11703   0.00000  Uiso   1.00
C321   C     0.29512   0.74537   0.16318   0.00000  Uiso   1.00
N322   N     0.28102   0.70912   0.15796   0.00000  Uiso   1.00
C323   C     0.03821   0.92128   0.17044   0.00000  Uiso   1.00
N324   N     0.05231   0.95751   0.17578   0.00000  Uiso   1.00
N325   N     0.12382   0.71619   0.09178   0.00000  Uiso   1.00
O326   O     0.08552   0.72549   0.09826   0.00000  Uiso   1.00
O327   O     0.13734   0.71803   0.04747   0.00000  Uiso   1.00
N328   N     0.20958   0.95047   0.24149   0.00000  Uiso   1.00
O329   O     0.19602   0.94841   0.28578   0.00000  Uiso   1.00
O330   O     0.24795   0.94151   0.23506   0.00000  Uiso   1.00
N331   N     0.20304   0.71359   0.24651   0.00000  Uiso   1.00
O332   O     0.23936   0.73073   0.24545   0.00000  Uiso   1.00
O333   O     0.18519   0.71108   0.28834   0.00000  Uiso   1.00
N334   N     0.13021   0.95304   0.08690   0.00000  Uiso   1.00
O335   O     0.14821   0.95519   0.04516   0.00000  Uiso   1.00
O336   O     0.09345   0.93700   0.08772   0.00000  Uiso   1.00
O337   O     0.43988   0.87291   0.16666   0.00000  Uiso   1.00
O338   O     0.56012   0.79375   0.16667   0.00000  Uiso   1.00
O339   O     0.56012   0.87291   0.16667   0.00000  Uiso   1.00
O340   O     0.43988   0.79375   0.16666   0.00000  Uiso   1.00
C341   C     0.42092   0.83371   0.16969   0.00000  Uiso   1.00
C342   C     0.57908   0.83296   0.16367   0.00000  Uiso   1.00
O343   O     0.50000   0.87292   0.09613   0.00000  Uiso   1.00
O344   O     0.50000   0.79375   0.23720   0.00000  Uiso   1.00
O345   O     0.50000   0.87292   0.23720   0.00000  Uiso   1.00
O346   O     0.50000   0.79375   0.09613   0.00000  Uiso   1.00
C347   C     0.49990   0.83341   0.07363   0.00000  Uiso   1.00
C348   C     0.50010   0.83326   0.25970   0.00000  Uiso   1.00
Cu349  Cu    0.50000   0.88022   0.16667   0.00000  Uiso   1.00
Cu350  Cu    0.50000   0.78645   0.16667   0.00000  Uiso   1.00
C351   C     0.49997   0.83343   0.02187   0.00000  Uiso   1.00
C352   C     0.50003   0.83323   0.31146   0.00000  Uiso   1.00
C353   C     0.35530   0.79232   0.17870   0.00000  Uiso   1.00
C354   C     0.64471   0.87434   0.15473   0.00000  Uiso   1.00
C355   C     0.64664   0.79065   0.16906   0.00000  Uiso   1.00
C356   C     0.35337   0.87601   0.16441   0.00000  Uiso   1.00
C357   C     0.62392   0.83229   0.16094   0.00000  Uiso   1.00
C358   C     0.37609   0.83437   0.17248   0.00000  Uiso   1.00
C359   C     0.48042   0.69192   0.12953   0.00000  Uiso   1.00
C360   C     0.51958   0.97474   0.20381   0.00000  Uiso   1.00
C361   C     0.51889   0.69074   0.20437   0.00000  Uiso   1.00
C362   C     0.48109   0.97592   0.12899   0.00000  Uiso   1.00
N363   N     0.50000   0.95069   0.16667   0.00000  Uiso   1.00
N364   N     0.50000   0.71598   0.16667   0.00000  Uiso   1.00
C365   C     0.37602   0.75138   0.19945   0.00000  Uiso   1.00
N366   N     0.39254   0.71903   0.21642   0.00000  Uiso   1.00
C367   C     0.62402   0.91530   0.13399   0.00000  Uiso   1.00
N368   N     0.60751   0.94765   0.11703   0.00000  Uiso   1.00
C369   C     0.62846   0.74537   0.16318   0.00000  Uiso   1.00
N370   N     0.61436   0.70912   0.15796   0.00000  Uiso   1.00
C371   C     0.37155   0.92128   0.17044   0.00000  Uiso   1.00
N372   N     0.38564   0.95751   0.17578   0.00000  Uiso   1.00
N373   N     0.45715   0.71619   0.09178   0.00000  Uiso   1.00
O374   O     0.41885   0.72549   0.09826   0.00000  Uiso   1.00
O375   O     0.47067   0.71803   0.04747   0.00000  Uiso   1.00
N376   N     0.54291   0.95047   0.24149   0.00000  Uiso   1.00
O377   O     0.52935   0.94841   0.28578   0.00000  Uiso   1.00
O378   O     0.58129   0.94151   0.23506   0.00000  Uiso   1.00
N379   N     0.53637   0.71359   0.24651   0.00000  Uiso   1.00
O380   O     0.57269   0.73073   0.24545   0.00000  Uiso   1.00
O381   O     0.51853   0.71108   0.28834   0.00000  Uiso   1.00
N382   N     0.46354   0.95304   0.08690   0.00000  Uiso   1.00
O383   O     0.48155   0.95519   0.04516   0.00000  Uiso   1.00
O384   O     0.42679   0.93700   0.08772   0.00000  Uiso   1.00
O385   O     0.77321   0.87291   0.16666   0.00000  Uiso   1.00
O386   O     0.89345   0.79375   0.16667   0.00000  Uiso   1.00
O387   O     0.89345   0.87291   0.16667   0.00000  Uiso   1.00
O388   O     0.77321   0.79375   0.16666   0.00000  Uiso   1.00
C389   C     0.75425   0.83371   0.16969   0.00000  Uiso   1.00
C390   C     0.91242   0.83296   0.16367   0.00000  Uiso   1.00
O391   O     0.83333   0.87292   0.09613   0.00000  Uiso   1.00
O392   O     0.83333   0.79375   0.23720   0.00000  Uiso   1.00
O393   O     0.83333   0.87292   0.23720   0.00000  Uiso   1.00
O394   O     0.83333   0.79375   0.09613   0.00000  Uiso   1.00
C395   C     0.83323   0.83341   0.07363   0.00000  Uiso   1.00
C396   C     0.83343   0.83326   0.25970   0.00000  Uiso   1.00
Cu397  Cu    0.83333   0.88022   0.16667   0.00000  Uiso   1.00
Cu398  Cu    0.83333   0.78645   0.16667   0.00000  Uiso   1.00
C399   C     0.83330   0.83343   0.02187   0.00000  Uiso   1.00
C400   C     0.83337   0.83323   0.31146   0.00000  Uiso   1.00
C401   C     0.68864   0.79232   0.17870   0.00000  Uiso   1.00
C402   C     0.97805   0.87434   0.15473   0.00000  Uiso   1.00
C403   C     0.97997   0.79065   0.16906   0.00000  Uiso   1.00
C404   C     0.68670   0.87601   0.16441   0.00000  Uiso   1.00
C405   C     0.95725   0.83229   0.16094   0.00000  Uiso   1.00
C406   C     0.70942   0.83437   0.17248   0.00000  Uiso   1.00
C407   C     0.81375   0.69192   0.12953   0.00000  Uiso   1.00
C408   C     0.85291   0.97474   0.20381   0.00000  Uiso   1.00
C409   C     0.85223   0.69074   0.20437   0.00000  Uiso   1.00
C410   C     0.81442   0.97592   0.12899   0.00000  Uiso   1.00
N411   N     0.83333   0.95069   0.16667   0.00000  Uiso   1.00
N412   N     0.83333   0.71598   0.16667   0.00000  Uiso   1.00
C413   C     0.70935   0.75138   0.19945   0.00000  Uiso   1.00
N414   N     0.72588   0.71903   0.21642   0.00000  Uiso   1.00
C415   C     0.95735   0.91530   0.13399   0.00000  Uiso   1.00
N416   N     0.94084   0.94765   0.11703   0.00000  Uiso   1.00
C417   C     0.96179   0.74537   0.16318   0.00000  Uiso   1.00
N418   N     0.94769   0.70912   0.15796   0.00000  Uiso   1.00
C419   C     0.70488   0.92128   0.17044   0.00000  Uiso   1.00
N420   N     0.71898   0.95751   0.17578   0.00000  Uiso   1.00
N421   N     0.79048   0.71619   0.09178   0.00000  Uiso   1.00
O422   O     0.75218   0.72549   0.09826   0.00000  Uiso   1.00
O423   O     0.80401   0.71803   0.04747   0.00000  Uiso   1.00
N424   N     0.87625   0.95047   0.24149   0.00000  Uiso   1.00
O425   O     0.86269   0.94841   0.28578   0.00000  Uiso   1.00
O426   O     0.91462   0.94151   0.23506   0.00000  Uiso   1.00
N427   N     0.86970   0.71359   0.24651   0.00000  Uiso   1.00
O428   O     0.90603   0.73073   0.24545   0.00000  Uiso   1.00
O429   O     0.85186   0.71108   0.28834   0.00000  Uiso   1.00
N430   N     0.79687   0.95304   0.08690   0.00000  Uiso   1.00
O431   O     0.81488   0.95519   0.04516   0.00000  Uiso   1.00
O432   O     0.76012   0.93700   0.08772   0.00000  Uiso   1.00
O433   O     0.10655   0.20625   0.50000   0.00000  Uiso   1.00
O434   O     0.22679   0.12709   0.50000   0.00000  Uiso   1.00
O435   O     0.22679   0.20625   0.50000   0.00000  Uiso   1.00
O436   O     0.10655   0.12709   0.50000   0.00000  Uiso   1.00
C437   C     0.08759   0.16704   0.50302   0.00000  Uiso   1.00
C438   C     0.24575   0.16629   0.49700   0.00000  Uiso   1.00
O439   O     0.16667   0.20625   0.42946   0.00000  Uiso   1.00
O440   O     0.16667   0.12708   0.57054   0.00000  Uiso   1.00
O441   O     0.16667   0.20625   0.57054   0.00000  Uiso   1.00
O442   O     0.16667   0.12708   0.42946   0.00000  Uiso   1.00
C443   C     0.16657   0.16674   0.40697   0.00000  Uiso   1.00
C444   C     0.16677   0.16659   0.59303   0.00000  Uiso   1.00
Cu445  Cu    0.16667   0.21355   0.50000   0.00000  Uiso   1.00
Cu446  Cu    0.16667   0.11978   0.50000   0.00000  Uiso   1.00
C447   C     0.16663   0.16677   0.35521   0.00000  Uiso   1.00
C448   C     0.16670   0.16657   0.64479   0.00000  Uiso   1.00
C449   C     0.02197   0.12565   0.51204   0.00000  Uiso   1.00
C450   C     0.31138   0.20768   0.48807   0.00000  Uiso   1.00
C451   C     0.31331   0.12398   0.50240   0.00000  Uiso   1.00
C452   C     0.02004   0.20934   0.49774   0.00000  Uiso   1.00
C453   C     0.29059   0.16562   0.49427   0.00000  Uiso   1.00
C454   C     0.04276   0.16771   0.50581   0.00000  Uiso   1.00
C455   C     0.14708   0.02525   0.46286   0.00000  Uiso   1.00
C456   C     0.18625   0.30808   0.53714   0.00000  Uiso   1.00
C457   C     0.18556   0.02407   0.53770   0.00000  Uiso   1.00
C458   C     0.14776   0.30925   0.46232   0.00000  Uiso   1.00
N459   N     0.16667   0.28402   0.50000   0.00000  Uiso   1.00
N460   N     0.16667   0.04931   0.50000   0.00000  Uiso   1.00
C461   C     0.04268   0.08471   0.53278   0.00000  Uiso   1.00
N462   N     0.05921   0.05237   0.54975   0.00000  Uiso   1.00
C463   C     0.29069   0.24863   0.46733   0.00000  Uiso   1.00
N464   N     0.27418   0.28099   0.45036   0.00000  Uiso   1.00
C465   C     0.29512   0.07871   0.49651   0.00000  Uiso   1.00
N466   N     0.28102   0.04246   0.49130   0.00000  Uiso   1.00
C467   C     0.03821   0.25461   0.50377   0.00000  Uiso   1.00
N468   N     0.05231   0.29084   0.50911   0.00000  Uiso   1.00
N469   N     0.12382   0.04952   0.42511   0.00000  Uiso   1.00
O470   O     0.08552   0.05883   0.43159   0.00000  Uiso   1.00
O471   O     0.13734   0.05136   0.38080   0.00000  Uiso   1.00
N472   N     0.20958   0.28380   0.57483   0.00000  Uiso   1.00
O473   O     0.19602   0.28174   0.61911   0.00000  Uiso   1.00
O474   O     0.24795   0.27484   0.56840   0.00000  Uiso   1.00
N475   N     0.20304   0.04693   0.57985   0.00000  Uiso   1.00
O476   O     0.23936   0.06407   0.57878   0.00000  Uiso   1.00
O477   O     0.18519   0.04441   0.62167   0.00000  Uiso   1.00
N478   N     0.13021   0.28637   0.42024   0.00000  Uiso   1.00
O479   O     0.14821   0.28852   0.37850   0.00000  Uiso   1.00
O480   O     0.09345   0.27033   0.42105   0.00000  Uiso   1.00
O481   O     0.43988   0.20625   0.50000   0.00000  Uiso   1.00
O482   O     0.56012   0.12709   0.50000   0.00000  Uiso   1.00
O483   O     0.56012   0.20625   0.50000   0.00000  Uiso   1.00
O484   O     0.43988   0.12709   0.50000   0.00000  Uiso   1.00
C485   C     0.42092   0.16704   0.50302   0.00000  Uiso   1.00
C486   C     0.57908   0.16629   0.49700   0.00000  Uiso   1.00
O487   O     0.50000   0.20625   0.42946   0.00000  Uiso   1.00
O488   O     0.50000   0.12708   0.57054   0.00000  Uiso   1.00
O489   O     0.50000   0.20625   0.57054   0.00000  Uiso   1.00
O490   O     0.50000   0.12708   0.42946   0.00000  Uiso   1.00
C491   C     0.49990   0.16674   0.40697   0.00000  Uiso   1.00
C492   C     0.50010   0.16659   0.59303   0.00000  Uiso   1.00
Cu493  Cu    0.50000   0.21355   0.50000   0.00000  Uiso   1.00
Cu494  Cu    0.50000   0.11978   0.50000   0.00000  Uiso   1.00
C495   C     0.49997   0.16677   0.35521   0.00000  Uiso   1.00
C496   C     0.50003   0.16657   0.64479   0.00000  Uiso   1.00
C497   C     0.35530   0.12565   0.51204   0.00000  Uiso   1.00
C498   C     0.64471   0.20768   0.48807   0.00000  Uiso   1.00
C499   C     0.64664   0.12398   0.50240   0.00000  Uiso   1.00
C500   C     0.35337   0.20934   0.49774   0.00000  Uiso   1.00
C501   C     0.62392   0.16562   0.49427   0.00000  Uiso   1.00
C502   C     0.37609   0.16771   0.50581   0.00000  Uiso   1.00
C503   C     0.48042   0.02525   0.46286   0.00000  Uiso   1.00
C504   C     0.51958   0.30808   0.53714   0.00000  Uiso   1.00
C505   C     0.51889   0.02407   0.53770   0.00000  Uiso   1.00
C506   C     0.48109   0.30925   0.46232   0.00000  Uiso   1.00
N507   N     0.50000   0.28402   0.50000   0.00000  Uiso   1.00
N508   N     0.50000   0.04931   0.50000   0.00000  Uiso   1.00
C509   C     0.37602   0.08471   0.53278   0.00000  Uiso   1.00
N510   N     0.39254   0.05237   0.54975   0.00000  Uiso   1.00
C511   C     0.62402   0.24863   0.46733   0.00000  Uiso   1.00
N512   N     0.60751   0.28099   0.45036   0.00000  Uiso   1.00
C513   C     0.62846   0.07871   0.49651   0.00000  Uiso   1.00
N514   N     0.61436   0.04246   0.49130   0.00000  Uiso   1.00
C515   C     0.37155   0.25461   0.50377   0.00000  Uiso   1.00
N516   N     0.38564   0.29084   0.50911   0.00000  Uiso   1.00
N517   N     0.45715   0.04952   0.42511   0.00000  Uiso   1.00
O518   O     0.41885   0.05883   0.43159   0.00000  Uiso   1.00
O519   O     0.47067   0.05136   0.38080   0.00000  Uiso   1.00
N520   N     0.54291   0.28380   0.57483   0.00000  Uiso   1.00
O521   O     0.52935   0.28174   0.61911   0.00000  Uiso   1.00
O522   O     0.58129   0.27484   0.56840   0.00000  Uiso   1.00
N523   N     0.53637   0.04693   0.57985   0.00000  Uiso   1.00
O524   O     0.57269   0.06407   0.57878   0.00000  Uiso   1.00
O525   O     0.51853   0.04441   0.62167   0.00000  Uiso   1.00
N526   N     0.46354   0.28637   0.42024   0.00000  Uiso   1.00
O527   O     0.48155   0.28852   0.37850   0.00000  Uiso   1.00
O528   O     0.42679   0.27033   0.42105   0.00000  Uiso   1.00
O529   O     0.77321   0.20625   0.50000   0.00000  Uiso   1.00
O530   O     0.89345   0.12709   0.50000   0.00000  Uiso   1.00
O531   O     0.89345   0.20625   0.50000   0.00000  Uiso   1.00
O532   O     0.77321   0.12709   0.50000   0.00000  Uiso   1.00
C533   C     0.75425   0.16704   0.50302   0.00000  Uiso   1.00
C534   C     0.91242   0.16629   0.49700   0.00000  Uiso   1.00
O535   O     0.83333   0.20625   0.42946   0.00000  Uiso   1.00
O536   O     0.83333   0.12708   0.57054   0.00000  Uiso   1.00
O537   O     0.83333   0.20625   0.57054   0.00000  Uiso   1.00
O538   O     0.83333   0.12708   0.42946   0.00000  Uiso   1.00
C539   C     0.83323   0.16674   0.40697   0.00000  Uiso   1.00
C540   C     0.83343   0.16659   0.59303   0.00000  Uiso   1.00
Cu541  Cu    0.83333   0.21355   0.50000   0.00000  Uiso   1.00
Cu542  Cu    0.83333   0.11978   0.50000   0.00000  Uiso   1.00
C543   C     0.83330   0.16677   0.35521   0.00000  Uiso   1.00
C544   C     0.83337   0.16657   0.64479   0.00000  Uiso   1.00
C545   C     0.68864   0.12565   0.51204   0.00000  Uiso   1.00
C546   C     0.97805   0.20768   0.48807   0.00000  Uiso   1.00
C547   C     0.97997   0.12398   0.50240   0.00000  Uiso   1.00
C548   C     0.68670   0.20934   0.49774   0.00000  Uiso   1.00
C549   C     0.95725   0.16562   0.49427   0.00000  Uiso   1.00
C550   C     0.70942   0.16771   0.50581   0.00000  Uiso   1.00
C551   C     0.81375   0.02525   0.46286   0.00000  Uiso   1.00
C552   C     0.85291   0.30808   0.53714   0.00000  Uiso   1.00
C553   C     0.85223   0.02407   0.53770   0.00000  Uiso   1.00
C554   C     0.81442   0.30925   0.46232   0.00000  Uiso   1.00
N555   N     0.83333   0.28402   0.50000   0.00000  Uiso   1.00
N556   N     0.83333   0.04931   0.50000   0.00000  Uiso   1.00
C557   C     0.70935   0.08471   0.53278   0.00000  Uiso   1.00
N558   N     0.72588   0.05237   0.54975   0.00000  Uiso   1.00
C559   C     0.95735   0.24863   0.46733   0.00000  Uiso   1.00
N560   N     0.94084   0.28099   0.45036   0.00000  Uiso   1.00
C561   C     0.96179   0.07871   0.49651   0.00000  Uiso   1.00
N562   N     0.94769   0.04246   0.49130   0.00000  Uiso   1.00
C563   C     0.70488   0.25461   0.50377   0.00000  Uiso   1.00
N564   N     0.71898   0.29084   0.50911   0.00000  Uiso   1.00
N565   N     0.79048   0.04952   0.42511   0.00000  Uiso   1.00
O566   O     0.75218   0.05883   0.43159   0.00000  Uiso   1.00
O567   O     0.80401   0.05136   0.38080   0.00000  Uiso   1.00
N568   N     0.87625   0.28380   0.57483   0.00000  Uiso   1.00
O569   O     0.86269   0.28174   0.61911   0.00000  Uiso   1.00
O570   O     0.91462   0.27484   0.56840   0.00000  Uiso   1.00
N571   N     0.86970   0.04693   0.57985   0.00000  Uiso   1.00
O572   O     0.90603   0.06407   0.57878   0.00000  Uiso   1.00
O573   O     0.85186   0.04441   0.62167   0.00000  Uiso   1.00
N574   N     0.79687   0.28637   0.42024   0.00000  Uiso   1.00
O575   O     0.81488   0.28852   0.37850   0.00000  Uiso   1.00
O576   O     0.76012   0.27033   0.42105   0.00000  Uiso   1.00
O577   O     0.10655   0.53958   0.50000   0.00000  Uiso   1.00
O578   O     0.22679   0.46042   0.50000   0.00000  Uiso   1.00
O579   O     0.22679   0.53958   0.50000   0.00000  Uiso   1.00
O580   O     0.10655   0.46042   0.50000   0.00000  Uiso   1.00
C581   C     0.08759   0.50037   0.50302   0.00000  Uiso   1.00
C582   C     0.24575   0.49963   0.49700   0.00000  Uiso   1.00
O583   O     0.16667   0.53959   0.42946   0.00000  Uiso   1.00
O584   O     0.16667   0.46041   0.57054   0.00000  Uiso   1.00
O585   O     0.16667   0.53959   0.57054   0.00000  Uiso   1.00
O586   O     0.16667   0.46041   0.42946   0.00000  Uiso   1.00
C587   C     0.16657   0.50007   0.40697   0.00000  Uiso   1.00
C588   C     0.16677   0.49993   0.59303   0.00000  Uiso   1.00
Cu589  Cu    0.16667   0.54689   0.50000   0.00000  Uiso   1.00
Cu590  Cu    0.16667   0.45311   0.50000   0.00000  Uiso   1.00
C591   C     0.16663   0.50010   0.35521   0.00000  Uiso   1.00
C592   C     0.16670   0.49990   0.64479   0.00000  Uiso   1.00
C593   C     0.02197   0.45899   0.51204   0.00000  Uiso   1.00
C594   C     0.31138   0.54101   0.48807   0.00000  Uiso   1.00
C595   C     0.31331   0.45732   0.50240   0.00000  Uiso   1.00
C596   C     0.02004   0.54268   0.49774   0.00000  Uiso   1.00
C597   C     0.29059   0.49895   0.49427   0.00000  Uiso   1.00
C598   C     0.04276   0.50104   0.50581   0.00000  Uiso   1.00
C599   C     0.14708   0.35858   0.46286   0.00000  Uiso   1.00
C600   C     0.18625   0.64141   0.53714   0.00000  Uiso   1.00
C601   C     0.18556   0.35741   0.53770   0.00000  Uiso   1.00
C602   C     0.14776   0.64259   0.46232   0.00000  Uiso   1.00
N603   N     0.16667   0.61736   0.50000   0.00000  Uiso   1.00
N604   N     0.16667   0.38264   0.50000   0.00000  Uiso   1.00
C605   C     0.04268   0.41805   0.53278   0.00000  Uiso   1.00
N606   N     0.05921   0.38570   0.54975   0.00000  Uiso   1.00
C607   C     0.29069   0.58196   0.46733   0.00000  Uiso   1.00
N608   N     0.27418   0.61432   0.45036   0.00000  Uiso   1.00
C609   C     0.29512   0.41204   0.49651   0.00000  Uiso   1.00
N610   N     0.28102   0.37579   0.49130   0.00000  Uiso   1.00
C611   C     0.03821   0.58794   0.50377   0.00000  Uiso   1.00
N612   N     0.05231   0.62418   0.50911   0.00000  Uiso   1.00
N613   N     0.12382   0.38286   0.42511   0.00000  Uiso   1.00
O614   O     0.08552   0.39216   0.43159   0.00000  Uiso   1.00
O615   O     0.13734   0.38469   0.38080   0.00000  Uiso   1.00
N616   N     0.20958   0.61713   0.57483   0.00000  Uiso   1.00
O617   O     0.19602   0.61507   0.61911   0.00000  Uiso   1.00
O618   O     0.24795   0.60817   0.56840   0.00000  Uiso   1.00
N619   N     0.20304   0.38026   0.57985   0.00000  Uiso   1.00
O620   O     0.23936   0.39740   0.57878   0.00000  Uiso   1.00
O621   O     0.18519   0.37774   0.62167   0.00000  Uiso   1.00
N622   N     0.13021   0.61971   0.42024   0.00000  Uiso   1.00
O623   O     0.14821   0.62185   0.37850   0.00000  Uiso   1.00
O624   O     0.09345   0.60366   0.42105   0.00000  Uiso   1.00
O625   O     0.43988   0.53958   0.50000   0.00000  Uiso   1.00
O626   O     0.56012   0.46042   0.50000   0.00000  Uiso   1.00
O627   O     0.56012   0.53958   0.50000   0.00000  Uiso   1.00
O628   O     0.43988   0.46042   0.50000   0.00000  Uiso   1.00
C629   C     0.42092   0.50037   0.50302   0.00000  Uiso   1.00
C630   C     0.57908   0.49963   0.49700   0.00000  Uiso   1.00
O631   O     0.50000   0.53959   0.42946   0.00000  Uiso   1.00
O632   O     0.50000   0.46041   0.57054   0.00000  Uiso   1.00
O633   O     0.50000   0.53959   0.57054   0.00000  Uiso   1.00
O634   O     0.50000   0.46041   0.42946   0.00000  Uiso   1.00
C635   C     0.49990   0.50007   0.40697   0.00000  Uiso   1.00
C636   C     0.50010   0.49993   0.59303   0.00000  Uiso   1.00
Cu637  Cu    0.50000   0.54689   0.50000   0.00000  Uiso   1.00
Cu638  Cu    0.50000   0.45311   0.50000   0.00000  Uiso   1.00
C639   C     0.49997   0.50010   0.35521   0.00000  Uiso   1.00
C640   C     0.50003   0.49990   0.64479   0.00000  Uiso   1.00
C641   C     0.35530   0.45899   0.51204   0.00000  Uiso   1.00
C642   C     0.64471   0.54101   0.48807   0.00000  Uiso   1.00
C643   C     0.64664   0.45732   0.50240   0.00000  Uiso   1.00
C644   C     0.35337   0.54268   0.49774   0.00000  Uiso   1.00
C645   C     0.62392   0.49895   0.49427   0.00000  Uiso   1.00
C646   C     0.37609   0.50104   0.50581   0.00000  Uiso   1.00
C647   C     0.48042   0.35858   0.46286   0.00000  Uiso   1.00
C648   C     0.51958   0.64141   0.53714   0.00000  Uiso   1.00
C649   C     0.51889   0.35741   0.53770   0.00000  Uiso   1.00
C650   C     0.48109   0.64259   0.46232   0.00000  Uiso   1.00
N651   N     0.50000   0.61736   0.50000   0.00000  Uiso   1.00
N652   N     0.50000   0.38264   0.50000   0.00000  Uiso   1.00
C653   C     0.37602   0.41805   0.53278   0.00000  Uiso   1.00
N654   N     0.39254   0.38570   0.54975   0.00000  Uiso   1.00
C655   C     0.62402   0.58196   0.46733   0.00000  Uiso   1.00
N656   N     0.60751   0.61432   0.45036   0.00000  Uiso   1.00
C657   C     0.62846   0.41204   0.49651   0.00000  Uiso   1.00
N658   N     0.61436   0.37579   0.49130   0.00000  Uiso   1.00
C659   C     0.37155   0.58794   0.50377   0.00000  Uiso   1.00
N660   N     0.38564   0.62418   0.50911   0.00000  Uiso   1.00
N661   N     0.45715   0.38286   0.42511   0.00000  Uiso   1.00
O662   O     0.41885   0.39216   0.43159   0.00000  Uiso   1.00
O663   O     0.47067   0.38469   0.38080   0.00000  Uiso   1.00
N664   N     0.54291   0.61713   0.57483   0.00000  Uiso   1.00
O665   O     0.52935   0.61507   0.61911   0.00000  Uiso   1.00
O666   O     0.58129   0.60817   0.56840   0.00000  Uiso   1.00
N667   N     0.53637   0.38026   0.57985   0.00000  Uiso   1.00
O668   O     0.57269   0.39740   0.57878   0.00000  Uiso   1.00
O669   O     0.51853   0.37774   0.62167   0.00000  Uiso   1.00
N670   N     0.46354   0.61971   0.42024   0.00000  Uiso   1.00
O671   O     0.48155   0.62185   0.37850   0.00000  Uiso   1.00
O672   O     0.42679   0.60366   0.42105   0.00000  Uiso   1.00
O673   O     0.77321   0.53958   0.50000   0.00000  Uiso   1.00
O674   O     0.89345   0.46042   0.50000   0.00000  Uiso   1.00
O675   O     0.89345   0.53958   0.50000   0.00000  Uiso   1.00
O676   O     0.77321   0.46042   0.50000   0.00000  Uiso   1.00
C677   C     0.75425   0.50037   0.50302   0.00000  Uiso   1.00
C678   C     0.91242   0.49963   0.49700   0.00000  Uiso   1.00
O679   O     0.83333   0.53959   0.42946   0.00000  Uiso   1.00
O680   O     0.83333   0.46041   0.57054   0.00000  Uiso   1.00
O681   O     0.83333   0.53959   0.57054   0.00000  Uiso   1.00
O682   O     0.83333   0.46041   0.42946   0.00000  Uiso   1.00
C683   C     0.83323   0.50007   0.40697   0.00000  Uiso   1.00
C684   C     0.83343   0.49993   0.59303   0.00000  Uiso   1.00
Cu685  Cu    0.83333   0.54689   0.50000   0.00000  Uiso   1.00
Cu686  Cu    0.83333   0.45311   0.50000   0.00000  Uiso   1.00
C687   C     0.83330   0.50010   0.35521   0.00000  Uiso   1.00
C688   C     0.83337   0.49990   0.64479   0.00000  Uiso   1.00
C689   C     0.68864   0.45899   0.51204   0.00000  Uiso   1.00
C690   C     0.97805   0.54101   0.48807   0.00000  Uiso   1.00
C691   C     0.97997   0.45732   0.50240   0.00000  Uiso   1.00
C692   C     0.68670   0.54268   0.49774   0.00000  Uiso   1.00
C693   C     0.95725   0.49895   0.49427   0.00000  Uiso   1.00
C694   C     0.70942   0.50104   0.50581   0.00000  Uiso   1.00
C695   C     0.81375   0.35858   0.46286   0.00000  Uiso   1.00
C696   C     0.85291   0.64141   0.53714   0.00000  Uiso   1.00
C697   C     0.85223   0.35741   0.53770   0.00000  Uiso   1.00
C698   C     0.81442   0.64259   0.46232   0.00000  Uiso   1.00
N699   N     0.83333   0.61736   0.50000   0.00000  Uiso   1.00
N700   N     0.83333   0.38264   0.50000   0.00000  Uiso   1.00
C701   C     0.70935   0.41805   0.53278   0.00000  Uiso   1.00
N702   N     0.72588   0.38570   0.54975   0.00000  Uiso   1.00
C703   C     0.95735   0.58196   0.46733   0.00000  Uiso   1.00
N704   N     0.94084   0.61432   0.45036   0.00000  Uiso   1.00
C705   C     0.96179   0.41204   0.49651   0.00000  Uiso   1.00
N706   N     0.94769   0.37579   0.49130   0.00000  Uiso   1.00
C707   C     0.70488   0.58794   0.50377   0.00000  Uiso   1.00
N708   N     0.71898   0.62418   0.50911   0.00000  Uiso   1.00
N709   N     0.79048   0.38286   0.42511   0.00000  Uiso   1.00
O710   O     0.75218   0.39216   0.43159   0.00000  Uiso   1.00
O711   O     0.80401   0.38469   0.38080   0.00000  Uiso   1.00
N712   N     0.87625   0.61713   0.57483   0.00000  Uiso   1.00
O713   O     0.86269   0.61507   0.61911   0.00000  Uiso   1.00
O714   O     0.91462   0.60817   0.56840   0.00000  Uiso   1.00
N715   N     0.86970   0.38026   0.57985   0.00000  Uiso   1.00
O716   O     0.90603   0.39740   0.57878   0.00000  Uiso   1.00
O717   O     0.85186   0.37774   0.62167   0.00000  Uiso   1.00
N718   N     0.79687   0.61971   0.42024   0.00000  Uiso   1.00
O719   O     0.81488   0.62185   0.37850   0.00000  Uiso   1.00
O720   O     0.76012   0.60366   0.42105   0.00000  Uiso   1.00
O721   O     0.10655   0.87291   0.50000   0.00000  Uiso   1.00
O722   O     0.22679   0.79375   0.50000   0.00000  Uiso   1.00
O723   O     0.22679   0.87291   0.50000   0.00000  Uiso   1.00
O724   O     0.10655   0.79375   0.50000   0.00000  Uiso   1.00
C725   C     0.08759   0.83371   0.50302   0.00000  Uiso   1.00
C726   C     0.24575   0.83296   0.49700   0.00000  Uiso   1.00
O727   O     0.16667   0.87292   0.42946   0.00000  Uiso   1.00
O728   O     0.16667   0.79375   0.57054   0.00000  Uiso   1.00
O729   O     0.16667   0.87292   0.57054   0.00000  Uiso   1.00
O730   O     0.16667   0.79375   0.42946   0.00000  Uiso   1.00
C731   C     0.16657   0.83341   0.40697   0.00000  Uiso   1.00
C732   C     0.16677   0.83326   0.59303   0.00000  Uiso   1.00
Cu733  Cu    0.16667   0.88022   0.50000   0.00000  Uiso   1.00
Cu734  Cu    0.16667   0.78645   0.50000   0.00000  Uiso   1.00
C735   C     0.16663   0.83343   0.35521   0.00000  Uiso   1.00
C736   C     0.16670   0.83323   0.64479   0.00000  Uiso   1.00
C737   C     0.02197   0.79232   0.51204   0.00000  Uiso   1.00
C738   C     0.31138   0.87434   0.48807   0.00000  Uiso   1.00
C739   C     0.31331   0.79065   0.50240   0.00000  Uiso   1.00
C740   C     0.02004   0.87601   0.49774   0.00000  Uiso   1.00
C741   C     0.29059   0.83229   0.49427   0.00000  Uiso   1.00
C742   C     0.04276   0.83437   0.50581   0.00000  Uiso   1.00
C743   C     0.14708   0.69192   0.46286   0.00000  Uiso   1.00
C744   C     0.18625   0.97474   0.53714   0.00000  Uiso   1.00
C745   C     0.18556   0.69074   0.53770   0.00000  Uiso   1.00
C746   C     0.14776   0.97592   0.46232   0.00000  Uiso   1.00
N747   N     0.16667   0.95069   0.50000   0.00000  Uiso   1.00
N748   N     0.16667   0.71598   0.50000   0.00000  Uiso   1.00
C749   C     0.04268   0.75138   0.53278   0.00000  Uiso   1.00
N750   N     0.05921   0.71903   0.54975   0.00000  Uiso   1.00
C751   C     0.29069   0.91530   0.46733   0.00000  Uiso   1.00
N752   N     0.27418   0.94765   0.45036   0.00000  Uiso   1.00
C753   C     0.29512   0.74537   0.49651   0.00000  Uiso   1.00
N754   N     0.28102   0.70912   0.49130   0.00000  Uiso   1.00
C755   C     0.03821   0.92128   0.50377   0.00000  Uiso   1.00
N756   N     0.05231   0.95751   0.50911   0.00000  Uiso   1.00
N757   N     0.12382   0.71619   0.42511   0.00000  Uiso   1.00
O758   O     0.08552   0.72549   0.43159   0.00000  Uiso   1.00
O759   O     0.13734   0.71803   0.38080   0.00000  Uiso   1.00
N760   N     0.20958   0.95047   0.57483   0.00000  Uiso   1.00
O761   O     0.19602   0.94841   0.61911   0.00000  Uiso   1.00
O762   O     0.24795   0.94151   0.56840   0.00000  Uiso   1.00
N763   N     0.20304   0.71359   0.57985   0.00000  Uiso   1.00
O764   O     0.23936   0.73073   0.57878   0.00000  Uiso   1.00
O765   O     0.18519   0.71108   0.62167   0.00000  Uiso   1.00
N766   N     0.13021   0.95304   0.42024   0.00000  Uiso   1.00
O767   O     0.14821   0.95519   0.37850   0.00000  Uiso   1.00
O768   O     0.09345   0.93700   0.42105   0.00000  Uiso   1.00
O769   O     0.43988   0.87291   0.50000   0.00000  Uiso   1.00
O770   O     0.56012   0.79375   0.50000   0.00000  Uiso   1.00
O771   O     0.56012   0.87291   0.50000   0.00000  Uiso   1.00
O772   O     0.43988   0.79375   0.50000   0.00000  Uiso   1.00
C773   C     0.42092   0.83371   0.50302   0.00000  Uiso   1.00
C774   C     0.57908   0.83296   0.49700   0.00000  Uiso   1.00
O775   O     0.50000   0.87292   0.42946   0.00000  Uiso   1.00
O776   O     0.50000   0.79375   0.57054   0.00000  Uiso   1.00
O777   O     0.50000   0.87292   0.57054   0.00000  Uiso   1.00
O778   O     0.50000   0.79375   0.42946   0.00000  Uiso   1.00
C779   C     0.49990   0.83341   0.40697   0.00000  Uiso   1.00
C780   C     0.50010   0.83326   0.59303   0.00000  Uiso   1.00
Cu781  Cu    0.50000   0.88022   0.50000   0.00000  Uiso   1.00
Cu782  Cu    0.50000   0.78645   0.50000   0.00000  Uiso   1.00
C783   C     0.49997   0.83343   0.35521   0.00000  Uiso   1.00
C784   C     0.50003   0.83323   0.64479   0.00000  Uiso   1.00
C785   C     0.35530   0.79232   0.51204   0.00000  Uiso   1.00
C786   C     0.64471   0.87434   0.48807   0.00000  Uiso   1.00
C787   C     0.64664   0.79065   0.50240   0.00000  Uiso   1.00
C788   C     0.35337   0.87601   0.49774   0.00000  Uiso   1.00
C789   C     0.62392   0.83229   0.49427   0.00000  Uiso   1.00
C790   C     0.37609   0.83437   0.50581   0.00000  Uiso   1.00
C791   C     0.48042   0.69192   0.46286   0.00000  Uiso   1.00
C792   C     0.51958   0.97474   0.53714   0.00000  Uiso   1.00
C793   C     0.51889   0.69074   0.53770   0.00000  Uiso   1.00
C794   C     0.48109   0.97592   0.46232   0.00000  Uiso   1.00
N795   N     0.50000   0.95069   0.50000   0.00000  Uiso   1.00
N796   N     0.50000   0.71598   0.50000   0.00000  Uiso   1.00
C797   C     0.37602   0.75138   0.53278   0.00000  Uiso   1.00
N798   N     0.39254   0.71903   0.54975   0.00000  Uiso   1.00
C799   C     0.62402   0.91530   0.46733   0.00000  Uiso   1.00
N800   N     0.60751   0.94765   0.45036   0.00000  Uiso   1.00
C801   C     0.62846   0.74537   0.49651   0.00000  Uiso   1.00
N802   N     0.61436   0.70912   0.49130   0.00000  Uiso   1.00
C803   C     0.37155   0.92128   0.50377   0.00000  Uiso   1.00
N804   N     0.38564   0.95751   0.50911   0.00000  Uiso   1.00
N805   N     0.45715   0.71619   0.42511   0.00000  Uiso   1.00
O806   O     0.41885   0.72549   0.43159   0.00000  Uiso   1.00
O807   O     0.47067   0.71803   0.38080   0.00000  Uiso   1.00
N808   N     0.54291   0.95047   0.57483   0.00000  Uiso   1.00
O809   O     0.52935   0.94841   0.61911   0.00000  Uiso   1.00
O810   O     0.58129   0.94151   0.56840   0.00000  Uiso   1.00
N811   N     0.53637   0.71359   0.57985   0.00000  Uiso   1.00
O812   O     0.57269   0.73073   0.57878   0.00000  Uiso   1.00
O813   O     0.51853   0.71108   0.62167   0.00000  Uiso   1.00
N814   N     0.46354   0.95304   0.42024   0.00000  Uiso   1.00
O815   O     0.48155   0.95519   0.37850   0.00000  Uiso   1.00
O816   O     0.42679   0.93700   0.42105   0.00000  Uiso   1.00
O817   O     0.77321   0.87291   0.50000   0.00000  Uiso   1.00
O818   O     0.89345   0.79375   0.50000   0.00000  Uiso   1.00
O819   O     0.89345   0.87291   0.50000   0.00000  Uiso   1.00
O820   O     0.77321   0.79375   0.50000   0.00000  Uiso   1.00
C821   C     0.75425   0.83371   0.50302   0.00000  Uiso   1.00
C822   C     0.91242   0.83296   0.49700   0.00000  Uiso   1.00
O823   O     0.83333   0.87292   0.42946   0.00000  Uiso   1.00
O824   O     0.83333   0.79375   0.57054   0.00000  Uiso   1.00
O825   O     0.83333   0.87292   0.57054   0.00000  Uiso   1.00
O826   O     0.83333   0.79375   0.42946   0.00000  Uiso   1.00
C827   C     0.83323   0.83341   0.40697   0.00000  Uiso   1.00
C828   C     0.83343   0.83326   0.59303   0.00000  Uiso   1.00
Cu829  Cu    0.83333   0.88022   0.50000   0.00000  Uiso   1.00
Cu830  Cu    0.83333   0.78645   0.50000   0.00000  Uiso   1.00
C831   C     0.83330   0.83343   0.35521   0.00000  Uiso   1.00
C832   C     0.83337   0.83323   0.64479   0.00000  Uiso   1.00
C833   C     0.68864   0.79232   0.51204   0.00000  Uiso   1.00
C834   C     0.97805   0.87434   0.48807   0.00000  Uiso   1.00
C835   C     0.97997   0.79065   0.50240   0.00000  Uiso   1.00
C836   C     0.68670   0.87601   0.49774   0.00000  Uiso   1.00
C837   C     0.95725   0.83229   0.49427   0.00000  Uiso   1.00
C838   C     0.70942   0.83437   0.50581   0.00000  Uiso   1.00
C839   C     0.81375   0.69192   0.46286   0.00000  Uiso   1.00
C840   C     0.85291   0.97474   0.53714   0.00000  Uiso   1.00
C841   C     0.85223   0.69074   0.53770   0.00000  Uiso   1.00
C842   C     0.81442   0.97592   0.46232   0.00000  Uiso   1.00
N843   N     0.83333   0.95069   0.50000   0.00000  Uiso   1.00
N844   N     0.83333   0.71598   0.50000   0.00000  Uiso   1.00
C845   C     0.70935   0.75138   0.53278   0.00000  Uiso   1.00
N846   N     0.72588   0.71903   0.54975   0.00000  Uiso   1.00
C847   C     0.95735   0.91530   0.46733   0.00000  Uiso   1.00
N848   N     0.94084   0.94765   0.45036   0.00000  Uiso   1.00
C849   C     0.96179   0.74537   0.49651   0.00000  Uiso   1.00
N850   N     0.94769   0.70912   0.49130   0.00000  Uiso   1.00
C851   C     0.70488   0.92128   0.50377   0.00000  Uiso   1.00
N852   N     0.71898   0.95751   0.50911   0.00000  Uiso   1.00
N853   N     0.79048   0.71619   0.42511   0.00000  Uiso   1.00
O854   O     0.75218   0.72549   0.43159   0.00000  Uiso   1.00
O855   O     0.80401   0.71803   0.38080   0.00000  Uiso   1.00
N856   N     0.87625   0.95047   0.57483   0.00000  Uiso   1.00
O857   O     0.86269   0.94841   0.61911   0.00000  Uiso   1.00
O858   O     0.91462   0.94151   0.56840   0.00000  Uiso   1.00
N859   N     0.86970   0.71359   0.57985   0.00000  Uiso   1.00
O860   O     0.90603   0.73073   0.57878   0.00000  Uiso   1.00
O861   O     0.85186   0.71108   0.62167   0.00000  Uiso   1.00
N862   N     0.79687   0.95304   0.42024   0.00000  Uiso   1.00
O863   O     0.81488   0.95519   0.37850   0.00000  Uiso   1.00
O864   O     0.76012   0.93700   0.42105   0.00000  Uiso   1.00
O865   O     0.10655   0.20625   0.83333   0.00000  Uiso   1.00
O866   O     0.22679   0.12709   0.83334   0.00000  Uiso   1.00
O867   O     0.22679   0.20625   0.83334   0.00000  Uiso   1.00
O868   O     0.10655   0.12709   0.83333   0.00000  Uiso   1.00
C869   C     0.08759   0.16704   0.83636   0.00000  Uiso   1.00
C870   C     0.24575   0.16629   0.83034   0.00000  Uiso   1.00
O871   O     0.16667   0.20625   0.76280   0.00000  Uiso   1.00
O872   O     0.16667   0.12708   0.90387   0.00000  Uiso   1.00
O873   O     0.16667   0.20625   0.90387   0.00000  Uiso   1.00
O874   O     0.16667   0.12708   0.76280   0.00000  Uiso   1.00
C875   C     0.16657   0.16674   0.74030   0.00000  Uiso   1.00
C876   C     0.16677   0.16659   0.92637   0.00000  Uiso   1.00
Cu877  Cu    0.16667   0.21355   0.83333   0.00000  Uiso   1.00
Cu878  Cu    0.16667   0.11978   0.83333   0.00000  Uiso   1.00
C879   C     0.16663   0.16677   0.68854   0.00000  Uiso   1.00
C880   C     0.16670   0.16657   0.97813   0.00000  Uiso   1.00
C881   C     0.02197   0.12565   0.84537   0.00000  Uiso   1.00
C882   C     0.31138   0.20768   0.82140   0.00000  Uiso   1.00
C883   C     0.31331   0.12398   0.83573   0.00000  Uiso   1.00
C884   C     0.02004   0.20934   0.83107   0.00000  Uiso   1.00
C885   C     0.29059   0.16562   0.82761   0.00000  Uiso   1.00
C886   C     0.04276   0.16771   0.83915   0.00000  Uiso   1.00
C887   C     0.14708   0.02525   0.79619   0.00000  Uiso   1.00
C888   C     0.18625   0.30808   0.87048   0.00000  Uiso   1.00
C889   C     0.18556   0.02407   0.87103   0.00000  Uiso   1.00
C890   C     0.14776   0.30925   0.79565   0.00000  Uiso   1.00
N891   N     0.16667   0.28402   0.83333   0.00000  Uiso   1.00
N892   N     0.16667   0.04931   0.83333   0.00000  Uiso   1.00
C893   C     0.04268   0.08471   0.86612   0.00000  Uiso   1.00
N894   N     0.05921   0.05237   0.88308   0.00000  Uiso   1.00
C895   C     0.29069   0.24863   0.80066   0.00000  Uiso   1.00
N896   N     0.27418   0.28099   0.78369   0.00000  Uiso   1.00
C897   C     0.29512   0.07871   0.82984   0.00000  Uiso   1.00
N898   N     0.28102   0.04246   0.82463   0.00000  Uiso   1.00
C899   C     0.03821   0.25461   0.83710   0.00000  Uiso   1.00
N900   N     0.05231   0.29084   0.84245   0.00000  Uiso   1.00
N901   N     0.12382   0.04952   0.75845   0.00000  Uiso   1.00
O902   O     0.08552   0.05883   0.76492   0.00000  Uiso   1.00
O903   O     0.13734   0.05136   0.71414   0.00000  Uiso   1.00
N904   N     0.20958   0.28380   0.90816   0.00000  Uiso   1.00
O905   O     0.19602   0.28174   0.95244   0.00000  Uiso   1.00
O906   O     0.24795   0.27484   0.90173   0.00000  Uiso   1.00
N907   N     0.20304   0.04693   0.91318   0.00000  Uiso   1.00
O908   O     0.23936   0.06407   0.91211   0.00000  Uiso   1.00
O909   O     0.18519   0.04441   0.95500   0.00000  Uiso   1.00
N910   N     0.13021   0.28637   0.75357   0.00000  Uiso   1.00
O911   O     0.14821   0.28852   0.71183   0.00000  Uiso   1.00
O912   O     0.09345   0.27033   0.75438   0.00000  Uiso   1.00
O913   O     0.43988   0.20625   0.83333   0.00000  Uiso   1.00
O914   O     0.56012   0.12709   0.83334   0.00000  Uiso   1.00
O915   O     0.56012   0.20625   0.83334   0.00000  Uiso   1.00
O916   O     0.43988   0.12709   0.83333   0.00000  Uiso   1.00
C917   C     0.42092   0.16704   0.83636   0.00000  Uiso   1.00
C918   C     0.57908   0.16629   0.83034   0.00000  Uiso   1.00
O919   O     0.50000   0.20625   0.76280   0.00000  Uiso   1.00
O920   O     0.50000   0.12708   0.90387   0.00000  Uiso   1.00
O921   O     0.50000   0.20625   0.90387   0.00000  Uiso   1.00
O922   O     0.50000   0.12708   0.76280   0.00000  Uiso   1.00
C923   C     0.49990   0.16674   0.74030   0.00000  Uiso   1.00
C924   C     0.50010   0.16659   0.92637   0.00000  Uiso   1.00
Cu925  Cu    0.50000   0.21355   0.83333   0.00000  Uiso   1.00
Cu926  Cu    0.50000   0.11978   0.83333   0.00000  Uiso   1.00
C927   C     0.49997   0.16677   0.68854   0.00000  Uiso   1.00
C928   C     0.50003   0.16657   0.97813   0.00000  Uiso   1.00
C929   C     0.35530   0.12565   0.84537   0.00000  Uiso   1.00
C930   C     0.64471   0.20768   0.82140   0.00000  Uiso   1.00
C931   C     0.64664   0.12398   0.83573   0.00000  Uiso   1.00
C932   C     0.35337   0.20934   0.83107   0.00000  Uiso   1.00
C933   C     0.62392   0.16562   0.82761   0.00000  Uiso   1.00
C934   C     0.37609   0.16771   0.83915   0.00000  Uiso   1.00
C935   C     0.48042   0.02525   0.79619   0.00000  Uiso   1.00
C936   C     0.51958   0.30808   0.87048   0.00000  Uiso   1.00
C937   C     0.51889   0.02407   0.87103   0.00000  Uiso   1.00
C938   C     0.48109   0.30925   0.79565   0.00000  Uiso   1.00
N939   N     0.50000   0.28402   0.83333   0.00000  Uiso   1.00
N940   N     0.50000   0.04931   0.83333   0.00000  Uiso   1.00
C941   C     0.37602   0.08471   0.86612   0.00000  Uiso   1.00
N942   N     0.39254   0.05237   0.88308   0.00000  Uiso   1.00
C943   C     0.62402   0.24863   0.80066   0.00000  Uiso   1.00
N944   N     0.60751   0.28099   0.78369   0.00000  Uiso   1.00
C945   C     0.62846   0.07871   0.82984   0.00000  Uiso   1.00
N946   N     0.61436   0.04246   0.82463   0.00000  Uiso   1.00
C947   C     0.37155   0.25461   0.83710   0.00000  Uiso   1.00
N948   N     0.38564   0.29084   0.84245   0.00000  Uiso   1.00
N949   N     0.45715   0.04952   0.75845   0.00000  Uiso   1.00
O950   O     0.41885   0.05883   0.76492   0.00000  Uiso   1.00
O951   O     0.47067   0.05136   0.71414   0.00000  Uiso   1.00
N952   N     0.54291   0.28380   0.90816   0.00000  Uiso   1.00
O953   O     0.52935   0.28174   0.95244   0.00000  Uiso   1.00
O954   O     0.58129   0.27484   0.90173   0.00000  Uiso   1.00
N955   N     0.53637   0.04693   0.91318   0.00000  Uiso   1.00
O956   O     0.57269   0.06407   0.91211   0.00000  Uiso   1.00
O957   O     0.51853   0.04441   0.95500   0.00000  Uiso   1.00
N958   N     0.46354   0.28637   0.75357   0.00000  Uiso   1.00
O959   O     0.48155   0.28852   0.71183   0.00000  Uiso   1.00
O960   O     0.42679   0.27033   0.75438   0.00000  Uiso   1.00
O961   O     0.77321   0.20625   0.83333   0.00000  Uiso   1.00
O962   O     0.89345   0.12709   0.83334   0.00000  Uiso   1.00
O963   O     0.89345   0.20625   0.83334   0.00000  Uiso   1.00
O964   O     0.77321   0.12709   0.83333   0.00000  Uiso   1.00
C965   C     0.75425   0.16704   0.83636   0.00000  Uiso   1.00
C966   C     0.91242   0.16629   0.83034   0.00000  Uiso   1.00
O967   O     0.83333   0.20625   0.76280   0.00000  Uiso   1.00
O968   O     0.83333   0.12708   0.90387   0.00000  Uiso   1.00
O969   O     0.83333   0.20625   0.90387   0.00000  Uiso   1.00
O970   O     0.83333   0.12708   0.76280   0.00000  Uiso   1.00
C971   C     0.83323   0.16674   0.74030   0.00000  Uiso   1.00
C972   C     0.83343   0.16659   0.92637   0.00000  Uiso   1.00
Cu973  Cu    0.83333   0.21355   0.83333   0.00000  Uiso   1.00
Cu974  Cu    0.83333   0.11978   0.83333   0.00000  Uiso   1.00
C975   C     0.83330   0.16677   0.68854   0.00000  Uiso   1.00
C976   C     0.83337   0.16657   0.97813   0.00000  Uiso   1.00
C977   C     0.68864   0.12565   0.84537   0.00000  Uiso   1.00
C978   C     0.97805   0.20768   0.82140   0.00000  Uiso   1.00
C979   C     0.97997   0.12398   0.83573   0.00000  Uiso   1.00
C980   C     0.68670   0.20934   0.83107   0.00000  Uiso   1.00
C981   C     0.95725   0.16562   0.82761   0.00000  Uiso   1.00
C982   C     0.70942   0.16771   0.83915   0.00000  Uiso   1.00
C983   C     0.81375   0.02525   0.79619   0.00000  Uiso   1.00
C984   C     0.85291   0.30808   0.87048   0.00000  Uiso   1.00
C985   C     0.85223   0.02407   0.87103   0.00000  Uiso   1.00
C986   C     0.81442   0.30925   0.79565   0.00000  Uiso   1.00
N987   N     0.83333   0.28402   0.83333   0.00000  Uiso   1.00
N988   N     0.83333   0.04931   0.83333   0.00000  Uiso   1.00
C989   C     0.70935   0.08471   0.86612   0.00000  Uiso   1.00
N990   N     0.72588   0.05237   0.88308   0.00000  Uiso   1.00
C991   C     0.95735   0.24863   0.80066   0.00000  Uiso   1.00
N992   N     0.94084   0.28099   0.78369   0.00000  Uiso   1.00
C993   C     0.96179   0.07871   0.82984   0.00000  Uiso   1.00
N994   N     0.94769   0.04246   0.82463   0.00000  Uiso   1.00
C995   C     0.70488   0.25461   0.83710   0.00000  Uiso   1.00
N996   N     0.71898   0.29084   0.84245   0.00000  Uiso   1.00
N997   N     0.79048   0.04952   0.75845   0.00000  Uiso   1.00
O998   O     0.75218   0.05883   0.76492   0.00000  Uiso   1.00
O999   O     0.80401   0.05136   0.71414   0.00000  Uiso   1.00
N1000  N     0.87625   0.28380   0.90816   0.00000  Uiso   1.00
O1001  O     0.86269   0.28174   0.95244   0.00000  Uiso   1.00
O1002  O     0.91462   0.27484   0.90173   0.00000  Uiso   1.00
N1003  N     0.86970   0.04693   0.91318   0.00000  Uiso   1.00
O1004  O     0.90603   0.06407   0.91211   0.00000  Uiso   1.00
O1005  O     0.85186   0.04441   0.95500   0.00000  Uiso   1.00
N1006  N     0.79687   0.28637   0.75357   0.00000  Uiso   1.00
O1007  O     0.81488   0.28852   0.71183   0.00000  Uiso   1.00
O1008  O     0.76012   0.27033   0.75438   0.00000  Uiso   1.00
O1009  O     0.10655   0.53958   0.83333   0.00000  Uiso   1.00
O1010  O     0.22679   0.46042   0.83334   0.00000  Uiso   1.00
O1011  O     0.22679   0.53958   0.83334   0.00000  Uiso   1.00
O1012  O     0.10655   0.46042   0.83333   0.00000  Uiso   1.00
C1013  C     0.08759   0.50037   0.83636   0.00000  Uiso   1.00
C1014  C     0.24575   0.49963   0.83034   0.00000  Uiso   1.00
O1015  O     0.16667   0.53959   0.76280   0.00000  Uiso   1.00
O1016  O     0.16667   0.46041   0.90387   0.00000  Uiso   1.00
O1017  O     0.16667   0.53959   0.90387   0.00000  Uiso   1.00
O1018  O     0.16667   0.46041   0.76280   0.00000  Uiso   1.00
C1019  C     0.16657   0.50007   0.74030   0.00000  Uiso   1.00
C1020  C     0.16677   0.49993   0.92637   0.00000  Uiso   1.00
Cu1021 Cu    0.16667   0.54689   0.83333   0.00000  Uiso   1.00
Cu1022 Cu    0.16667   0.45311   0.83333   0.00000  Uiso   1.00
C1023  C     0.16663   0.50010   0.68854   0.00000  Uiso   1.00
C1024  C     0.16670   0.49990   0.97813   0.00000  Uiso   1.00
C1025  C     0.02197   0.45899   0.84537   0.00000  Uiso   1.00
C1026  C     0.31138   0.54101   0.82140   0.00000  Uiso   1.00
C1027  C     0.31331   0.45732   0.83573   0.00000  Uiso   1.00
C1028  C     0.02004   0.54268   0.83107   0.00000  Uiso   1.00
C1029  C     0.29059   0.49895   0.82761   0.00000  Uiso   1.00
C1030  C     0.04276   0.50104   0.83915   0.00000  Uiso   1.00
C1031  C     0.14708   0.35858   0.79619   0.00000  Uiso   1.00
C1032  C     0.18625   0.64141   0.87048   0.00000  Uiso   1.00
C1033  C     0.18556   0.35741   0.87103   0.00000  Uiso   1.00
C1034  C     0.14776   0.64259   0.79565   0.00000  Uiso   1.00
N1035  N     0.16667   0.61736   0.83333   0.00000  Uiso   1.00
N1036  N     0.16667   0.38264   0.83333   0.00000  Uiso   1.00
C1037  C     0.04268   0.41805   0.86612   0.00000  Uiso   1.00
N1038  N     0.05921   0.38570   0.88308   0.00000  Uiso   1.00
C1039  C     0.29069   0.58196   0.80066   0.00000  Uiso   1.00
N1040  N     0.27418   0.61432   0.78369   0.00000  Uiso   1.00
C1041  C     0.29512   0.41204   0.82984   0.00000  Uiso   1.00
N1042  N     0.28102   0.37579   0.82463   0.00000  Uiso   1.00
C1043  C     0.03821   0.58794   0.83710   0.00000  Uiso   1.00
N1044  N     0.05231   0.62418   0.84245   0.00000  Uiso   1.00
N1045  N     0.12382   0.38286   0.75845   0.00000  Uiso   1.00
O1046  O     0.08552   0.39216   0.76492   0.00000  Uiso   1.00
O1047  O     0.13734   0.38469   0.71414   0.00000  Uiso   1.00
N1048  N     0.20958   0.61713   0.90816   0.00000  Uiso   1.00
O1049  O     0.19602   0.61507   0.95244   0.00000  Uiso   1.00
O1050  O     0.24795   0.60817   0.90173   0.00000  Uiso   1.00
N1051  N     0.20304   0.38026   0.91318   0.00000  Uiso   1.00
O1052  O     0.23936   0.39740   0.91211   0.00000  Uiso   1.00
O1053  O     0.18519   0.37774   0.95500   0.00000  Uiso   1.00
N1054  N     0.13021   0.61971   0.75357   0.00000  Uiso   1.00
O1055  O     0.14821   0.62185   0.71183   0.00000  Uiso   1.00
O1056  O     0.09345   0.60366   0.75438   0.00000  Uiso   1.00
O1057  O     0.43988   0.53958   0.83333   0.00000  Uiso   1.00
O1058  O     0.56012   0.46042   0.83334   0.00000  Uiso   1.00
O1059  O     0.56012   0.53958   0.83334   0.00000  Uiso   1.00
O1060  O     0.43988   0.46042   0.83333   0.00000  Uiso   1.00
C1061  C     0.42092   0.50037   0.83636   0.00000  Uiso   1.00
C1062  C     0.57908   0.49963   0.83034   0.00000  Uiso   1.00
O1063  O     0.50000   0.53959   0.76280   0.00000  Uiso   1.00
O1064  O     0.50000   0.46041   0.90387   0.00000  Uiso   1.00
O1065  O     0.50000   0.53959   0.90387   0.00000  Uiso   1.00
O1066  O     0.50000   0.46041   0.76280   0.00000  Uiso   1.00
C1067  C     0.49990   0.50007   0.74030   0.00000  Uiso   1.00
C1068  C     0.50010   0.49993   0.92637   0.00000  Uiso   1.00
Cu1069 Cu    0.50000   0.54689   0.83333   0.00000  Uiso   1.00
Cu1070 Cu    0.50000   0.45311   0.83333   0.00000  Uiso   1.00
C1071  C     0.49997   0.50010   0.68854   0.00000  Uiso   1.00
C1072  C     0.50003   0.49990   0.97813   0.00000  Uiso   1.00
C1073  C     0.35530   0.45899   0.84537   0.00000  Uiso   1.00
C1074  C     0.64471   0.54101   0.82140   0.00000  Uiso   1.00
C1075  C     0.64664   0.45732   0.83573   0.00000  Uiso   1.00
C1076  C     0.35337   0.54268   0.83107   0.00000  Uiso   1.00
C1077  C     0.62392   0.49895   0.82761   0.00000  Uiso   1.00
C1078  C     0.37609   0.50104   0.83915   0.00000  Uiso   1.00
C1079  C     0.48042   0.35858   0.79619   0.00000  Uiso   1.00
C1080  C     0.51958   0.64141   0.87048   0.00000  Uiso   1.00
C1081  C     0.51889   0.35741   0.87103   0.00000  Uiso   1.00
C1082  C     0.48109   0.64259   0.79565   0.00000  Uiso   1.00
N1083  N     0.50000   0.61736   0.83333   0.00000  Uiso   1.00
N1084  N     0.50000   0.38264   0.83333   0.00000  Uiso   1.00
C1085  C     0.37602   0.41805   0.86612   0.00000  Uiso   1.00
N1086  N     0.39254   0.38570   0.88308   0.00000  Uiso   1.00
C1087  C     0.62402   0.58196   0.80066   0.00000  Uiso   1.00
N1088  N     0.60751   0.61432   0.78369   0.00000  Uiso   1.00
C1089  C     0.62846   0.41204   0.82984   0.00000  Uiso   1.00
N1090  N     0.61436   0.37579   0.82463   0.00000  Uiso   1.00
C1091  C     0.37155   0.58794   0.83710   0.00000  Uiso   1.00
N1092  N     0.38564   0.62418   0.84245   0.00000  Uiso   1.00
N1093  N     0.45715   0.38286   0.75845   0.00000  Uiso   1.00
O1094  O     0.41885   0.39216   0.76492   0.00000  Uiso   1.00
O1095  O     0.47067   0.38469   0.71414   0.00000  Uiso   1.00
N1096  N     0.54291   0.61713   0.90816   0.00000  Uiso   1.00
O1097  O     0.52935   0.61507   0.95244   0.00000  Uiso   1.00
O1098  O     0.58129   0.60817   0.90173   0.00000  Uiso   1.00
N1099  N     0.53637   0.38026   0.91318   0.00000  Uiso   1.00
O1100  O     0.57269   0.39740   0.91211   0.00000  Uiso   1.00
O1101  O     0.51853   0.37774   0.95500   0.00000  Uiso   1.00
N1102  N     0.46354   0.61971   0.75357   0.00000  Uiso   1.00
O1103  O     0.48155   0.62185   0.71183   0.00000  Uiso   1.00
O1104  O     0.42679   0.60366   0.75438   0.00000  Uiso   1.00
O1105  O     0.77321   0.53958   0.83333   0.00000  Uiso   1.00
O1106  O     0.89345   0.46042   0.83334   0.00000  Uiso   1.00
O1107  O     0.89345   0.53958   0.83334   0.00000  Uiso   1.00
O1108  O     0.77321   0.46042   0.83333   0.00000  Uiso   1.00
C1109  C     0.75425   0.50037   0.83636   0.00000  Uiso   1.00
C1110  C     0.91242   0.49963   0.83034   0.00000  Uiso   1.00
O1111  O     0.83333   0.53959   0.76280   0.00000  Uiso   1.00
O1112  O     0.83333   0.46041   0.90387   0.00000  Uiso   1.00
O1113  O     0.83333   0.53959   0.90387   0.00000  Uiso   1.00
O1114  O     0.83333   0.46041   0.76280   0.00000  Uiso   1.00
C1115  C     0.83323   0.50007   0.74030   0.00000  Uiso   1.00
C1116  C     0.83343   0.49993   0.92637   0.00000  Uiso   1.00
Cu1117 Cu    0.83333   0.54689   0.83333   0.00000  Uiso   1.00
Cu1118 Cu    0.83333   0.45311   0.83333   0.00000  Uiso   1.00
C1119  C     0.83330   0.50010   0.68854   0.00000  Uiso   1.00
C1120  C     0.83337   0.49990   0.97813   0.00000  Uiso   1.00
C1121  C     0.68864   0.45899   0.84537   0.00000  Uiso   1.00
C1122  C     0.97805   0.54101   0.82140   0.00000  Uiso   1.00
C1123  C     0.97997   0.45732   0.83573   0.00000  Uiso   1.00
C1124  C     0.68670   0.54268   0.83107   0.00000  Uiso   1.00
C1125  C     0.95725   0.49895   0.82761   0.00000  Uiso   1.00
C1126  C     0.70942   0.50104   0.83915   0.00000  Uiso   1.00
C1127  C     0.81375   0.35858   0.79619   0.00000  Uiso   1.00
C1128  C     0.85291   0.64141   0.87048   0.00000  Uiso   1.00
C1129  C     0.85223   0.35741   0.87103   0.00000  Uiso   1.00
C1130  C     0.81442   0.64259   0.79565   0.00000  Uiso   1.00
N1131  N     0.83333   0.61736   0.83333   0.00000  Uiso   1.00
N1132  N     0.83333   0.38264   0.83333   0.00000  Uiso   1.00
C1133  C     0.70935   0.41805   0.86612   0.00000  Uiso   1.00
N1134  N     0.72588   0.38570   0.88308   0.00000  Uiso   1.00
C1135  C     0.95735   0.58196   0.80066   0.00000  Uiso   1.00
N1136  N     0.94084   0.61432   0.78369   0.00000  Uiso   1.00
C1137  C     0.96179   0.41204   0.82984   0.00000  Uiso   1.00
N1138  N     0.94769   0.37579   0.82463   0.00000  Uiso   1.00
C1139  C     0.70488   0.58794   0.83710   0.00000  Uiso   1.00
N1140  N     0.71898   0.62418   0.84245   0.00000  Uiso   1.00
N1141  N     0.79048   0.38286   0.75845   0.00000  Uiso   1.00
O1142  O     0.75218   0.39216   0.76492   0.00000  Uiso   1.00
O1143  O     0.80401   0.38469   0.71414   0.00000  Uiso   1.00
N1144  N     0.87625   0.61713   0.90816   0.00000  Uiso   1.00
O1145  O     0.86269   0.61507   0.95244   0.00000  Uiso   1.00
O1146  O     0.91462   0.60817   0.90173   0.00000  Uiso   1.00
N1147  N     0.86970   0.38026   0.91318   0.00000  Uiso   1.00
O1148  O     0.90603   0.39740   0.91211   0.00000  Uiso   1.00
O1149  O     0.85186   0.37774   0.95500   0.00000  Uiso   1.00
N1150  N     0.79687   0.61971   0.75357   0.00000  Uiso   1.00
O1151  O     0.81488   0.62185   0.71183   0.00000  Uiso   1.00
O1152  O     0.76012   0.60366   0.75438   0.00000  Uiso   1.00
O1153  O     0.10655   0.87291   0.83333   0.00000  Uiso   1.00
O1154  O     0.22679   0.79375   0.83334   0.00000  Uiso   1.00
O1155  O     0.22679   0.87291   0.83334   0.00000  Uiso   1.00
O1156  O     0.10655   0.79375   0.83333   0.00000  Uiso   1.00
C1157  C     0.08759   0.83371   0.83636   0.00000  Uiso   1.00
C1158  C     0.24575   0.83296   0.83034   0.00000  Uiso   1.00
O1159  O     0.16667   0.87292   0.76280   0.00000  Uiso   1.00
O1160  O     0.16667   0.79375   0.90387   0.00000  Uiso   1.00
O1161  O     0.16667   0.87292   0.90387   0.00000  Uiso   1.00
O1162  O     0.16667   0.79375   0.76280   0.00000  Uiso   1.00
C1163  C     0.16657   0.83341   0.74030   0.00000  Uiso   1.00
C1164  C     0.16677   0.83326   0.92637   0.00000  Uiso   1.00
Cu1165 Cu    0.16667   0.88022   0.83333   0.00000  Uiso   1.00
Cu1166 Cu    0.16667   0.78645   0.83333   0.00000  Uiso   1.00
C1167  C     0.16663   0.83343   0.68854   0.00000  Uiso   1.00
C1168  C     0.16670   0.83323   0.97813   0.00000  Uiso   1.00
C1169  C     0.02197   0.79232   0.84537   0.00000  Uiso   1.00
C1170  C     0.31138   0.87434   0.82140   0.00000  Uiso   1.00
C1171  C     0.31331   0.79065   0.83573   0.00000  Uiso   1.00
C1172  C     0.02004   0.87601   0.83107   0.00000  Uiso   1.00
C1173  C     0.29059   0.83229   0.82761   0.00000  Uiso   1.00
C1174  C     0.04276   0.83437   0.83915   0.00000  Uiso   1.00
C1175  C     0.14708   0.69192   0.79619   0.00000  Uiso   1.00
C1176  C     0.18625   0.97474   0.87048   0.00000  Uiso   1.00
C1177  C     0.18556   0.69074   0.87103   0.00000  Uiso   1.00
C1178  C     0.14776   0.97592   0.79565   0.00000  Uiso   1.00
N1179  N     0.16667   0.95069   0.83333   0.00000  Uiso   1.00
N1180  N     0.16667   0.71598   0.83333   0.00000  Uiso   1.00
C1181  C     0.04268   0.75138   0.86612   0.00000  Uiso   1.00
N1182  N     0.05921   0.71903   0.88308   0.00000  Uiso   1.00
C1183  C     0.29069   0.91530   0.80066   0.00000  Uiso   1.00
N1184  N     0.27418   0.94765   0.78369   0.00000  Uiso   1.00
C1185  C     0.29512   0.74537   0.82984   0.00000  Uiso   1.00
N1186  N     0.28102   0.70912   0.82463   0.00000  Uiso   1.00
C1187  C     0.03821   0.92128   0.83710   0.00000  Uiso   1.00
N1188  N     0.05231   0.95751   0.84245   0.00000  Uiso   1.00
N1189  N     0.12382   0.71619   0.75845   0.00000  Uiso   1.00
O1190  O     0.08552   0.72549   0.76492   0.00000  Uiso   1.00
O1191  O     0.13734   0.71803   0.71414   0.00000  Uiso   1.00
N1192  N     0.20958   0.95047   0.90816   0.00000  Uiso   1.00
O1193  O     0.19602   0.94841   0.95244   0.00000  Uiso   1.00
O1194  O     0.24795   0.94151   0.90173   0.00000  Uiso   1.00
N1195  N     0.20304   0.71359   0.91318   0.00000  Uiso   1.00
O1196  O     0.23936   0.73073   0.91211   0.00000  Uiso   1.00
O1197  O     0.18519   0.71108   0.95500   0.00000  Uiso   1.00
N1198  N     0.13021   0.95304   0.75357   0.00000  Uiso   1.00
O1199  O     0.14821   0.95519   0.71183   0.00000  Uiso   1.00
O1200  O     0.09345   0.93700   0.75438   0.00000  Uiso   1.00
O1201  O     0.43988   0.87291   0.83333   0.00000  Uiso   1.00
O1202  O     0.56012   0.79375   0.83334   0.00000  Uiso   1.00
O1203  O     0.56012   0.87291   0.83334   0.00000  Uiso   1.00
O1204  O     0.43988   0.79375   0.83333   0.00000  Uiso   1.00
C1205  C     0.42092   0.83371   0.83636   0.00000  Uiso   1.00
C1206  C     0.57908   0.83296   0.83034   0.00000  Uiso   1.00
O1207  O     0.50000   0.87292   0.76280   0.00000  Uiso   1.00
O1208  O     0.50000   0.79375   0.90387   0.00000  Uiso   1.00
O1209  O     0.50000   0.87292   0.90387   0.00000  Uiso   1.00
O1210  O     0.50000   0.79375   0.76280   0.00000  Uiso   1.00
C1211  C     0.49990   0.83341   0.74030   0.00000  Uiso   1.00
C1212  C     0.50010   0.83326   0.92637   0.00000  Uiso   1.00
Cu1213 Cu    0.50000   0.88022   0.83333   0.00000  Uiso   1.00
Cu1214 Cu    0.50000   0.78645   0.83333   0.00000  Uiso   1.00
C1215  C     0.49997   0.83343   0.68854   0.00000  Uiso   1.00
C1216  C     0.50003   0.83323   0.97813   0.00000  Uiso   1.00
C1217  C     0.35530   0.79232   0.84537   0.00000  Uiso   1.00
C1218  C     0.64471   0.87434   0.82140   0.00000  Uiso   1.00
C1219  C     0.64664   0.79065   0.83573   0.00000  Uiso   1.00
C1220  C     0.35337   0.87601   0.83107   0.00000  Uiso   1.00
C1221  C     0.62392   0.83229   0.82761   0.00000  Uiso   1.00
C1222  C     0.37609   0.83437   0.83915   0.00000  Uiso   1.00
C1223  C     0.48042   0.69192   0.79619   0.00000  Uiso   1.00
C1224  C     0.51958   0.97474   0.87048   0.00000  Uiso   1.00
C1225  C     0.51889   0.69074   0.87103   0.00000  Uiso   1.00
C1226  C     0.48109   0.97592   0.79565   0.00000  Uiso   1.00
N1227  N     0.50000   0.95069   0.83333   0.00000  Uiso   1.00
N1228  N     0.50000   0.71598   0.83333   0.00000  Uiso   1.00
C1229  C     0.37602   0.75138   0.86612   0.00000  Uiso   1.00
N1230  N     0.39254   0.71903   0.88308   0.00000  Uiso   1.00
C1231  C     0.62402   0.91530   0.80066   0.00000  Uiso   1.00
N1232  N     0.60751   0.94765   0.78369   0.00000  Uiso   1.00
C1233  C     0.62846   0.74537   0.82984   0.00000  Uiso   1.00
N1234  N     0.61436   0.70912   0.82463   0.00000  Uiso   1.00
C1235  C     0.37155   0.92128   0.83710   0.00000  Uiso   1.00
N1236  N     0.38564   0.95751   0.84245   0.00000  Uiso   1.00
N1237  N     0.45715   0.71619   0.75845   0.00000  Uiso   1.00
O1238  O     0.41885   0.72549   0.76492   0.00000  Uiso   1.00
O1239  O     0.47067   0.71803   0.71414   0.00000  Uiso   1.00
N1240  N     0.54291   0.95047   0.90816   0.00000  Uiso   1.00
O1241  O     0.52935   0.94841   0.95244   0.00000  Uiso   1.00
O1242  O     0.58129   0.94151   0.90173   0.00000  Uiso   1.00
N1243  N     0.53637   0.71359   0.91318   0.00000  Uiso   1.00
O1244  O     0.57269   0.73073   0.91211   0.00000  Uiso   1.00
O1245  O     0.51853   0.71108   0.95500   0.00000  Uiso   1.00
N1246  N     0.46354   0.95304   0.75357   0.00000  Uiso   1.00
O1247  O     0.48155   0.95519   0.71183   0.00000  Uiso   1.00
O1248  O     0.42679   0.93700   0.75438   0.00000  Uiso   1.00
O1249  O     0.77321   0.87291   0.83333   0.00000  Uiso   1.00
O1250  O     0.89345   0.79375   0.83334   0.00000  Uiso   1.00
O1251  O     0.89345   0.87291   0.83334   0.00000  Uiso   1.00
O1252  O     0.77321   0.79375   0.83333   0.00000  Uiso   1.00
C1253  C     0.75425   0.83371   0.83636   0.00000  Uiso   1.00
C1254  C     0.91242   0.83296   0.83034   0.00000  Uiso   1.00
O1255  O     0.83333   0.87292   0.76280   0.00000  Uiso   1.00
O1256  O     0.83333   0.79375   0.90387   0.00000  Uiso   1.00
O1257  O     0.83333   0.87292   0.90387   0.00000  Uiso   1.00
O1258  O     0.83333   0.79375   0.76280   0.00000  Uiso   1.00
C1259  C     0.83323   0.83341   0.74030   0.00000  Uiso   1.00
C1260  C     0.83343   0.83326   0.92637   0.00000  Uiso   1.00
Cu1261 Cu    0.83333   0.88022   0.83333   0.00000  Uiso   1.00
Cu1262 Cu    0.83333   0.78645   0.83333   0.00000  Uiso   1.00
C1263  C     0.83330   0.83343   0.68854   0.00000  Uiso   1.00
C1264  C     0.83337   0.83323   0.97813   0.00000  Uiso   1.00
C1265  C     0.68864   0.79232   0.84537   0.00000  Uiso   1.00
C1266  C     0.97805   0.87434   0.82140   0.00000  Uiso   1.00
C1267  C     0.97997   0.79065   0.83573   0.00000  Uiso   1.00
C1268  C     0.68670   0.87601   0.83107   0.00000  Uiso   1.00
C1269  C     0.95725   0.83229   0.82761   0.00000  Uiso   1.00
C1270  C     0.70942   0.83437   0.83915   0.00000  Uiso   1.00
C1271  C     0.81375   0.69192   0.79619   0.00000  Uiso   1.00
C1272  C     0.85291   0.97474   0.87048   0.00000  Uiso   1.00
C1273  C     0.85223   0.69074   0.87103   0.00000  Uiso   1.00
C1274  C     0.81442   0.97592   0.79565   0.00000  Uiso   1.00
N1275  N     0.83333   0.95069   0.83333   0.00000  Uiso   1.00
N1276  N     0.83333   0.71598   0.83333   0.00000  Uiso   1.00
C1277  C     0.70935   0.75138   0.86612   0.00000  Uiso   1.00
N1278  N     0.72588   0.71903   0.88308   0.00000  Uiso   1.00
C1279  C     0.95735   0.91530   0.80066   0.00000  Uiso   1.00
N1280  N     0.94084   0.94765   0.78369   0.00000  Uiso   1.00
C1281  C     0.96179   0.74537   0.82984   0.00000  Uiso   1.00
N1282  N     0.94769   0.70912   0.82463   0.00000  Uiso   1.00
C1283  C     0.70488   0.92128   0.83710   0.00000  Uiso   1.00
N1284  N     0.71898   0.95751   0.84245   0.00000  Uiso   1.00
N1285  N     0.79048   0.71619   0.75845   0.00000  Uiso   1.00
O1286  O     0.75218   0.72549   0.76492   0.00000  Uiso   1.00
O1287  O     0.80401   0.71803   0.71414   0.00000  Uiso   1.00
N1288  N     0.87625   0.95047   0.90816   0.00000  Uiso   1.00
O1289  O     0.86269   0.94841   0.95244   0.00000  Uiso   1.00
O1290  O     0.91462   0.94151   0.90173   0.00000  Uiso   1.00
N1291  N     0.86970   0.71359   0.91318   0.00000  Uiso   1.00
O1292  O     0.90603   0.73073   0.91211   0.00000  Uiso   1.00
O1293  O     0.85186   0.71108   0.95500   0.00000  Uiso   1.00
N1294  N     0.79687   0.95304   0.75357   0.00000  Uiso   1.00
O1295  O     0.81488   0.95519   0.71183   0.00000  Uiso   1.00
O1296  O     0.76012   0.93700   0.75438   0.00000  Uiso   1.00
loop_
_geom_bond_atom_site_label_1
_geom_bond_atom_site_label_2
_geom_bond_distance
_geom_bond_site_symmetry_2
_ccdc_geom_bond_type
O1     C5      1.302   .     A
O1     Cu13    1.987   .     S
O2     C6      1.302   .     A
O2     Cu14    1.987   .     S
O3     Cu13    1.981   .     S
O3     C6      1.306   .     A
O4     Cu14    1.981   .     S
O4     C5      1.306   .     A
C5     C22     1.476   .     S
C6     C21     1.476   .     S
O7     C11     1.296   .     A
O7     Cu13    1.930   .     S
O8     C12     1.296   .     A
O8     Cu14    1.930   .     S
O9     C12     1.294   .     A
O9     Cu13    1.928   .     S
O10    C11     1.294   .     A
O10    Cu14    1.928   .     S
C11    C15     1.407   .     S
C12    C16     1.407   .     S
Cu13   N27     2.033   .     S
Cu13   Cu14    2.705   .     S
Cu14   N28     2.033   .     S
C15    C880    1.189   1_554 S
C16    C447    1.189   .     S
C17    C29     1.454   .     S
C17    C22     1.413   .     A
C17    C115    1.394   1_455 S
C18    C21     1.413   .     A
C18    C31     1.454   .     S
C18    C68     1.394   .     S
C19    C33     1.451   .     S
C19    C21     1.416   .     A
C19    C65     1.394   .     S
C20    C22     1.416   .     A
C20    C35     1.451   .     S
C20    C114    1.394   1_455 S
C23    N37     1.429   .     S
C23    N28     1.373   .     A
C23    C314    1.423   1_545 S
C24    N27     1.373   .     A
C24    N40     1.430   .     S
C24    C169    1.423   .     S
C25    N43     1.430   .     S
C25    N28     1.377   .     A
C25    C312    1.423   1_545 S
C26    N27     1.376   .     A
C26    N46     1.430   .     S
C26    C167    1.423   .     S
C29    N30     1.157   .     T
C31    N32     1.157   .     T
C33    N34     1.157   .     T
C35    N36     1.157   .     T
N37    O38     1.300   .     A
N37    O39     1.301   .     A
N40    O42     1.300   .     A
N40    O41     1.301   .     A
N43    O44     1.298   .     A
N43    O45     1.301   .     A
N46    O48     1.299   .     A
N46    O47     1.301   .     A
O49    C53     1.302   .     A
O49    Cu61    1.987   .     S
O50    C54     1.302   .     A
O50    Cu62    1.987   .     S
O51    Cu61    1.981   .     S
O51    C54     1.306   .     A
O52    Cu62    1.981   .     S
O52    C53     1.306   .     A
C53    C70     1.476   .     S
C54    C69     1.476   .     S
O55    C59     1.296   .     A
O55    Cu61    1.930   .     S
O56    C60     1.296   .     A
O56    Cu62    1.930   .     S
O57    C60     1.294   .     A
O57    Cu61    1.928   .     S
O58    C59     1.294   .     A
O58    Cu62    1.928   .     S
C59    C63     1.407   .     S
C60    C64     1.407   .     S
Cu61   N75     2.033   .     S
Cu61   Cu62    2.705   .     S
Cu62   N76     2.033   .     S
C63    C928    1.189   1_554 S
C64    C495    1.189   .     S
C65    C77     1.454   .     S
C65    C70     1.413   .     A
C66    C69     1.413   .     A
C66    C79     1.454   .     S
C66    C116    1.394   .     S
C67    C81     1.451   .     S
C67    C69     1.416   .     A
C67    C113    1.394   .     S
C68    C70     1.416   .     A
C68    C83     1.451   .     S
C71    N85     1.429   .     S
C71    N76     1.373   .     A
C71    C362    1.423   1_545 S
C72    N75     1.373   .     A
C72    N88     1.430   .     S
C72    C217    1.423   .     S
C73    N91     1.430   .     S
C73    N76     1.377   .     A
C73    C360    1.423   1_545 S
C74    N75     1.376   .     A
C74    N94     1.430   .     S
C74    C215    1.423   .     S
C77    N78     1.157   .     T
C79    N80     1.157   .     T
C81    N82     1.157   .     T
C83    N84     1.157   .     T
N85    O86     1.300   .     A
N85    O87     1.301   .     A
N88    O90     1.300   .     A
N88    O89     1.301   .     A
N91    O92     1.298   .     A
N91    O93     1.301   .     A
N94    O96     1.299   .     A
N94    O95     1.301   .     A
O97    C101    1.302   .     A
O97    Cu109   1.987   .     S
O98    C102    1.302   .     A
O98    Cu110   1.987   .     S
O99    Cu109   1.981   .     S
O99    C102    1.306   .     A
O100   Cu110   1.981   .     S
O100   C101    1.306   .     A
C101   C118    1.476   .     S
C102   C117    1.476   .     S
O103   C107    1.296   .     A
O103   Cu109   1.930   .     S
O104   C108    1.296   .     A
O104   Cu110   1.930   .     S
O105   C108    1.294   .     A
O105   Cu109   1.928   .     S
O106   C107    1.294   .     A
O106   Cu110   1.928   .     S
C107   C111    1.407   .     S
C108   C112    1.407   .     S
Cu109  N123    2.033   .     S
Cu109  Cu110   2.705   .     S
Cu110  N124    2.033   .     S
C111   C976    1.189   1_554 S
C112   C543    1.189   .     S
C113   C125    1.454   .     S
C113   C118    1.413   .     A
C114   C117    1.413   .     A
C114   C127    1.454   .     S
C114   C20     1.394   1_655 S
C115   C129    1.451   .     S
C115   C117    1.416   .     A
C115   C17     1.394   1_655 S
C116   C118    1.416   .     A
C116   C131    1.451   .     S
C119   N133    1.429   .     S
C119   N124    1.373   .     A
C119   C410    1.423   1_545 S
C120   N123    1.373   .     A
C120   N136    1.430   .     S
C120   C265    1.423   .     S
C121   N139    1.430   .     S
C121   N124    1.377   .     A
C121   C408    1.423   1_545 S
C122   N123    1.376   .     A
C122   N142    1.430   .     S
C122   C263    1.423   .     S
C125   N126    1.157   .     T
C127   N128    1.157   .     T
C129   N130    1.157   .     T
C131   N132    1.157   .     T
N133   O134    1.300   .     A
N133   O135    1.301   .     A
N136   O138    1.300   .     A
N136   O137    1.301   .     A
N139   O140    1.298   .     A
N139   O141    1.301   .     A
N142   O144    1.299   .     A
N142   O143    1.301   .     A
O145   C149    1.302   .     A
O145   Cu157   1.987   .     S
O146   C150    1.302   .     A
O146   Cu158   1.987   .     S
O147   Cu157   1.981   .     S
O147   C150    1.306   .     A
O148   Cu158   1.981   .     S
O148   C149    1.306   .     A
C149   C166    1.476   .     S
C150   C165    1.476   .     S
O151   C155    1.296   .     A
O151   Cu157   1.930   .     S
O152   C156    1.296   .     A
O152   Cu158   1.930   .     S
O153   C156    1.294   .     A
O153   Cu157   1.928   .     S
O154   C155    1.294   .     A
O154   Cu158   1.928   .     S
C155   C159    1.407   .     S
C156   C160    1.407   .     S
Cu157  N171    2.033   .     S
Cu157  Cu158   2.705   .     S
Cu158  N172    2.033   .     S
C159   C1024   1.189   1_554 S
C160   C591    1.189   .     S
C161   C173    1.454   .     S
C161   C166    1.413   .     A
C161   C259    1.394   1_455 S
C162   C165    1.413   .     A
C162   C175    1.454   .     S
C162   C212    1.394   .     S
C163   C177    1.451   .     S
C163   C165    1.416   .     A
C163   C209    1.394   .     S
C164   C166    1.416   .     A
C164   C179    1.451   .     S
C164   C258    1.394   1_455 S
C167   N181    1.429   .     S
C167   N172    1.373   .     A
C168   N171    1.373   .     A
C168   N184    1.430   .     S
C168   C313    1.423   .     S
C169   N187    1.430   .     S
C169   N172    1.377   .     A
C170   N171    1.376   .     A
C170   N190    1.430   .     S
C170   C311    1.423   .     S
C173   N174    1.157   .     T
C175   N176    1.157   .     T
C177   N178    1.157   .     T
C179   N180    1.157   .     T
N181   O182    1.300   .     A
N181   O183    1.301   .     A
N184   O186    1.300   .     A
N184   O185    1.301   .     A
N187   O188    1.298   .     A
N187   O189    1.301   .     A
N190   O192    1.299   .     A
N190   O191    1.301   .     A
O193   C197    1.302   .     A
O193   Cu205   1.987   .     S
O194   C198    1.302   .     A
O194   Cu206   1.987   .     S
O195   Cu205   1.981   .     S
O195   C198    1.306   .     A
O196   Cu206   1.981   .     S
O196   C197    1.306   .     A
C197   C214    1.476   .     S
C198   C213    1.476   .     S
O199   C203    1.296   .     A
O199   Cu205   1.930   .     S
O200   C204    1.296   .     A
O200   Cu206   1.930   .     S
O201   C204    1.294   .     A
O201   Cu205   1.928   .     S
O202   C203    1.294   .     A
O202   Cu206   1.928   .     S
C203   C207    1.407   .     S
C204   C208    1.407   .     S
Cu205  N219    2.033   .     S
Cu205  Cu206   2.705   .     S
Cu206  N220    2.033   .     S
C207   C1072   1.189   1_554 S
C208   C639    1.189   .     S
C209   C221    1.454   .     S
C209   C214    1.413   .     A
C210   C213    1.413   .     A
C210   C223    1.454   .     S
C210   C260    1.394   .     S
C211   C225    1.451   .     S
C211   C213    1.416   .     A
C211   C257    1.394   .     S
C212   C214    1.416   .     A
C212   C227    1.451   .     S
C215   N229    1.429   .     S
C215   N220    1.373   .     A
C216   N219    1.373   .     A
C216   N232    1.430   .     S
C216   C361    1.423   .     S
C217   N235    1.430   .     S
C217   N220    1.377   .     A
C218   N219    1.376   .     A
C218   N238    1.430   .     S
C218   C359    1.423   .     S
C221   N222    1.157   .     T
C223   N224    1.157   .     T
C225   N226    1.157   .     T
C227   N228    1.157   .     T
N229   O230    1.300   .     A
N229   O231    1.301   .     A
N232   O234    1.300   .     A
N232   O233    1.301   .     A
N235   O236    1.298   .     A
N235   O237    1.301   .     A
N238   O240    1.299   .     A
N238   O239    1.301   .     A
O241   C245    1.302   .     A
O241   Cu253   1.987   .     S
O242   C246    1.302   .     A
O242   Cu254   1.987   .     S
O243   Cu253   1.981   .     S
O243   C246    1.306   .     A
O244   Cu254   1.981   .     S
O244   C245    1.306   .     A
C245   C262    1.476   .     S
C246   C261    1.476   .     S
O247   C251    1.296   .     A
O247   Cu253   1.930   .     S
O248   C252    1.296   .     A
O248   Cu254   1.930   .     S
O249   C252    1.294   .     A
O249   Cu253   1.928   .     S
O250   C251    1.294   .     A
O250   Cu254   1.928   .     S
C251   C255    1.407   .     S
C252   C256    1.407   .     S
Cu253  N267    2.033   .     S
Cu253  Cu254   2.705   .     S
Cu254  N268    2.033   .     S
C255   C1120   1.189   1_554 S
C256   C687    1.189   .     S
C257   C269    1.454   .     S
C257   C262    1.413   .     A
C258   C261    1.413   .     A
C258   C271    1.454   .     S
C258   C164    1.394   1_655 S
C259   C273    1.451   .     S
C259   C261    1.416   .     A
C259   C161    1.394   1_655 S
C260   C262    1.416   .     A
C260   C275    1.451   .     S
C263   N277    1.429   .     S
C263   N268    1.373   .     A
C264   N267    1.373   .     A
C264   N280    1.430   .     S
C264   C409    1.423   .     S
C265   N283    1.430   .     S
C265   N268    1.377   .     A
C266   N267    1.376   .     A
C266   N286    1.430   .     S
C266   C407    1.423   .     S
C269   N270    1.157   .     T
C271   N272    1.157   .     T
C273   N274    1.157   .     T
C275   N276    1.157   .     T
N277   O278    1.300   .     A
N277   O279    1.301   .     A
N280   O282    1.300   .     A
N280   O281    1.301   .     A
N283   O284    1.298   .     A
N283   O285    1.301   .     A
N286   O288    1.299   .     A
N286   O287    1.301   .     A
O289   C293    1.302   .     A
O289   Cu301   1.987   .     S
O290   C294    1.302   .     A
O290   Cu302   1.987   .     S
O291   Cu301   1.981   .     S
O291   C294    1.306   .     A
O292   Cu302   1.981   .     S
O292   C293    1.306   .     A
C293   C310    1.476   .     S
C294   C309    1.476   .     S
O295   C299    1.296   .     A
O295   Cu301   1.930   .     S
O296   C300    1.296   .     A
O296   Cu302   1.930   .     S
O297   C300    1.294   .     A
O297   Cu301   1.928   .     S
O298   C299    1.294   .     A
O298   Cu302   1.928   .     S
C299   C303    1.407   .     S
C300   C304    1.407   .     S
Cu301  N315    2.033   .     S
Cu301  Cu302   2.705   .     S
Cu302  N316    2.033   .     S
C303   C1168   1.189   1_554 S
C304   C735    1.189   .     S
C305   C317    1.454   .     S
C305   C310    1.413   .     A
C305   C403    1.394   1_455 S
C306   C309    1.413   .     A
C306   C319    1.454   .     S
C306   C356    1.394   .     S
C307   C321    1.451   .     S
C307   C309    1.416   .     A
C307   C353    1.394   .     S
C308   C310    1.416   .     A
C308   C323    1.451   .     S
C308   C402    1.394   1_455 S
C311   N325    1.429   .     S
C311   N316    1.373   .     A
C312   N315    1.373   .     A
C312   N328    1.430   .     S
C312   C25     1.423   1_565 S
C313   N331    1.430   .     S
C313   N316    1.377   .     A
C314   N315    1.376   .     A
C314   N334    1.430   .     S
C314   C23     1.423   1_565 S
C317   N318    1.157   .     T
C319   N320    1.157   .     T
C321   N322    1.157   .     T
C323   N324    1.157   .     T
N325   O326    1.300   .     A
N325   O327    1.301   .     A
N328   O330    1.300   .     A
N328   O329    1.301   .     A
N331   O332    1.298   .     A
N331   O333    1.301   .     A
N334   O336    1.299   .     A
N334   O335    1.301   .     A
O337   C341    1.302   .     A
O337   Cu349   1.987   .     S
O338   C342    1.302   .     A
O338   Cu350   1.987   .     S
O339   Cu349   1.981   .     S
O339   C342    1.306   .     A
O340   Cu350   1.981   .     S
O340   C341    1.306   .     A
C341   C358    1.476   .     S
C342   C357    1.476   .     S
O343   C347    1.296   .     A
O343   Cu349   1.930   .     S
O344   C348    1.296   .     A
O344   Cu350   1.930   .     S
O345   C348    1.294   .     A
O345   Cu349   1.928   .     S
O346   C347    1.294   .     A
O346   Cu350   1.928   .     S
C347   C351    1.407   .     S
C348   C352    1.407   .     S
Cu349  N363    2.033   .     S
Cu349  Cu350   2.705   .     S
Cu350  N364    2.033   .     S
C351   C1216   1.189   1_554 S
C352   C783    1.189   .     S
C353   C365    1.454   .     S
C353   C358    1.413   .     A
C354   C357    1.413   .     A
C354   C367    1.454   .     S
C354   C404    1.394   .     S
C355   C369    1.451   .     S
C355   C357    1.416   .     A
C355   C401    1.394   .     S
C356   C358    1.416   .     A
C356   C371    1.451   .     S
C359   N373    1.429   .     S
C359   N364    1.373   .     A
C360   N363    1.373   .     A
C360   N376    1.430   .     S
C360   C73     1.423   1_565 S
C361   N379    1.430   .     S
C361   N364    1.377   .     A
C362   N363    1.376   .     A
C362   N382    1.430   .     S
C362   C71     1.423   1_565 S
C365   N366    1.157   .     T
C367   N368    1.157   .     T
C369   N370    1.157   .     T
C371   N372    1.157   .     T
N373   O374    1.300   .     A
N373   O375    1.301   .     A
N376   O378    1.300   .     A
N376   O377    1.301   .     A
N379   O380    1.298   .     A
N379   O381    1.301   .     A
N382   O384    1.299   .     A
N382   O383    1.301   .     A
O385   C389    1.302   .     A
O385   Cu397   1.987   .     S
O386   C390    1.302   .     A
O386   Cu398   1.987   .     S
O387   Cu397   1.981   .     S
O387   C390    1.306   .     A
O388   Cu398   1.981   .     S
O388   C389    1.306   .     A
C389   C406    1.476   .     S
C390   C405    1.476   .     S
O391   C395    1.296   .     A
O391   Cu397   1.930   .     S
O392   C396    1.296   .     A
O392   Cu398   1.930   .     S
O393   C396    1.294   .     A
O393   Cu397   1.928   .     S
O394   C395    1.294   .     A
O394   Cu398   1.928   .     S
C395   C399    1.407   .     S
C396   C400    1.407   .     S
Cu397  N411    2.033   .     S
Cu397  Cu398   2.705   .     S
Cu398  N412    2.033   .     S
C399   C1264   1.189   1_554 S
C400   C831    1.189   .     S
C401   C413    1.454   .     S
C401   C406    1.413   .     A
C402   C405    1.413   .     A
C402   C415    1.454   .     S
C402   C308    1.394   1_655 S
C403   C417    1.451   .     S
C403   C405    1.416   .     A
C403   C305    1.394   1_655 S
C404   C406    1.416   .     A
C404   C419    1.451   .     S
C407   N421    1.429   .     S
C407   N412    1.373   .     A
C408   N411    1.373   .     A
C408   N424    1.430   .     S
C408   C121    1.423   1_565 S
C409   N427    1.430   .     S
C409   N412    1.377   .     A
C410   N411    1.376   .     A
C410   N430    1.430   .     S
C410   C119    1.423   1_565 S
C413   N414    1.157   .     T
C415   N416    1.157   .     T
C417   N418    1.157   .     T
C419   N420    1.157   .     T
N421   O422    1.300   .     A
N421   O423    1.301   .     A
N424   O426    1.300   .     A
N424   O425    1.301   .     A
N427   O428    1.298   .     A
N427   O429    1.301   .     A
N430   O432    1.299   .     A
N430   O431    1.301   .     A
O433   C437    1.302   .     A
O433   Cu445   1.987   .     S
O434   C438    1.302   .     A
O434   Cu446   1.987   .     S
O435   Cu445   1.981   .     S
O435   C438    1.306   .     A
O436   Cu446   1.981   .     S
O436   C437    1.306   .     A
C437   C454    1.476   .     S
C438   C453    1.476   .     S
O439   C443    1.296   .     A
O439   Cu445   1.930   .     S
O440   C444    1.296   .     A
O440   Cu446   1.930   .     S
O441   C444    1.294   .     A
O441   Cu445   1.928   .     S
O442   C443    1.294   .     A
O442   Cu446   1.928   .     S
C443   C447    1.407   .     S
C444   C448    1.407   .     S
Cu445  N459    2.033   .     S
Cu445  Cu446   2.705   .     S
Cu446  N460    2.033   .     S
C448   C879    1.189   .     S
C449   C461    1.454   .     S
C449   C454    1.413   .     A
C449   C547    1.394   1_455 S
C450   C453    1.413   .     A
C450   C463    1.454   .     S
C450   C500    1.394   .     S
C451   C465    1.451   .     S
C451   C453    1.416   .     A
C451   C497    1.394   .     S
C452   C454    1.416   .     A
C452   C467    1.451   .     S
C452   C546    1.394   1_455 S
C455   N469    1.429   .     S
C455   N460    1.373   .     A
C455   C746    1.423   1_545 S
C456   N459    1.373   .     A
C456   N472    1.430   .     S
C456   C601    1.423   .     S
C457   N475    1.430   .     S
C457   N460    1.377   .     A
C457   C744    1.423   1_545 S
C458   N459    1.376   .     A
C458   N478    1.430   .     S
C458   C599    1.423   .     S
C461   N462    1.157   .     T
C463   N464    1.157   .     T
C465   N466    1.157   .     T
C467   N468    1.157   .     T
N469   O470    1.300   .     A
N469   O471    1.301   .     A
N472   O474    1.300   .     A
N472   O473    1.301   .     A
N475   O476    1.298   .     A
N475   O477    1.301   .     A
N478   O480    1.299   .     A
N478   O479    1.301   .     A
O481   C485    1.302   .     A
O481   Cu493   1.987   .     S
O482   C486    1.302   .     A
O482   Cu494   1.987   .     S
O483   Cu493   1.981   .     S
O483   C486    1.306   .     A
O484   Cu494   1.981   .     S
O484   C485    1.306   .     A
C485   C502    1.476   .     S
C486   C501    1.476   .     S
O487   C491    1.296   .     A
O487   Cu493   1.930   .     S
O488   C492    1.296   .     A
O488   Cu494   1.930   .     S
O489   C492    1.294   .     A
O489   Cu493   1.928   .     S
O490   C491    1.294   .     A
O490   Cu494   1.928   .     S
C491   C495    1.407   .     S
C492   C496    1.407   .     S
Cu493  N507    2.033   .     S
Cu493  Cu494   2.705   .     S
Cu494  N508    2.033   .     S
C496   C927    1.189   .     S
C497   C509    1.454   .     S
C497   C502    1.413   .     A
C498   C501    1.413   .     A
C498   C511    1.454   .     S
C498   C548    1.394   .     S
C499   C513    1.451   .     S
C499   C501    1.416   .     A
C499   C545    1.394   .     S
C500   C502    1.416   .     A
C500   C515    1.451   .     S
C503   N517    1.429   .     S
C503   N508    1.373   .     A
C503   C794    1.423   1_545 S
C504   N507    1.373   .     A
C504   N520    1.430   .     S
C504   C649    1.423   .     S
C505   N523    1.430   .     S
C505   N508    1.377   .     A
C505   C792    1.423   1_545 S
C506   N507    1.376   .     A
C506   N526    1.430   .     S
C506   C647    1.423   .     S
C509   N510    1.157   .     T
C511   N512    1.157   .     T
C513   N514    1.157   .     T
C515   N516    1.157   .     T
N517   O518    1.300   .     A
N517   O519    1.301   .     A
N520   O522    1.300   .     A
N520   O521    1.301   .     A
N523   O524    1.298   .     A
N523   O525    1.301   .     A
N526   O528    1.299   .     A
N526   O527    1.301   .     A
O529   C533    1.302   .     A
O529   Cu541   1.987   .     S
O530   C534    1.302   .     A
O530   Cu542   1.987   .     S
O531   Cu541   1.981   .     S
O531   C534    1.306   .     A
O532   Cu542   1.981   .     S
O532   C533    1.306   .     A
C533   C550    1.476   .     S
C534   C549    1.476   .     S
O535   C539    1.296   .     A
O535   Cu541   1.930   .     S
O536   C540    1.296   .     A
O536   Cu542   1.930   .     S
O537   C540    1.294   .     A
O537   Cu541   1.928   .     S
O538   C539    1.294   .     A
O538   Cu542   1.928   .     S
C539   C543    1.407   .     S
C540   C544    1.407   .     S
Cu541  N555    2.033   .     S
Cu541  Cu542   2.705   .     S
Cu542  N556    2.033   .     S
C544   C975    1.189   .     S
C545   C557    1.454   .     S
C545   C550    1.413   .     A
C546   C549    1.413   .     A
C546   C559    1.454   .     S
C546   C452    1.394   1_655 S
C547   C561    1.451   .     S
C547   C549    1.416   .     A
C547   C449    1.394   1_655 S
C548   C550    1.416   .     A
C548   C563    1.451   .     S
C551   N565    1.429   .     S
C551   N556    1.373   .     A
C551   C842    1.423   1_545 S
C552   N555    1.373   .     A
C552   N568    1.430   .     S
C552   C697    1.423   .     S
C553   N571    1.430   .     S
C553   N556    1.377   .     A
C553   C840    1.423   1_545 S
C554   N555    1.376   .     A
C554   N574    1.430   .     S
C554   C695    1.423   .     S
C557   N558    1.157   .     T
C559   N560    1.157   .     T
C561   N562    1.157   .     T
C563   N564    1.157   .     T
N565   O566    1.300   .     A
N565   O567    1.301   .     A
N568   O570    1.300   .     A
N568   O569    1.301   .     A
N571   O572    1.298   .     A
N571   O573    1.301   .     A
N574   O576    1.299   .     A
N574   O575    1.301   .     A
O577   C581    1.302   .     A
O577   Cu589   1.987   .     S
O578   C582    1.302   .     A
O578   Cu590   1.987   .     S
O579   Cu589   1.981   .     S
O579   C582    1.306   .     A
O580   Cu590   1.981   .     S
O580   C581    1.306   .     A
C581   C598    1.476   .     S
C582   C597    1.476   .     S
O583   C587    1.296   .     A
O583   Cu589   1.930   .     S
O584   C588    1.296   .     A
O584   Cu590   1.930   .     S
O585   C588    1.294   .     A
O585   Cu589   1.928   .     S
O586   C587    1.294   .     A
O586   Cu590   1.928   .     S
C587   C591    1.407   .     S
C588   C592    1.407   .     S
Cu589  N603    2.033   .     S
Cu589  Cu590   2.705   .     S
Cu590  N604    2.033   .     S
C592   C1023   1.189   .     S
C593   C605    1.454   .     S
C593   C598    1.413   .     A
C593   C691    1.394   1_455 S
C594   C597    1.413   .     A
C594   C607    1.454   .     S
C594   C644    1.394   .     S
C595   C609    1.451   .     S
C595   C597    1.416   .     A
C595   C641    1.394   .     S
C596   C598    1.416   .     A
C596   C611    1.451   .     S
C596   C690    1.394   1_455 S
C599   N613    1.429   .     S
C599   N604    1.373   .     A
C600   N603    1.373   .     A
C600   N616    1.430   .     S
C600   C745    1.423   .     S
C601   N619    1.430   .     S
C601   N604    1.377   .     A
C602   N603    1.376   .     A
C602   N622    1.430   .     S
C602   C743    1.423   .     S
C605   N606    1.157   .     T
C607   N608    1.157   .     T
C609   N610    1.157   .     T
C611   N612    1.157   .     T
N613   O614    1.300   .     A
N613   O615    1.301   .     A
N616   O618    1.300   .     A
N616   O617    1.301   .     A
N619   O620    1.298   .     A
N619   O621    1.301   .     A
N622   O624    1.299   .     A
N622   O623    1.301   .     A
O625   C629    1.302   .     A
O625   Cu637   1.987   .     S
O626   C630    1.302   .     A
O626   Cu638   1.987   .     S
O627   Cu637   1.981   .     S
O627   C630    1.306   .     A
O628   Cu638   1.981   .     S
O628   C629    1.306   .     A
C629   C646    1.476   .     S
C630   C645    1.476   .     S
O631   C635    1.296   .     A
O631   Cu637   1.930   .     S
O632   C636    1.296   .     A
O632   Cu638   1.930   .     S
O633   C636    1.294   .     A
O633   Cu637   1.928   .     S
O634   C635    1.294   .     A
O634   Cu638   1.928   .     S
C635   C639    1.407   .     S
C636   C640    1.407   .     S
Cu637  N651    2.033   .     S
Cu637  Cu638   2.705   .     S
Cu638  N652    2.033   .     S
C640   C1071   1.189   .     S
C641   C653    1.454   .     S
C641   C646    1.413   .     A
C642   C645    1.413   .     A
C642   C655    1.454   .     S
C642   C692    1.394   .     S
C643   C657    1.451   .     S
C643   C645    1.416   .     A
C643   C689    1.394   .     S
C644   C646    1.416   .     A
C644   C659    1.451   .     S
C647   N661    1.429   .     S
C647   N652    1.373   .     A
C648   N651    1.373   .     A
C648   N664    1.430   .     S
C648   C793    1.423   .     S
C649   N667    1.430   .     S
C649   N652    1.377   .     A
C650   N651    1.376   .     A
C650   N670    1.430   .     S
C650   C791    1.423   .     S
C653   N654    1.157   .     T
C655   N656    1.157   .     T
C657   N658    1.157   .     T
C659   N660    1.157   .     T
N661   O662    1.300   .     A
N661   O663    1.301   .     A
N664   O666    1.300   .     A
N664   O665    1.301   .     A
N667   O668    1.298   .     A
N667   O669    1.301   .     A
N670   O672    1.299   .     A
N670   O671    1.301   .     A
O673   C677    1.302   .     A
O673   Cu685   1.987   .     S
O674   C678    1.302   .     A
O674   Cu686   1.987   .     S
O675   Cu685   1.981   .     S
O675   C678    1.306   .     A
O676   Cu686   1.981   .     S
O676   C677    1.306   .     A
C677   C694    1.476   .     S
C678   C693    1.476   .     S
O679   C683    1.296   .     A
O679   Cu685   1.930   .     S
O680   C684    1.296   .     A
O680   Cu686   1.930   .     S
O681   C684    1.294   .     A
O681   Cu685   1.928   .     S
O682   C683    1.294   .     A
O682   Cu686   1.928   .     S
C683   C687    1.407   .     S
C684   C688    1.407   .     S
Cu685  N699    2.033   .     S
Cu685  Cu686   2.705   .     S
Cu686  N700    2.033   .     S
C688   C1119   1.189   .     S
C689   C701    1.454   .     S
C689   C694    1.413   .     A
C690   C693    1.413   .     A
C690   C703    1.454   .     S
C690   C596    1.394   1_655 S
C691   C705    1.451   .     S
C691   C693    1.416   .     A
C691   C593    1.394   1_655 S
C692   C694    1.416   .     A
C692   C707    1.451   .     S
C695   N709    1.429   .     S
C695   N700    1.373   .     A
C696   N699    1.373   .     A
C696   N712    1.430   .     S
C696   C841    1.423   .     S
C697   N715    1.430   .     S
C697   N700    1.377   .     A
C698   N699    1.376   .     A
C698   N718    1.430   .     S
C698   C839    1.423   .     S
C701   N702    1.157   .     T
C703   N704    1.157   .     T
C705   N706    1.157   .     T
C707   N708    1.157   .     T
N709   O710    1.300   .     A
N709   O711    1.301   .     A
N712   O714    1.300   .     A
N712   O713    1.301   .     A
N715   O716    1.298   .     A
N715   O717    1.301   .     A
N718   O720    1.299   .     A
N718   O719    1.301   .     A
O721   C725    1.302   .     A
O721   Cu733   1.987   .     S
O722   C726    1.302   .     A
O722   Cu734   1.987   .     S
O723   Cu733   1.981   .     S
O723   C726    1.306   .     A
O724   Cu734   1.981   .     S
O724   C725    1.306   .     A
C725   C742    1.476   .     S
C726   C741    1.476   .     S
O727   C731    1.296   .     A
O727   Cu733   1.930   .     S
O728   C732    1.296   .     A
O728   Cu734   1.930   .     S
O729   C732    1.294   .     A
O729   Cu733   1.928   .     S
O730   C731    1.294   .     A
O730   Cu734   1.928   .     S
C731   C735    1.407   .     S
C732   C736    1.407   .     S
Cu733  N747    2.033   .     S
Cu733  Cu734   2.705   .     S
Cu734  N748    2.033   .     S
C736   C1167   1.189   .     S
C737   C749    1.454   .     S
C737   C742    1.413   .     A
C737   C835    1.394   1_455 S
C738   C741    1.413   .     A
C738   C751    1.454   .     S
C738   C788    1.394   .     S
C739   C753    1.451   .     S
C739   C741    1.416   .     A
C739   C785    1.394   .     S
C740   C742    1.416   .     A
C740   C755    1.451   .     S
C740   C834    1.394   1_455 S
C743   N757    1.429   .     S
C743   N748    1.373   .     A
C744   N747    1.373   .     A
C744   N760    1.430   .     S
C744   C457    1.423   1_565 S
C745   N763    1.430   .     S
C745   N748    1.377   .     A
C746   N747    1.376   .     A
C746   N766    1.430   .     S
C746   C455    1.423   1_565 S
C749   N750    1.157   .     T
C751   N752    1.157   .     T
C753   N754    1.157   .     T
C755   N756    1.157   .     T
N757   O758    1.300   .     A
N757   O759    1.301   .     A
N760   O762    1.300   .     A
N760   O761    1.301   .     A
N763   O764    1.298   .     A
N763   O765    1.301   .     A
N766   O768    1.299   .     A
N766   O767    1.301   .     A
O769   C773    1.302   .     A
O769   Cu781   1.987   .     S
O770   C774    1.302   .     A
O770   Cu782   1.987   .     S
O771   Cu781   1.981   .     S
O771   C774    1.306   .     A
O772   Cu782   1.981   .     S
O772   C773    1.306   .     A
C773   C790    1.476   .     S
C774   C789    1.476   .     S
O775   C779    1.296   .     A
O775   Cu781   1.930   .     S
O776   C780    1.296   .     A
O776   Cu782   1.930   .     S
O777   C780    1.294   .     A
O777   Cu781   1.928   .     S
O778   C779    1.294   .     A
O778   Cu782   1.928   .     S
C779   C783    1.407   .     S
C780   C784    1.407   .     S
Cu781  N795    2.033   .     S
Cu781  Cu782   2.705   .     S
Cu782  N796    2.033   .     S
C784   C1215   1.189   .     S
C785   C797    1.454   .     S
C785   C790    1.413   .     A
C786   C789    1.413   .     A
C786   C799    1.454   .     S
C786   C836    1.394   .     S
C787   C801    1.451   .     S
C787   C789    1.416   .     A
C787   C833    1.394   .     S
C788   C790    1.416   .     A
C788   C803    1.451   .     S
C791   N805    1.429   .     S
C791   N796    1.373   .     A
C792   N795    1.373   .     A
C792   N808    1.430   .     S
C792   C505    1.423   1_565 S
C793   N811    1.430   .     S
C793   N796    1.377   .     A
C794   N795    1.376   .     A
C794   N814    1.430   .     S
C794   C503    1.423   1_565 S
C797   N798    1.157   .     T
C799   N800    1.157   .     T
C801   N802    1.157   .     T
C803   N804    1.157   .     T
N805   O806    1.300   .     A
N805   O807    1.301   .     A
N808   O810    1.300   .     A
N808   O809    1.301   .     A
N811   O812    1.298   .     A
N811   O813    1.301   .     A
N814   O816    1.299   .     A
N814   O815    1.301   .     A
O817   C821    1.302   .     A
O817   Cu829   1.987   .     S
O818   C822    1.302   .     A
O818   Cu830   1.987   .     S
O819   Cu829   1.981   .     S
O819   C822    1.306   .     A
O820   Cu830   1.981   .     S
O820   C821    1.306   .     A
C821   C838    1.476   .     S
C822   C837    1.476   .     S
O823   C827    1.296   .     A
O823   Cu829   1.930   .     S
O824   C828    1.296   .     A
O824   Cu830   1.930   .     S
O825   C828    1.294   .     A
O825   Cu829   1.928   .     S
O826   C827    1.294   .     A
O826   Cu830   1.928   .     S
C827   C831    1.407   .     S
C828   C832    1.407   .     S
Cu829  N843    2.033   .     S
Cu829  Cu830   2.705   .     S
Cu830  N844    2.033   .     S
C832   C1263   1.189   .     S
C833   C845    1.454   .     S
C833   C838    1.413   .     A
C834   C837    1.413   .     A
C834   C847    1.454   .     S
C834   C740    1.394   1_655 S
C835   C849    1.451   .     S
C835   C837    1.416   .     A
C835   C737    1.394   1_655 S
C836   C838    1.416   .     A
C836   C851    1.451   .     S
C839   N853    1.429   .     S
C839   N844    1.373   .     A
C840   N843    1.373   .     A
C840   N856    1.430   .     S
C840   C553    1.423   1_565 S
C841   N859    1.430   .     S
C841   N844    1.377   .     A
C842   N843    1.376   .     A
C842   N862    1.430   .     S
C842   C551    1.423   1_565 S
C845   N846    1.157   .     T
C847   N848    1.157   .     T
C849   N850    1.157   .     T
C851   N852    1.157   .     T
N853   O854    1.300   .     A
N853   O855    1.301   .     A
N856   O858    1.300   .     A
N856   O857    1.301   .     A
N859   O860    1.298   .     A
N859   O861    1.301   .     A
N862   O864    1.299   .     A
N862   O863    1.301   .     A
O865   C869    1.302   .     A
O865   Cu877   1.987   .     S
O866   C870    1.302   .     A
O866   Cu878   1.987   .     S
O867   Cu877   1.981   .     S
O867   C870    1.306   .     A
O868   Cu878   1.981   .     S
O868   C869    1.306   .     A
C869   C886    1.476   .     S
C870   C885    1.476   .     S
O871   C875    1.296   .     A
O871   Cu877   1.930   .     S
O872   C876    1.296   .     A
O872   Cu878   1.930   .     S
O873   C876    1.294   .     A
O873   Cu877   1.928   .     S
O874   C875    1.294   .     A
O874   Cu878   1.928   .     S
C875   C879    1.407   .     S
C876   C880    1.407   .     S
Cu877  N891    2.033   .     S
Cu877  Cu878   2.705   .     S
Cu878  N892    2.033   .     S
C880   C15     1.189   1_556 S
C881   C893    1.454   .     S
C881   C886    1.413   .     A
C881   C979    1.394   1_455 S
C882   C885    1.413   .     A
C882   C895    1.454   .     S
C882   C932    1.394   .     S
C883   C897    1.451   .     S
C883   C885    1.416   .     A
C883   C929    1.394   .     S
C884   C886    1.416   .     A
C884   C899    1.451   .     S
C884   C978    1.394   1_455 S
C887   N901    1.429   .     S
C887   N892    1.373   .     A
C887   C1178   1.423   1_545 S
C888   N891    1.373   .     A
C888   N904    1.430   .     S
C888   C1033   1.423   .     S
C889   N907    1.430   .     S
C889   N892    1.377   .     A
C889   C1176   1.423   1_545 S
C890   N891    1.376   .     A
C890   N910    1.430   .     S
C890   C1031   1.423   .     S
C893   N894    1.157   .     T
C895   N896    1.157   .     T
C897   N898    1.157   .     T
C899   N900    1.157   .     T
N901   O902    1.300   .     A
N901   O903    1.301   .     A
N904   O906    1.300   .     A
N904   O905    1.301   .     A
N907   O908    1.298   .     A
N907   O909    1.301   .     A
N910   O912    1.299   .     A
N910   O911    1.301   .     A
O913   C917    1.302   .     A
O913   Cu925   1.987   .     S
O914   C918    1.302   .     A
O914   Cu926   1.987   .     S
O915   Cu925   1.981   .     S
O915   C918    1.306   .     A
O916   Cu926   1.981   .     S
O916   C917    1.306   .     A
C917   C934    1.476   .     S
C918   C933    1.476   .     S
O919   C923    1.296   .     A
O919   Cu925   1.930   .     S
O920   C924    1.296   .     A
O920   Cu926   1.930   .     S
O921   C924    1.294   .     A
O921   Cu925   1.928   .     S
O922   C923    1.294   .     A
O922   Cu926   1.928   .     S
C923   C927    1.407   .     S
C924   C928    1.407   .     S
Cu925  N939    2.033   .     S
Cu925  Cu926   2.705   .     S
Cu926  N940    2.033   .     S
C928   C63     1.189   1_556 S
C929   C941    1.454   .     S
C929   C934    1.413   .     A
C930   C933    1.413   .     A
C930   C943    1.454   .     S
C930   C980    1.394   .     S
C931   C945    1.451   .     S
C931   C933    1.416   .     A
C931   C977    1.394   .     S
C932   C934    1.416   .     A
C932   C947    1.451   .     S
C935   N949    1.429   .     S
C935   N940    1.373   .     A
C935   C1226   1.423   1_545 S
C936   N939    1.373   .     A
C936   N952    1.430   .     S
C936   C1081   1.423   .     S
C937   N955    1.430   .     S
C937   N940    1.377   .     A
C937   C1224   1.423   1_545 S
C938   N939    1.376   .     A
C938   N958    1.430   .     S
C938   C1079   1.423   .     S
C941   N942    1.157   .     T
C943   N944    1.157   .     T
C945   N946    1.157   .     T
C947   N948    1.157   .     T
N949   O950    1.300   .     A
N949   O951    1.301   .     A
N952   O954    1.300   .     A
N952   O953    1.301   .     A
N955   O956    1.298   .     A
N955   O957    1.301   .     A
N958   O960    1.299   .     A
N958   O959    1.301   .     A
O961   C965    1.302   .     A
O961   Cu973   1.987   .     S
O962   C966    1.302   .     A
O962   Cu974   1.987   .     S
O963   Cu973   1.981   .     S
O963   C966    1.306   .     A
O964   Cu974   1.981   .     S
O964   C965    1.306   .     A
C965   C982    1.476   .     S
C966   C981    1.476   .     S
O967   C971    1.296   .     A
O967   Cu973   1.930   .     S
O968   C972    1.296   .     A
O968   Cu974   1.930   .     S
O969   C972    1.294   .     A
O969   Cu973   1.928   .     S
O970   C971    1.294   .     A
O970   Cu974   1.928   .     S
C971   C975    1.407   .     S
C972   C976    1.407   .     S
Cu973  N987    2.033   .     S
Cu973  Cu974   2.705   .     S
Cu974  N988    2.033   .     S
C976   C111    1.189   1_556 S
C977   C989    1.454   .     S
C977   C982    1.413   .     A
C978   C981    1.413   .     A
C978   C991    1.454   .     S
C978   C884    1.394   1_655 S
C979   C993    1.451   .     S
C979   C981    1.416   .     A
C979   C881    1.394   1_655 S
C980   C982    1.416   .     A
C980   C995    1.451   .     S
C983   N997    1.429   .     S
C983   N988    1.373   .     A
C983   C1274   1.423   1_545 S
C984   N987    1.373   .     A
C984   N1000   1.430   .     S
C984   C1129   1.423   .     S
C985   N1003   1.430   .     S
C985   N988    1.377   .     A
C985   C1272   1.423   1_545 S
C986   N987    1.376   .     A
C986   N1006   1.430   .     S
C986   C1127   1.423   .     S
C989   N990    1.157   .     T
C991   N992    1.157   .     T
C993   N994    1.157   .     T
C995   N996    1.157   .     T
N997   O998    1.300   .     A
N997   O999    1.301   .     A
N1000  O1002   1.300   .     A
N1000  O1001   1.301   .     A
N1003  O1004   1.298   .     A
N1003  O1005   1.301   .     A
N1006  O1008   1.299   .     A
N1006  O1007   1.301   .     A
O1009  C1013   1.302   .     A
O1009  Cu1021  1.987   .     S
O1010  C1014   1.302   .     A
O1010  Cu1022  1.987   .     S
O1011  Cu1021  1.981   .     S
O1011  C1014   1.306   .     A
O1012  Cu1022  1.981   .     S
O1012  C1013   1.306   .     A
C1013  C1030   1.476   .     S
C1014  C1029   1.476   .     S
O1015  C1019   1.296   .     A
O1015  Cu1021  1.930   .     S
O1016  C1020   1.296   .     A
O1016  Cu1022  1.930   .     S
O1017  C1020   1.294   .     A
O1017  Cu1021  1.928   .     S
O1018  C1019   1.294   .     A
O1018  Cu1022  1.928   .     S
C1019  C1023   1.407   .     S
C1020  C1024   1.407   .     S
Cu1021 N1035   2.033   .     S
Cu1021 Cu1022  2.705   .     S
Cu1022 N1036   2.033   .     S
C1024  C159    1.189   1_556 S
C1025  C1037   1.454   .     S
C1025  C1030   1.413   .     A
C1025  C1123   1.394   1_455 S
C1026  C1029   1.413   .     A
C1026  C1039   1.454   .     S
C1026  C1076   1.394   .     S
C1027  C1041   1.451   .     S
C1027  C1029   1.416   .     A
C1027  C1073   1.394   .     S
C1028  C1030   1.416   .     A
C1028  C1043   1.451   .     S
C1028  C1122   1.394   1_455 S
C1031  N1045   1.429   .     S
C1031  N1036   1.373   .     A
C1032  N1035   1.373   .     A
C1032  N1048   1.430   .     S
C1032  C1177   1.423   .     S
C1033  N1051   1.430   .     S
C1033  N1036   1.377   .     A
C1034  N1035   1.376   .     A
C1034  N1054   1.430   .     S
C1034  C1175   1.423   .     S
C1037  N1038   1.157   .     T
C1039  N1040   1.157   .     T
C1041  N1042   1.157   .     T
C1043  N1044   1.157   .     T
N1045  O1046   1.300   .     A
N1045  O1047   1.301   .     A
N1048  O1050   1.300   .     A
N1048  O1049   1.301   .     A
N1051  O1052   1.298   .     A
N1051  O1053   1.301   .     A
N1054  O1056   1.299   .     A
N1054  O1055   1.301   .     A
O1057  C1061   1.302   .     A
O1057  Cu1069  1.987   .     S
O1058  C1062   1.302   .     A
O1058  Cu1070  1.987   .     S
O1059  Cu1069  1.981   .     S
O1059  C1062   1.306   .     A
O1060  Cu1070  1.981   .     S
O1060  C1061   1.306   .     A
C1061  C1078   1.476   .     S
C1062  C1077   1.476   .     S
O1063  C1067   1.296   .     A
O1063  Cu1069  1.930   .     S
O1064  C1068   1.296   .     A
O1064  Cu1070  1.930   .     S
O1065  C1068   1.294   .     A
O1065  Cu1069  1.928   .     S
O1066  C1067   1.294   .     A
O1066  Cu1070  1.928   .     S
C1067  C1071   1.407   .     S
C1068  C1072   1.407   .     S
Cu1069 N1083   2.033   .     S
Cu1069 Cu1070  2.705   .     S
Cu1070 N1084   2.033   .     S
C1072  C207    1.189   1_556 S
C1073  C1085   1.454   .     S
C1073  C1078   1.413   .     A
C1074  C1077   1.413   .     A
C1074  C1087   1.454   .     S
C1074  C1124   1.394   .     S
C1075  C1089   1.451   .     S
C1075  C1077   1.416   .     A
C1075  C1121   1.394   .     S
C1076  C1078   1.416   .     A
C1076  C1091   1.451   .     S
C1079  N1093   1.429   .     S
C1079  N1084   1.373   .     A
C1080  N1083   1.373   .     A
C1080  N1096   1.430   .     S
C1080  C1225   1.423   .     S
C1081  N1099   1.430   .     S
C1081  N1084   1.377   .     A
C1082  N1083   1.376   .     A
C1082  N1102   1.430   .     S
C1082  C1223   1.423   .     S
C1085  N1086   1.157   .     T
C1087  N1088   1.157   .     T
C1089  N1090   1.157   .     T
C1091  N1092   1.157   .     T
N1093  O1094   1.300   .     A
N1093  O1095   1.301   .     A
N1096  O1098   1.300   .     A
N1096  O1097   1.301   .     A
N1099  O1100   1.298   .     A
N1099  O1101   1.301   .     A
N1102  O1104   1.299   .     A
N1102  O1103   1.301   .     A
O1105  C1109   1.302   .     A
O1105  Cu1117  1.987   .     S
O1106  C1110   1.302   .     A
O1106  Cu1118  1.987   .     S
O1107  Cu1117  1.981   .     S
O1107  C1110   1.306   .     A
O1108  Cu1118  1.981   .     S
O1108  C1109   1.306   .     A
C1109  C1126   1.476   .     S
C1110  C1125   1.476   .     S
O1111  C1115   1.296   .     A
O1111  Cu1117  1.930   .     S
O1112  C1116   1.296   .     A
O1112  Cu1118  1.930   .     S
O1113  C1116   1.294   .     A
O1113  Cu1117  1.928   .     S
O1114  C1115   1.294   .     A
O1114  Cu1118  1.928   .     S
C1115  C1119   1.407   .     S
C1116  C1120   1.407   .     S
Cu1117 N1131   2.033   .     S
Cu1117 Cu1118  2.705   .     S
Cu1118 N1132   2.033   .     S
C1120  C255    1.189   1_556 S
C1121  C1133   1.454   .     S
C1121  C1126   1.413   .     A
C1122  C1125   1.413   .     A
C1122  C1135   1.454   .     S
C1122  C1028   1.394   1_655 S
C1123  C1137   1.451   .     S
C1123  C1125   1.416   .     A
C1123  C1025   1.394   1_655 S
C1124  C1126   1.416   .     A
C1124  C1139   1.451   .     S
C1127  N1141   1.429   .     S
C1127  N1132   1.373   .     A
C1128  N1131   1.373   .     A
C1128  N1144   1.430   .     S
C1128  C1273   1.423   .     S
C1129  N1147   1.430   .     S
C1129  N1132   1.377   .     A
C1130  N1131   1.376   .     A
C1130  N1150   1.430   .     S
C1130  C1271   1.423   .     S
C1133  N1134   1.157   .     T
C1135  N1136   1.157   .     T
C1137  N1138   1.157   .     T
C1139  N1140   1.157   .     T
N1141  O1142   1.300   .     A
N1141  O1143   1.301   .     A
N1144  O1146   1.300   .     A
N1144  O1145   1.301   .     A
N1147  O1148   1.298   .     A
N1147  O1149   1.301   .     A
N1150  O1152   1.299   .     A
N1150  O1151   1.301   .     A
O1153  C1157   1.302   .     A
O1153  Cu1165  1.987   .     S
O1154  C1158   1.302   .     A
O1154  Cu1166  1.987   .     S
O1155  Cu1165  1.981   .     S
O1155  C1158   1.306   .     A
O1156  Cu1166  1.981   .     S
O1156  C1157   1.306   .     A
C1157  C1174   1.476   .     S
C1158  C1173   1.476   .     S
O1159  C1163   1.296   .     A
O1159  Cu1165  1.930   .     S
O1160  C1164   1.296   .     A
O1160  Cu1166  1.930   .     S
O1161  C1164   1.294   .     A
O1161  Cu1165  1.928   .     S
O1162  C1163   1.294   .     A
O1162  Cu1166  1.928   .     S
C1163  C1167   1.407   .     S
C1164  C1168   1.407   .     S
Cu1165 N1179   2.033   .     S
Cu1165 Cu1166  2.705   .     S
Cu1166 N1180   2.033   .     S
C1168  C303    1.189   1_556 S
C1169  C1181   1.454   .     S
C1169  C1174   1.413   .     A
C1169  C1267   1.394   1_455 S
C1170  C1173   1.413   .     A
C1170  C1183   1.454   .     S
C1170  C1220   1.394   .     S
C1171  C1185   1.451   .     S
C1171  C1173   1.416   .     A
C1171  C1217   1.394   .     S
C1172  C1174   1.416   .     A
C1172  C1187   1.451   .     S
C1172  C1266   1.394   1_455 S
C1175  N1189   1.429   .     S
C1175  N1180   1.373   .     A
C1176  N1179   1.373   .     A
C1176  N1192   1.430   .     S
C1176  C889    1.423   1_565 S
C1177  N1195   1.430   .     S
C1177  N1180   1.377   .     A
C1178  N1179   1.376   .     A
C1178  N1198   1.430   .     S
C1178  C887    1.423   1_565 S
C1181  N1182   1.157   .     T
C1183  N1184   1.157   .     T
C1185  N1186   1.157   .     T
C1187  N1188   1.157   .     T
N1189  O1190   1.300   .     A
N1189  O1191   1.301   .     A
N1192  O1194   1.300   .     A
N1192  O1193   1.301   .     A
N1195  O1196   1.298   .     A
N1195  O1197   1.301   .     A
N1198  O1200   1.299   .     A
N1198  O1199   1.301   .     A
O1201  C1205   1.302   .     A
O1201  Cu1213  1.987   .     S
O1202  C1206   1.302   .     A
O1202  Cu1214  1.987   .     S
O1203  Cu1213  1.981   .     S
O1203  C1206   1.306   .     A
O1204  Cu1214  1.981   .     S
O1204  C1205   1.306   .     A
C1205  C1222   1.476   .     S
C1206  C1221   1.476   .     S
O1207  C1211   1.296   .     A
O1207  Cu1213  1.930   .     S
O1208  C1212   1.296   .     A
O1208  Cu1214  1.930   .     S
O1209  C1212   1.294   .     A
O1209  Cu1213  1.928   .     S
O1210  C1211   1.294   .     A
O1210  Cu1214  1.928   .     S
C1211  C1215   1.407   .     S
C1212  C1216   1.407   .     S
Cu1213 N1227   2.033   .     S
Cu1213 Cu1214  2.705   .     S
Cu1214 N1228   2.033   .     S
C1216  C351    1.189   1_556 S
C1217  C1229   1.454   .     S
C1217  C1222   1.413   .     A
C1218  C1221   1.413   .     A
C1218  C1231   1.454   .     S
C1218  C1268   1.394   .     S
C1219  C1233   1.451   .     S
C1219  C1221   1.416   .     A
C1219  C1265   1.394   .     S
C1220  C1222   1.416   .     A
C1220  C1235   1.451   .     S
C1223  N1237   1.429   .     S
C1223  N1228   1.373   .     A
C1224  N1227   1.373   .     A
C1224  N1240   1.430   .     S
C1224  C937    1.423   1_565 S
C1225  N1243   1.430   .     S
C1225  N1228   1.377   .     A
C1226  N1227   1.376   .     A
C1226  N1246   1.430   .     S
C1226  C935    1.423   1_565 S
C1229  N1230   1.157   .     T
C1231  N1232   1.157   .     T
C1233  N1234   1.157   .     T
C1235  N1236   1.157   .     T
N1237  O1238   1.300   .     A
N1237  O1239   1.301   .     A
N1240  O1242   1.300   .     A
N1240  O1241   1.301   .     A
N1243  O1244   1.298   .     A
N1243  O1245   1.301   .     A
N1246  O1248   1.299   .     A
N1246  O1247   1.301   .     A
O1249  C1253   1.302   .     A
O1249  Cu1261  1.987   .     S
O1250  C1254   1.302   .     A
O1250  Cu1262  1.987   .     S
O1251  Cu1261  1.981   .     S
O1251  C1254   1.306   .     A
O1252  Cu1262  1.981   .     S
O1252  C1253   1.306   .     A
C1253  C1270   1.476   .     S
C1254  C1269   1.476   .     S
O1255  C1259   1.296   .     A
O1255  Cu1261  1.930   .     S
O1256  C1260   1.296   .     A
O1256  Cu1262  1.930   .     S
O1257  C1260   1.294   .     A
O1257  Cu1261  1.928   .     S
O1258  C1259   1.294   .     A
O1258  Cu1262  1.928   .     S
C1259  C1263   1.407   .     S
C1260  C1264   1.407   .     S
Cu1261 N1275   2.033   .     S
Cu1261 Cu1262  2.705   .     S
Cu1262 N1276   2.033   .     S
C1264  C399    1.189   1_556 S
C1265  C1277   1.454   .     S
C1265  C1270   1.413   .     A
C1266  C1269   1.413   .     A
C1266  C1279   1.454   .     S
C1266  C1172   1.394   1_655 S
C1267  C1281   1.451   .     S
C1267  C1269   1.416   .     A
C1267  C1169   1.394   1_655 S
C1268  C1270   1.416   .     A
C1268  C1283   1.451   .     S
C1271  N1285   1.429   .     S
C1271  N1276   1.373   .     A
C1272  N1275   1.373   .     A
C1272  N1288   1.430   .     S
C1272  C985    1.423   1_565 S
C1273  N1291   1.430   .     S
C1273  N1276   1.377   .     A
C1274  N1275   1.376   .     A
C1274  N1294   1.430   .     S
C1274  C983    1.423   1_565 S
C1277  N1278   1.157   .     T
C1279  N1280   1.157   .     T
C1281  N1282   1.157   .     T
C1283  N1284   1.157   .     T
N1285  O1286   1.300   .     A
N1285  O1287   1.301   .     A
N1288  O1290   1.300   .     A
N1288  O1289   1.301   .     A
N1291  O1292   1.298   .     A
N1291  O1293   1.301   .     A
N1294  O1296   1.299   .     A
N1294  O1295   1.301   .     A
