data_str_m2_o1_o18_pcu_sym.29
_audit_creation_date              2020-01-03
_audit_creation_method            'Materials Studio'
_symmetry_space_group_name_H-M    'P1'
_symmetry_Int_Tables_number       1
_symmetry_cell_setting            triclinic
loop_
_symmetry_equiv_pos_as_xyz
  x,y,z
_cell_length_a                    28.6150
_cell_length_b                    32.6976
_cell_length_c                    30.9983
_cell_angle_alpha                 89.8372
_cell_angle_beta                  74.3966
_cell_angle_gamma                 90.1046
loop_
_atom_site_label
_atom_site_type_symbol
_atom_site_fract_x
_atom_site_fract_y
_atom_site_fract_z
_atom_site_U_iso_or_equiv
_atom_site_adp_type
_atom_site_occupancy
C1     C     0.33320   0.08726   0.25024   0.00000  Uiso   1.00
C2     C     0.04411   0.02071   0.24059   0.00000  Uiso   1.00
C3     C     0.33326   0.29034   0.24997   0.00000  Uiso   1.00
C4     C     0.33305   0.04233   0.25039   0.00000  Uiso   1.00
C5     C     0.18111   0.15022   0.28501   0.00000  Uiso   1.00
C6     C     0.15235   0.18233   0.21461   0.00000  Uiso   1.00
C7     C     0.13158   0.15048   0.28512   0.00000  Uiso   1.00
C8     C     0.20178   0.18270   0.21481   0.00000  Uiso   1.00
C9     C     0.30608   0.16655   0.33605   0.00000  Uiso   1.00
C10    C     0.02726   0.16727   0.16398   0.00000  Uiso   1.00
C11    C     0.29108   0.16593   0.38518   0.00000  Uiso   1.00
C12    C     0.00004   0.24585   0.24992   0.00000  Uiso   1.00
C13    C     0.04249   0.17163   0.11512   0.00000  Uiso   1.00
C14    C     0.30821   0.15418   0.45637   0.00000  Uiso   1.00
C15    C     0.02761   0.19431   0.04580   0.00000  Uiso   1.00
C16    C     0.32418   0.15723   0.40993   0.00000  Uiso   1.00
C17    C     0.01054   0.18596   0.09141   0.00000  Uiso   1.00
C18    C     0.24230   0.17280   0.40734   0.00000  Uiso   1.00
C19    C     0.09117   0.16487   0.09272   0.00000  Uiso   1.00
C20    C     0.22541   0.17098   0.45428   0.00000  Uiso   1.00
C21    C     0.10980   0.17466   0.04715   0.00000  Uiso   1.00
C22    C     0.25917   0.16059   0.47864   0.00000  Uiso   1.00
C23    C     0.19520   0.16114   0.04753   0.00000  Uiso   1.00
C24    C     0.07681   0.18876   0.02353   0.00000  Uiso   1.00
C25    C     0.17580   0.17786   0.47745   0.00000  Uiso   1.00
C26    C     0.16005   0.17083   0.02452   0.00000  Uiso   1.00
C27    C     0.23524   0.04611   0.22474   0.00000  Uiso   1.00
C28    C     0.12200   0.28864   0.22469   0.00000  Uiso   1.00
C29    C     0.21289   0.28560   0.27123   0.00000  Uiso   1.00
C30    C     0.09630   0.04365   0.27844   0.00000  Uiso   1.00
C31    C     0.14160   0.19211   0.45530   0.00000  Uiso   1.00
C32    C     0.24372   0.15631   0.02494   0.00000  Uiso   1.00
C33    C     0.09322   0.19762   0.47806   0.00000  Uiso   1.00
C34    C     0.28865   0.02044   0.26022   0.00000  Uiso   1.00
C35    C     0.04383   0.31172   0.23403   0.00000  Uiso   1.00
C36    C     0.28921   0.31137   0.26601   0.00000  Uiso   1.00
Cu37   Cu    0.04689   0.16667   0.25000   0.00000  Uiso   1.00
Cu38   Cu    0.28645   0.16666   0.25000   0.00000  Uiso   1.00
H39    H     0.26926   0.14864   0.04393   0.00000  Uiso   1.00
H40    H     0.22855   0.19586   0.18669   0.00000  Uiso   1.00
H41    H     0.30611   0.19166   0.10826   0.00000  Uiso   1.00
H42    H     0.02873   0.15168   0.39338   0.00000  Uiso   1.00
H43    H     0.00076   0.14617   0.47484   0.00000  Uiso   1.00
H44    H     0.00251   0.20589   0.02806   0.00000  Uiso   1.00
H45    H     0.26748   0.05699   0.19822   0.00000  Uiso   1.00
H46    H     0.20696   0.06985   0.22802   0.00000  Uiso   1.00
H47    H     0.22171   0.01759   0.21308   0.00000  Uiso   1.00
H48    H     0.14676   0.26475   0.20645   0.00000  Uiso   1.00
H49    H     0.11003   0.27930   0.26058   0.00000  Uiso   1.00
H50    H     0.06840   0.20885   0.45980   0.00000  Uiso   1.00
H51    H     0.14385   0.31705   0.21982   0.00000  Uiso   1.00
H52    H     0.19214   0.25757   0.28482   0.00000  Uiso   1.00
H53    H     0.22733   0.28113   0.23439   0.00000  Uiso   1.00
H54    H     0.18704   0.31148   0.27883   0.00000  Uiso   1.00
H55    H     0.06665   0.05999   0.30291   0.00000  Uiso   1.00
H56    H     0.13008   0.06122   0.27547   0.00000  Uiso   1.00
H57    H     0.10104   0.01306   0.29231   0.00000  Uiso   1.00
H58    H     0.11370   0.15176   0.11186   0.00000  Uiso   1.00
H59    H     0.21793   0.17834   0.38696   0.00000  Uiso   1.00
H60    H     0.18683   0.15798   0.08337   0.00000  Uiso   1.00
H61    H     0.15112   0.20056   0.42043   0.00000  Uiso   1.00
H62    H     0.19129   0.13664   0.31298   0.00000  Uiso   1.00
H63    H     0.14235   0.19493   0.18609   0.00000  Uiso   1.00
H64    H     0.10480   0.13733   0.31324   0.00000  Uiso   1.00
N65    N     0.11736   0.16668   0.24999   0.00000  Uiso   1.00
N66    N     0.21597   0.16666   0.25001   0.00000  Uiso   1.00
O67    O     0.03958   0.10655   0.25000   0.00000  Uiso   1.00
O68    O     0.08310   0.29229   0.20523   0.00000  Uiso   1.00
O69    O     0.24939   0.29123   0.29340   0.00000  Uiso   1.00
O70    O     0.08778   0.04081   0.23556   0.00000  Uiso   1.00
O71    O     0.29375   0.22678   0.25000   0.00000  Uiso   1.00
O72    O     0.29372   0.10654   0.25000   0.00000  Uiso   1.00
O73    O     0.03961   0.22679   0.24999   0.00000  Uiso   1.00
O74    O     0.01852   0.16668   0.31491   0.00000  Uiso   1.00
O75    O     0.31481   0.16666   0.18508   0.00000  Uiso   1.00
O76    O     0.27267   0.16667   0.31492   0.00000  Uiso   1.00
O77    O     0.06067   0.16667   0.18508   0.00000  Uiso   1.00
O78    O     0.24467   0.04034   0.26699   0.00000  Uiso   1.00
C79    C     0.66653   0.08726   0.25024   0.00000  Uiso   1.00
C80    C     0.37745   0.02071   0.24059   0.00000  Uiso   1.00
C81    C     0.66659   0.29034   0.24997   0.00000  Uiso   1.00
C82    C     0.66639   0.04233   0.25039   0.00000  Uiso   1.00
C83    C     0.51445   0.15022   0.28501   0.00000  Uiso   1.00
C84    C     0.48569   0.18233   0.21461   0.00000  Uiso   1.00
C85    C     0.46491   0.15048   0.28512   0.00000  Uiso   1.00
C86    C     0.53512   0.18270   0.21481   0.00000  Uiso   1.00
C87    C     0.63941   0.16655   0.33605   0.00000  Uiso   1.00
C88    C     0.36059   0.16727   0.16398   0.00000  Uiso   1.00
C89    C     0.62442   0.16593   0.38518   0.00000  Uiso   1.00
C90    C     0.33337   0.24585   0.24992   0.00000  Uiso   1.00
C91    C     0.37582   0.17163   0.11512   0.00000  Uiso   1.00
C92    C     0.64154   0.15418   0.45637   0.00000  Uiso   1.00
C93    C     0.36095   0.19431   0.04580   0.00000  Uiso   1.00
C94    C     0.65752   0.15723   0.40993   0.00000  Uiso   1.00
C95    C     0.34388   0.18596   0.09141   0.00000  Uiso   1.00
C96    C     0.57564   0.17280   0.40734   0.00000  Uiso   1.00
C97    C     0.42450   0.16487   0.09272   0.00000  Uiso   1.00
C98    C     0.55874   0.17098   0.45428   0.00000  Uiso   1.00
C99    C     0.44313   0.17466   0.04715   0.00000  Uiso   1.00
C100   C     0.59251   0.16059   0.47864   0.00000  Uiso   1.00
C101   C     0.52854   0.16114   0.04753   0.00000  Uiso   1.00
C102   C     0.41015   0.18876   0.02353   0.00000  Uiso   1.00
C103   C     0.50913   0.17786   0.47745   0.00000  Uiso   1.00
C104   C     0.49338   0.17083   0.02452   0.00000  Uiso   1.00
C105   C     0.56858   0.04611   0.22474   0.00000  Uiso   1.00
C106   C     0.45533   0.28864   0.22469   0.00000  Uiso   1.00
C107   C     0.54622   0.28560   0.27123   0.00000  Uiso   1.00
C108   C     0.42963   0.04365   0.27844   0.00000  Uiso   1.00
C109   C     0.47493   0.19211   0.45530   0.00000  Uiso   1.00
C110   C     0.57705   0.15631   0.02494   0.00000  Uiso   1.00
C111   C     0.42656   0.19762   0.47806   0.00000  Uiso   1.00
C112   C     0.62198   0.02044   0.26022   0.00000  Uiso   1.00
C113   C     0.37716   0.31172   0.23403   0.00000  Uiso   1.00
C114   C     0.62255   0.31137   0.26601   0.00000  Uiso   1.00
Cu115  Cu    0.38022   0.16667   0.25000   0.00000  Uiso   1.00
Cu116  Cu    0.61978   0.16666   0.25000   0.00000  Uiso   1.00
H117   H     0.60259   0.14864   0.04393   0.00000  Uiso   1.00
H118   H     0.56188   0.19586   0.18669   0.00000  Uiso   1.00
H119   H     0.63944   0.19166   0.10826   0.00000  Uiso   1.00
H120   H     0.36207   0.15168   0.39338   0.00000  Uiso   1.00
H121   H     0.33410   0.14617   0.47484   0.00000  Uiso   1.00
H122   H     0.33584   0.20589   0.02806   0.00000  Uiso   1.00
H123   H     0.60081   0.05699   0.19822   0.00000  Uiso   1.00
H124   H     0.54029   0.06985   0.22802   0.00000  Uiso   1.00
H125   H     0.55505   0.01759   0.21308   0.00000  Uiso   1.00
H126   H     0.48009   0.26475   0.20645   0.00000  Uiso   1.00
H127   H     0.44336   0.27930   0.26058   0.00000  Uiso   1.00
H128   H     0.40173   0.20885   0.45980   0.00000  Uiso   1.00
H129   H     0.47718   0.31705   0.21982   0.00000  Uiso   1.00
H130   H     0.52547   0.25757   0.28482   0.00000  Uiso   1.00
H131   H     0.56066   0.28113   0.23439   0.00000  Uiso   1.00
H132   H     0.52038   0.31148   0.27883   0.00000  Uiso   1.00
H133   H     0.39998   0.05999   0.30291   0.00000  Uiso   1.00
H134   H     0.46341   0.06122   0.27547   0.00000  Uiso   1.00
H135   H     0.43438   0.01306   0.29231   0.00000  Uiso   1.00
H136   H     0.44704   0.15176   0.11186   0.00000  Uiso   1.00
H137   H     0.55127   0.17834   0.38696   0.00000  Uiso   1.00
H138   H     0.52017   0.15798   0.08337   0.00000  Uiso   1.00
H139   H     0.48445   0.20056   0.42043   0.00000  Uiso   1.00
H140   H     0.52462   0.13664   0.31298   0.00000  Uiso   1.00
H141   H     0.47568   0.19493   0.18609   0.00000  Uiso   1.00
H142   H     0.43813   0.13733   0.31324   0.00000  Uiso   1.00
N143   N     0.45069   0.16668   0.24999   0.00000  Uiso   1.00
N144   N     0.54931   0.16666   0.25001   0.00000  Uiso   1.00
O145   O     0.37291   0.10655   0.25000   0.00000  Uiso   1.00
O146   O     0.41643   0.29229   0.20523   0.00000  Uiso   1.00
O147   O     0.58272   0.29123   0.29340   0.00000  Uiso   1.00
O148   O     0.42111   0.04081   0.23556   0.00000  Uiso   1.00
O149   O     0.62709   0.22678   0.25000   0.00000  Uiso   1.00
O150   O     0.62706   0.10654   0.25000   0.00000  Uiso   1.00
O151   O     0.37294   0.22679   0.24999   0.00000  Uiso   1.00
O152   O     0.35186   0.16668   0.31491   0.00000  Uiso   1.00
O153   O     0.64814   0.16666   0.18508   0.00000  Uiso   1.00
O154   O     0.60600   0.16667   0.31492   0.00000  Uiso   1.00
O155   O     0.39400   0.16667   0.18508   0.00000  Uiso   1.00
O156   O     0.57801   0.04034   0.26699   0.00000  Uiso   1.00
C157   C     0.99986   0.08726   0.25024   0.00000  Uiso   1.00
C158   C     0.71078   0.02071   0.24059   0.00000  Uiso   1.00
C159   C     0.99993   0.29034   0.24997   0.00000  Uiso   1.00
C160   C     0.99972   0.04233   0.25039   0.00000  Uiso   1.00
C161   C     0.84778   0.15022   0.28501   0.00000  Uiso   1.00
C162   C     0.81902   0.18233   0.21461   0.00000  Uiso   1.00
C163   C     0.79824   0.15048   0.28512   0.00000  Uiso   1.00
C164   C     0.86845   0.18270   0.21481   0.00000  Uiso   1.00
C165   C     0.97274   0.16655   0.33605   0.00000  Uiso   1.00
C166   C     0.69393   0.16727   0.16398   0.00000  Uiso   1.00
C167   C     0.95775   0.16593   0.38518   0.00000  Uiso   1.00
C168   C     0.66671   0.24585   0.24992   0.00000  Uiso   1.00
C169   C     0.70915   0.17163   0.11512   0.00000  Uiso   1.00
C170   C     0.97487   0.15418   0.45637   0.00000  Uiso   1.00
C171   C     0.69428   0.19431   0.04580   0.00000  Uiso   1.00
C172   C     0.99085   0.15723   0.40993   0.00000  Uiso   1.00
C173   C     0.67721   0.18596   0.09141   0.00000  Uiso   1.00
C174   C     0.90897   0.17280   0.40734   0.00000  Uiso   1.00
C175   C     0.75784   0.16487   0.09272   0.00000  Uiso   1.00
C176   C     0.89207   0.17098   0.45428   0.00000  Uiso   1.00
C177   C     0.77647   0.17466   0.04715   0.00000  Uiso   1.00
C178   C     0.92584   0.16059   0.47864   0.00000  Uiso   1.00
C179   C     0.86187   0.16114   0.04753   0.00000  Uiso   1.00
C180   C     0.74348   0.18876   0.02353   0.00000  Uiso   1.00
C181   C     0.84247   0.17786   0.47745   0.00000  Uiso   1.00
C182   C     0.82672   0.17083   0.02452   0.00000  Uiso   1.00
C183   C     0.90191   0.04611   0.22474   0.00000  Uiso   1.00
C184   C     0.78866   0.28864   0.22469   0.00000  Uiso   1.00
C185   C     0.87956   0.28560   0.27123   0.00000  Uiso   1.00
C186   C     0.76297   0.04365   0.27844   0.00000  Uiso   1.00
C187   C     0.80827   0.19211   0.45530   0.00000  Uiso   1.00
C188   C     0.91038   0.15631   0.02494   0.00000  Uiso   1.00
C189   C     0.75989   0.19762   0.47806   0.00000  Uiso   1.00
C190   C     0.95531   0.02044   0.26022   0.00000  Uiso   1.00
C191   C     0.71050   0.31172   0.23403   0.00000  Uiso   1.00
C192   C     0.95588   0.31137   0.26601   0.00000  Uiso   1.00
Cu193  Cu    0.71355   0.16667   0.25000   0.00000  Uiso   1.00
Cu194  Cu    0.95311   0.16666   0.25000   0.00000  Uiso   1.00
H195   H     0.93593   0.14864   0.04393   0.00000  Uiso   1.00
H196   H     0.89521   0.19586   0.18669   0.00000  Uiso   1.00
H197   H     0.97278   0.19166   0.10826   0.00000  Uiso   1.00
H198   H     0.69540   0.15168   0.39338   0.00000  Uiso   1.00
H199   H     0.66743   0.14617   0.47484   0.00000  Uiso   1.00
H200   H     0.66917   0.20589   0.02806   0.00000  Uiso   1.00
H201   H     0.93415   0.05699   0.19822   0.00000  Uiso   1.00
H202   H     0.87363   0.06985   0.22802   0.00000  Uiso   1.00
H203   H     0.88838   0.01759   0.21308   0.00000  Uiso   1.00
H204   H     0.81343   0.26475   0.20645   0.00000  Uiso   1.00
H205   H     0.77669   0.27930   0.26058   0.00000  Uiso   1.00
H206   H     0.73507   0.20885   0.45980   0.00000  Uiso   1.00
H207   H     0.81052   0.31705   0.21982   0.00000  Uiso   1.00
H208   H     0.85880   0.25757   0.28482   0.00000  Uiso   1.00
H209   H     0.89399   0.28113   0.23439   0.00000  Uiso   1.00
H210   H     0.85371   0.31148   0.27883   0.00000  Uiso   1.00
H211   H     0.73331   0.05999   0.30291   0.00000  Uiso   1.00
H212   H     0.79674   0.06122   0.27547   0.00000  Uiso   1.00
H213   H     0.76771   0.01306   0.29231   0.00000  Uiso   1.00
H214   H     0.78037   0.15176   0.11186   0.00000  Uiso   1.00
H215   H     0.88460   0.17834   0.38696   0.00000  Uiso   1.00
H216   H     0.85350   0.15798   0.08337   0.00000  Uiso   1.00
H217   H     0.81778   0.20056   0.42043   0.00000  Uiso   1.00
H218   H     0.85795   0.13664   0.31298   0.00000  Uiso   1.00
H219   H     0.80901   0.19493   0.18609   0.00000  Uiso   1.00
H220   H     0.77147   0.13733   0.31324   0.00000  Uiso   1.00
N221   N     0.78403   0.16668   0.24999   0.00000  Uiso   1.00
N222   N     0.88264   0.16666   0.25001   0.00000  Uiso   1.00
O223   O     0.70625   0.10655   0.25000   0.00000  Uiso   1.00
O224   O     0.74977   0.29229   0.20523   0.00000  Uiso   1.00
O225   O     0.91605   0.29123   0.29340   0.00000  Uiso   1.00
O226   O     0.75444   0.04081   0.23556   0.00000  Uiso   1.00
O227   O     0.96042   0.22678   0.25000   0.00000  Uiso   1.00
O228   O     0.96039   0.10654   0.25000   0.00000  Uiso   1.00
O229   O     0.70628   0.22679   0.24999   0.00000  Uiso   1.00
O230   O     0.68519   0.16668   0.31491   0.00000  Uiso   1.00
O231   O     0.98148   0.16666   0.18508   0.00000  Uiso   1.00
O232   O     0.93933   0.16667   0.31492   0.00000  Uiso   1.00
O233   O     0.72733   0.16667   0.18508   0.00000  Uiso   1.00
O234   O     0.91134   0.04034   0.26699   0.00000  Uiso   1.00
C235   C     0.33320   0.42059   0.25024   0.00000  Uiso   1.00
C236   C     0.04411   0.35404   0.24059   0.00000  Uiso   1.00
C237   C     0.33326   0.62367   0.24997   0.00000  Uiso   1.00
C238   C     0.33305   0.37566   0.25039   0.00000  Uiso   1.00
C239   C     0.18111   0.48355   0.28501   0.00000  Uiso   1.00
C240   C     0.15235   0.51566   0.21461   0.00000  Uiso   1.00
C241   C     0.13158   0.48382   0.28512   0.00000  Uiso   1.00
C242   C     0.20178   0.51604   0.21481   0.00000  Uiso   1.00
C243   C     0.30608   0.49989   0.33605   0.00000  Uiso   1.00
C244   C     0.02726   0.50060   0.16398   0.00000  Uiso   1.00
C245   C     0.29108   0.49926   0.38518   0.00000  Uiso   1.00
C246   C     0.00004   0.57918   0.24992   0.00000  Uiso   1.00
C247   C     0.04249   0.50496   0.11512   0.00000  Uiso   1.00
C248   C     0.30821   0.48751   0.45637   0.00000  Uiso   1.00
C249   C     0.02761   0.52765   0.04580   0.00000  Uiso   1.00
C250   C     0.32418   0.49056   0.40993   0.00000  Uiso   1.00
C251   C     0.01054   0.51929   0.09141   0.00000  Uiso   1.00
C252   C     0.24230   0.50614   0.40734   0.00000  Uiso   1.00
C253   C     0.09117   0.49820   0.09272   0.00000  Uiso   1.00
C254   C     0.22541   0.50431   0.45428   0.00000  Uiso   1.00
C255   C     0.10980   0.50799   0.04715   0.00000  Uiso   1.00
C256   C     0.25917   0.49392   0.47864   0.00000  Uiso   1.00
C257   C     0.19520   0.49447   0.04753   0.00000  Uiso   1.00
C258   C     0.07681   0.52210   0.02353   0.00000  Uiso   1.00
C259   C     0.17580   0.51119   0.47745   0.00000  Uiso   1.00
C260   C     0.16005   0.50416   0.02452   0.00000  Uiso   1.00
C261   C     0.23524   0.37944   0.22474   0.00000  Uiso   1.00
C262   C     0.12200   0.62197   0.22469   0.00000  Uiso   1.00
C263   C     0.21289   0.61893   0.27123   0.00000  Uiso   1.00
C264   C     0.09630   0.37698   0.27844   0.00000  Uiso   1.00
C265   C     0.14160   0.52544   0.45530   0.00000  Uiso   1.00
C266   C     0.24372   0.48965   0.02494   0.00000  Uiso   1.00
C267   C     0.09322   0.53096   0.47806   0.00000  Uiso   1.00
C268   C     0.28865   0.35377   0.26022   0.00000  Uiso   1.00
C269   C     0.04383   0.64506   0.23403   0.00000  Uiso   1.00
C270   C     0.28921   0.64471   0.26601   0.00000  Uiso   1.00
Cu271  Cu    0.04689   0.50001   0.25000   0.00000  Uiso   1.00
Cu272  Cu    0.28645   0.49999   0.25000   0.00000  Uiso   1.00
H273   H     0.26926   0.48197   0.04393   0.00000  Uiso   1.00
H274   H     0.22855   0.52920   0.18669   0.00000  Uiso   1.00
H275   H     0.30611   0.52500   0.10826   0.00000  Uiso   1.00
H276   H     0.02873   0.48501   0.39338   0.00000  Uiso   1.00
H277   H     0.00076   0.47950   0.47484   0.00000  Uiso   1.00
H278   H     0.00251   0.53923   0.02806   0.00000  Uiso   1.00
H279   H     0.26748   0.39032   0.19822   0.00000  Uiso   1.00
H280   H     0.20696   0.40319   0.22802   0.00000  Uiso   1.00
H281   H     0.22171   0.35092   0.21308   0.00000  Uiso   1.00
H282   H     0.14676   0.59809   0.20645   0.00000  Uiso   1.00
H283   H     0.11003   0.61263   0.26058   0.00000  Uiso   1.00
H284   H     0.06840   0.54219   0.45980   0.00000  Uiso   1.00
H285   H     0.14385   0.65038   0.21982   0.00000  Uiso   1.00
H286   H     0.19214   0.59091   0.28482   0.00000  Uiso   1.00
H287   H     0.22733   0.61447   0.23439   0.00000  Uiso   1.00
H288   H     0.18704   0.64481   0.27883   0.00000  Uiso   1.00
H289   H     0.06665   0.39332   0.30291   0.00000  Uiso   1.00
H290   H     0.13008   0.39455   0.27547   0.00000  Uiso   1.00
H291   H     0.10104   0.34640   0.29231   0.00000  Uiso   1.00
H292   H     0.11370   0.48510   0.11186   0.00000  Uiso   1.00
H293   H     0.21793   0.51167   0.38696   0.00000  Uiso   1.00
H294   H     0.18683   0.49131   0.08337   0.00000  Uiso   1.00
H295   H     0.15112   0.53389   0.42043   0.00000  Uiso   1.00
H296   H     0.19129   0.46997   0.31298   0.00000  Uiso   1.00
H297   H     0.14235   0.52827   0.18609   0.00000  Uiso   1.00
H298   H     0.10480   0.47066   0.31324   0.00000  Uiso   1.00
N299   N     0.11736   0.50001   0.24999   0.00000  Uiso   1.00
N300   N     0.21597   0.49999   0.25001   0.00000  Uiso   1.00
O301   O     0.03958   0.43989   0.25000   0.00000  Uiso   1.00
O302   O     0.08310   0.62562   0.20523   0.00000  Uiso   1.00
O303   O     0.24939   0.62456   0.29340   0.00000  Uiso   1.00
O304   O     0.08778   0.37414   0.23556   0.00000  Uiso   1.00
O305   O     0.29375   0.56011   0.25000   0.00000  Uiso   1.00
O306   O     0.29372   0.43988   0.25000   0.00000  Uiso   1.00
O307   O     0.03961   0.56012   0.24999   0.00000  Uiso   1.00
O308   O     0.01852   0.50001   0.31491   0.00000  Uiso   1.00
O309   O     0.31481   0.49999   0.18508   0.00000  Uiso   1.00
O310   O     0.27267   0.50000   0.31492   0.00000  Uiso   1.00
O311   O     0.06067   0.50000   0.18508   0.00000  Uiso   1.00
O312   O     0.24467   0.37368   0.26699   0.00000  Uiso   1.00
C313   C     0.66653   0.42059   0.25024   0.00000  Uiso   1.00
C314   C     0.37745   0.35404   0.24059   0.00000  Uiso   1.00
C315   C     0.66659   0.62367   0.24997   0.00000  Uiso   1.00
C316   C     0.66639   0.37566   0.25039   0.00000  Uiso   1.00
C317   C     0.51445   0.48355   0.28501   0.00000  Uiso   1.00
C318   C     0.48569   0.51566   0.21461   0.00000  Uiso   1.00
C319   C     0.46491   0.48382   0.28512   0.00000  Uiso   1.00
C320   C     0.53512   0.51604   0.21481   0.00000  Uiso   1.00
C321   C     0.63941   0.49989   0.33605   0.00000  Uiso   1.00
C322   C     0.36059   0.50060   0.16398   0.00000  Uiso   1.00
C323   C     0.62442   0.49926   0.38518   0.00000  Uiso   1.00
C324   C     0.33337   0.57918   0.24992   0.00000  Uiso   1.00
C325   C     0.37582   0.50496   0.11512   0.00000  Uiso   1.00
C326   C     0.64154   0.48751   0.45637   0.00000  Uiso   1.00
C327   C     0.36095   0.52765   0.04580   0.00000  Uiso   1.00
C328   C     0.65752   0.49056   0.40993   0.00000  Uiso   1.00
C329   C     0.34388   0.51929   0.09141   0.00000  Uiso   1.00
C330   C     0.57564   0.50614   0.40734   0.00000  Uiso   1.00
C331   C     0.42450   0.49820   0.09272   0.00000  Uiso   1.00
C332   C     0.55874   0.50431   0.45428   0.00000  Uiso   1.00
C333   C     0.44313   0.50799   0.04715   0.00000  Uiso   1.00
C334   C     0.59251   0.49392   0.47864   0.00000  Uiso   1.00
C335   C     0.52854   0.49447   0.04753   0.00000  Uiso   1.00
C336   C     0.41015   0.52210   0.02353   0.00000  Uiso   1.00
C337   C     0.50913   0.51119   0.47745   0.00000  Uiso   1.00
C338   C     0.49338   0.50416   0.02452   0.00000  Uiso   1.00
C339   C     0.56858   0.37944   0.22474   0.00000  Uiso   1.00
C340   C     0.45533   0.62197   0.22469   0.00000  Uiso   1.00
C341   C     0.54622   0.61893   0.27123   0.00000  Uiso   1.00
C342   C     0.42963   0.37698   0.27844   0.00000  Uiso   1.00
C343   C     0.47493   0.52544   0.45530   0.00000  Uiso   1.00
C344   C     0.57705   0.48965   0.02494   0.00000  Uiso   1.00
C345   C     0.42656   0.53096   0.47806   0.00000  Uiso   1.00
C346   C     0.62198   0.35377   0.26022   0.00000  Uiso   1.00
C347   C     0.37716   0.64506   0.23403   0.00000  Uiso   1.00
C348   C     0.62255   0.64471   0.26601   0.00000  Uiso   1.00
Cu349  Cu    0.38022   0.50001   0.25000   0.00000  Uiso   1.00
Cu350  Cu    0.61978   0.49999   0.25000   0.00000  Uiso   1.00
H351   H     0.60259   0.48197   0.04393   0.00000  Uiso   1.00
H352   H     0.56188   0.52920   0.18669   0.00000  Uiso   1.00
H353   H     0.63944   0.52500   0.10826   0.00000  Uiso   1.00
H354   H     0.36207   0.48501   0.39338   0.00000  Uiso   1.00
H355   H     0.33410   0.47950   0.47484   0.00000  Uiso   1.00
H356   H     0.33584   0.53923   0.02806   0.00000  Uiso   1.00
H357   H     0.60081   0.39032   0.19822   0.00000  Uiso   1.00
H358   H     0.54029   0.40319   0.22802   0.00000  Uiso   1.00
H359   H     0.55505   0.35092   0.21308   0.00000  Uiso   1.00
H360   H     0.48009   0.59809   0.20645   0.00000  Uiso   1.00
H361   H     0.44336   0.61263   0.26058   0.00000  Uiso   1.00
H362   H     0.40173   0.54219   0.45980   0.00000  Uiso   1.00
H363   H     0.47718   0.65038   0.21982   0.00000  Uiso   1.00
H364   H     0.52547   0.59091   0.28482   0.00000  Uiso   1.00
H365   H     0.56066   0.61447   0.23439   0.00000  Uiso   1.00
H366   H     0.52038   0.64481   0.27883   0.00000  Uiso   1.00
H367   H     0.39998   0.39332   0.30291   0.00000  Uiso   1.00
H368   H     0.46341   0.39455   0.27547   0.00000  Uiso   1.00
H369   H     0.43438   0.34640   0.29231   0.00000  Uiso   1.00
H370   H     0.44704   0.48510   0.11186   0.00000  Uiso   1.00
H371   H     0.55127   0.51167   0.38696   0.00000  Uiso   1.00
H372   H     0.52017   0.49131   0.08337   0.00000  Uiso   1.00
H373   H     0.48445   0.53389   0.42043   0.00000  Uiso   1.00
H374   H     0.52462   0.46997   0.31298   0.00000  Uiso   1.00
H375   H     0.47568   0.52827   0.18609   0.00000  Uiso   1.00
H376   H     0.43813   0.47066   0.31324   0.00000  Uiso   1.00
N377   N     0.45069   0.50001   0.24999   0.00000  Uiso   1.00
N378   N     0.54931   0.49999   0.25001   0.00000  Uiso   1.00
O379   O     0.37291   0.43989   0.25000   0.00000  Uiso   1.00
O380   O     0.41643   0.62562   0.20523   0.00000  Uiso   1.00
O381   O     0.58272   0.62456   0.29340   0.00000  Uiso   1.00
O382   O     0.42111   0.37414   0.23556   0.00000  Uiso   1.00
O383   O     0.62709   0.56011   0.25000   0.00000  Uiso   1.00
O384   O     0.62706   0.43988   0.25000   0.00000  Uiso   1.00
O385   O     0.37294   0.56012   0.24999   0.00000  Uiso   1.00
O386   O     0.35186   0.50001   0.31491   0.00000  Uiso   1.00
O387   O     0.64814   0.49999   0.18508   0.00000  Uiso   1.00
O388   O     0.60600   0.50000   0.31492   0.00000  Uiso   1.00
O389   O     0.39400   0.50000   0.18508   0.00000  Uiso   1.00
O390   O     0.57801   0.37368   0.26699   0.00000  Uiso   1.00
C391   C     0.99986   0.42059   0.25024   0.00000  Uiso   1.00
C392   C     0.71078   0.35404   0.24059   0.00000  Uiso   1.00
C393   C     0.99993   0.62367   0.24997   0.00000  Uiso   1.00
C394   C     0.99972   0.37566   0.25039   0.00000  Uiso   1.00
C395   C     0.84778   0.48355   0.28501   0.00000  Uiso   1.00
C396   C     0.81902   0.51566   0.21461   0.00000  Uiso   1.00
C397   C     0.79824   0.48382   0.28512   0.00000  Uiso   1.00
C398   C     0.86845   0.51604   0.21481   0.00000  Uiso   1.00
C399   C     0.97274   0.49989   0.33605   0.00000  Uiso   1.00
C400   C     0.69393   0.50060   0.16398   0.00000  Uiso   1.00
C401   C     0.95775   0.49926   0.38518   0.00000  Uiso   1.00
C402   C     0.66671   0.57918   0.24992   0.00000  Uiso   1.00
C403   C     0.70915   0.50496   0.11512   0.00000  Uiso   1.00
C404   C     0.97487   0.48751   0.45637   0.00000  Uiso   1.00
C405   C     0.69428   0.52765   0.04580   0.00000  Uiso   1.00
C406   C     0.99085   0.49056   0.40993   0.00000  Uiso   1.00
C407   C     0.67721   0.51929   0.09141   0.00000  Uiso   1.00
C408   C     0.90897   0.50614   0.40734   0.00000  Uiso   1.00
C409   C     0.75784   0.49820   0.09272   0.00000  Uiso   1.00
C410   C     0.89207   0.50431   0.45428   0.00000  Uiso   1.00
C411   C     0.77647   0.50799   0.04715   0.00000  Uiso   1.00
C412   C     0.92584   0.49392   0.47864   0.00000  Uiso   1.00
C413   C     0.86187   0.49447   0.04753   0.00000  Uiso   1.00
C414   C     0.74348   0.52210   0.02353   0.00000  Uiso   1.00
C415   C     0.84247   0.51119   0.47745   0.00000  Uiso   1.00
C416   C     0.82672   0.50416   0.02452   0.00000  Uiso   1.00
C417   C     0.90191   0.37944   0.22474   0.00000  Uiso   1.00
C418   C     0.78866   0.62197   0.22469   0.00000  Uiso   1.00
C419   C     0.87956   0.61893   0.27123   0.00000  Uiso   1.00
C420   C     0.76297   0.37698   0.27844   0.00000  Uiso   1.00
C421   C     0.80827   0.52544   0.45530   0.00000  Uiso   1.00
C422   C     0.91038   0.48965   0.02494   0.00000  Uiso   1.00
C423   C     0.75989   0.53096   0.47806   0.00000  Uiso   1.00
C424   C     0.95531   0.35377   0.26022   0.00000  Uiso   1.00
C425   C     0.71050   0.64506   0.23403   0.00000  Uiso   1.00
C426   C     0.95588   0.64471   0.26601   0.00000  Uiso   1.00
Cu427  Cu    0.71355   0.50001   0.25000   0.00000  Uiso   1.00
Cu428  Cu    0.95311   0.49999   0.25000   0.00000  Uiso   1.00
H429   H     0.93593   0.48197   0.04393   0.00000  Uiso   1.00
H430   H     0.89521   0.52920   0.18669   0.00000  Uiso   1.00
H431   H     0.97278   0.52500   0.10826   0.00000  Uiso   1.00
H432   H     0.69540   0.48501   0.39338   0.00000  Uiso   1.00
H433   H     0.66743   0.47950   0.47484   0.00000  Uiso   1.00
H434   H     0.66917   0.53923   0.02806   0.00000  Uiso   1.00
H435   H     0.93415   0.39032   0.19822   0.00000  Uiso   1.00
H436   H     0.87363   0.40319   0.22802   0.00000  Uiso   1.00
H437   H     0.88838   0.35092   0.21308   0.00000  Uiso   1.00
H438   H     0.81343   0.59809   0.20645   0.00000  Uiso   1.00
H439   H     0.77669   0.61263   0.26058   0.00000  Uiso   1.00
H440   H     0.73507   0.54219   0.45980   0.00000  Uiso   1.00
H441   H     0.81052   0.65038   0.21982   0.00000  Uiso   1.00
H442   H     0.85880   0.59091   0.28482   0.00000  Uiso   1.00
H443   H     0.89399   0.61447   0.23439   0.00000  Uiso   1.00
H444   H     0.85371   0.64481   0.27883   0.00000  Uiso   1.00
H445   H     0.73331   0.39332   0.30291   0.00000  Uiso   1.00
H446   H     0.79674   0.39455   0.27547   0.00000  Uiso   1.00
H447   H     0.76771   0.34640   0.29231   0.00000  Uiso   1.00
H448   H     0.78037   0.48510   0.11186   0.00000  Uiso   1.00
H449   H     0.88460   0.51167   0.38696   0.00000  Uiso   1.00
H450   H     0.85350   0.49131   0.08337   0.00000  Uiso   1.00
H451   H     0.81778   0.53389   0.42043   0.00000  Uiso   1.00
H452   H     0.85795   0.46997   0.31298   0.00000  Uiso   1.00
H453   H     0.80901   0.52827   0.18609   0.00000  Uiso   1.00
H454   H     0.77147   0.47066   0.31324   0.00000  Uiso   1.00
N455   N     0.78403   0.50001   0.24999   0.00000  Uiso   1.00
N456   N     0.88264   0.49999   0.25001   0.00000  Uiso   1.00
O457   O     0.70625   0.43989   0.25000   0.00000  Uiso   1.00
O458   O     0.74977   0.62562   0.20523   0.00000  Uiso   1.00
O459   O     0.91605   0.62456   0.29340   0.00000  Uiso   1.00
O460   O     0.75444   0.37414   0.23556   0.00000  Uiso   1.00
O461   O     0.96042   0.56011   0.25000   0.00000  Uiso   1.00
O462   O     0.96039   0.43988   0.25000   0.00000  Uiso   1.00
O463   O     0.70628   0.56012   0.24999   0.00000  Uiso   1.00
O464   O     0.68519   0.50001   0.31491   0.00000  Uiso   1.00
O465   O     0.98148   0.49999   0.18508   0.00000  Uiso   1.00
O466   O     0.93933   0.50000   0.31492   0.00000  Uiso   1.00
O467   O     0.72733   0.50000   0.18508   0.00000  Uiso   1.00
O468   O     0.91134   0.37368   0.26699   0.00000  Uiso   1.00
C469   C     0.33320   0.75393   0.25024   0.00000  Uiso   1.00
C470   C     0.04411   0.68737   0.24059   0.00000  Uiso   1.00
C471   C     0.33326   0.95700   0.24997   0.00000  Uiso   1.00
C472   C     0.33305   0.70899   0.25039   0.00000  Uiso   1.00
C473   C     0.18111   0.81689   0.28501   0.00000  Uiso   1.00
C474   C     0.15235   0.84900   0.21461   0.00000  Uiso   1.00
C475   C     0.13158   0.81715   0.28512   0.00000  Uiso   1.00
C476   C     0.20178   0.84937   0.21481   0.00000  Uiso   1.00
C477   C     0.30608   0.83322   0.33605   0.00000  Uiso   1.00
C478   C     0.02726   0.83394   0.16398   0.00000  Uiso   1.00
C479   C     0.29108   0.83259   0.38518   0.00000  Uiso   1.00
C480   C     0.00004   0.91252   0.24992   0.00000  Uiso   1.00
C481   C     0.04249   0.83829   0.11512   0.00000  Uiso   1.00
C482   C     0.30821   0.82085   0.45637   0.00000  Uiso   1.00
C483   C     0.02761   0.86098   0.04580   0.00000  Uiso   1.00
C484   C     0.32418   0.82389   0.40993   0.00000  Uiso   1.00
C485   C     0.01054   0.85263   0.09141   0.00000  Uiso   1.00
C486   C     0.24230   0.83947   0.40734   0.00000  Uiso   1.00
C487   C     0.09117   0.83153   0.09272   0.00000  Uiso   1.00
C488   C     0.22541   0.83765   0.45428   0.00000  Uiso   1.00
C489   C     0.10980   0.84132   0.04715   0.00000  Uiso   1.00
C490   C     0.25917   0.82725   0.47864   0.00000  Uiso   1.00
C491   C     0.19520   0.82781   0.04753   0.00000  Uiso   1.00
C492   C     0.07681   0.85543   0.02353   0.00000  Uiso   1.00
C493   C     0.17580   0.84453   0.47745   0.00000  Uiso   1.00
C494   C     0.16005   0.83749   0.02452   0.00000  Uiso   1.00
C495   C     0.23524   0.71277   0.22474   0.00000  Uiso   1.00
C496   C     0.12200   0.95530   0.22469   0.00000  Uiso   1.00
C497   C     0.21289   0.95227   0.27123   0.00000  Uiso   1.00
C498   C     0.09630   0.71032   0.27844   0.00000  Uiso   1.00
C499   C     0.14160   0.85878   0.45530   0.00000  Uiso   1.00
C500   C     0.24372   0.82298   0.02494   0.00000  Uiso   1.00
C501   C     0.09322   0.86429   0.47806   0.00000  Uiso   1.00
C502   C     0.28865   0.68711   0.26022   0.00000  Uiso   1.00
C503   C     0.04383   0.97839   0.23403   0.00000  Uiso   1.00
C504   C     0.28921   0.97804   0.26601   0.00000  Uiso   1.00
Cu505  Cu    0.04689   0.83334   0.25000   0.00000  Uiso   1.00
Cu506  Cu    0.28645   0.83333   0.25000   0.00000  Uiso   1.00
H507   H     0.26926   0.81530   0.04393   0.00000  Uiso   1.00
H508   H     0.22855   0.86253   0.18669   0.00000  Uiso   1.00
H509   H     0.30611   0.85833   0.10826   0.00000  Uiso   1.00
H510   H     0.02873   0.81834   0.39338   0.00000  Uiso   1.00
H511   H     0.00076   0.81283   0.47484   0.00000  Uiso   1.00
H512   H     0.00251   0.87256   0.02806   0.00000  Uiso   1.00
H513   H     0.26748   0.72366   0.19822   0.00000  Uiso   1.00
H514   H     0.20696   0.73652   0.22802   0.00000  Uiso   1.00
H515   H     0.22171   0.68425   0.21308   0.00000  Uiso   1.00
H516   H     0.14676   0.93142   0.20645   0.00000  Uiso   1.00
H517   H     0.11003   0.94597   0.26058   0.00000  Uiso   1.00
H518   H     0.06840   0.87552   0.45980   0.00000  Uiso   1.00
H519   H     0.14385   0.98372   0.21982   0.00000  Uiso   1.00
H520   H     0.19214   0.92424   0.28482   0.00000  Uiso   1.00
H521   H     0.22733   0.94780   0.23439   0.00000  Uiso   1.00
H522   H     0.18704   0.97815   0.27883   0.00000  Uiso   1.00
H523   H     0.06665   0.72665   0.30291   0.00000  Uiso   1.00
H524   H     0.13008   0.72788   0.27547   0.00000  Uiso   1.00
H525   H     0.10104   0.67973   0.29231   0.00000  Uiso   1.00
H526   H     0.11370   0.81843   0.11186   0.00000  Uiso   1.00
H527   H     0.21793   0.84501   0.38696   0.00000  Uiso   1.00
H528   H     0.18683   0.82465   0.08337   0.00000  Uiso   1.00
H529   H     0.15112   0.86722   0.42043   0.00000  Uiso   1.00
H530   H     0.19129   0.80331   0.31298   0.00000  Uiso   1.00
H531   H     0.14235   0.86160   0.18609   0.00000  Uiso   1.00
H532   H     0.10480   0.80399   0.31324   0.00000  Uiso   1.00
N533   N     0.11736   0.83334   0.24999   0.00000  Uiso   1.00
N534   N     0.21597   0.83332   0.25001   0.00000  Uiso   1.00
O535   O     0.03958   0.77322   0.25000   0.00000  Uiso   1.00
O536   O     0.08310   0.95896   0.20523   0.00000  Uiso   1.00
O537   O     0.24939   0.95790   0.29340   0.00000  Uiso   1.00
O538   O     0.08778   0.70748   0.23556   0.00000  Uiso   1.00
O539   O     0.29375   0.89345   0.25000   0.00000  Uiso   1.00
O540   O     0.29372   0.77321   0.25000   0.00000  Uiso   1.00
O541   O     0.03961   0.89346   0.24999   0.00000  Uiso   1.00
O542   O     0.01852   0.83334   0.31491   0.00000  Uiso   1.00
O543   O     0.31481   0.83332   0.18508   0.00000  Uiso   1.00
O544   O     0.27267   0.83333   0.31492   0.00000  Uiso   1.00
O545   O     0.06067   0.83333   0.18508   0.00000  Uiso   1.00
O546   O     0.24467   0.70701   0.26699   0.00000  Uiso   1.00
C547   C     0.66653   0.75393   0.25024   0.00000  Uiso   1.00
C548   C     0.37745   0.68737   0.24059   0.00000  Uiso   1.00
C549   C     0.66659   0.95700   0.24997   0.00000  Uiso   1.00
C550   C     0.66639   0.70899   0.25039   0.00000  Uiso   1.00
C551   C     0.51445   0.81689   0.28501   0.00000  Uiso   1.00
C552   C     0.48569   0.84900   0.21461   0.00000  Uiso   1.00
C553   C     0.46491   0.81715   0.28512   0.00000  Uiso   1.00
C554   C     0.53512   0.84937   0.21481   0.00000  Uiso   1.00
C555   C     0.63941   0.83322   0.33605   0.00000  Uiso   1.00
C556   C     0.36059   0.83394   0.16398   0.00000  Uiso   1.00
C557   C     0.62442   0.83259   0.38518   0.00000  Uiso   1.00
C558   C     0.33337   0.91252   0.24992   0.00000  Uiso   1.00
C559   C     0.37582   0.83829   0.11512   0.00000  Uiso   1.00
C560   C     0.64154   0.82085   0.45637   0.00000  Uiso   1.00
C561   C     0.36095   0.86098   0.04580   0.00000  Uiso   1.00
C562   C     0.65752   0.82389   0.40993   0.00000  Uiso   1.00
C563   C     0.34388   0.85263   0.09141   0.00000  Uiso   1.00
C564   C     0.57564   0.83947   0.40734   0.00000  Uiso   1.00
C565   C     0.42450   0.83153   0.09272   0.00000  Uiso   1.00
C566   C     0.55874   0.83765   0.45428   0.00000  Uiso   1.00
C567   C     0.44313   0.84132   0.04715   0.00000  Uiso   1.00
C568   C     0.59251   0.82725   0.47864   0.00000  Uiso   1.00
C569   C     0.52854   0.82781   0.04753   0.00000  Uiso   1.00
C570   C     0.41015   0.85543   0.02353   0.00000  Uiso   1.00
C571   C     0.50913   0.84453   0.47745   0.00000  Uiso   1.00
C572   C     0.49338   0.83749   0.02452   0.00000  Uiso   1.00
C573   C     0.56858   0.71277   0.22474   0.00000  Uiso   1.00
C574   C     0.45533   0.95530   0.22469   0.00000  Uiso   1.00
C575   C     0.54622   0.95227   0.27123   0.00000  Uiso   1.00
C576   C     0.42963   0.71032   0.27844   0.00000  Uiso   1.00
C577   C     0.47493   0.85878   0.45530   0.00000  Uiso   1.00
C578   C     0.57705   0.82298   0.02494   0.00000  Uiso   1.00
C579   C     0.42656   0.86429   0.47806   0.00000  Uiso   1.00
C580   C     0.62198   0.68711   0.26022   0.00000  Uiso   1.00
C581   C     0.37716   0.97839   0.23403   0.00000  Uiso   1.00
C582   C     0.62255   0.97804   0.26601   0.00000  Uiso   1.00
Cu583  Cu    0.38022   0.83334   0.25000   0.00000  Uiso   1.00
Cu584  Cu    0.61978   0.83333   0.25000   0.00000  Uiso   1.00
H585   H     0.60259   0.81530   0.04393   0.00000  Uiso   1.00
H586   H     0.56188   0.86253   0.18669   0.00000  Uiso   1.00
H587   H     0.63944   0.85833   0.10826   0.00000  Uiso   1.00
H588   H     0.36207   0.81834   0.39338   0.00000  Uiso   1.00
H589   H     0.33410   0.81283   0.47484   0.00000  Uiso   1.00
H590   H     0.33584   0.87256   0.02806   0.00000  Uiso   1.00
H591   H     0.60081   0.72366   0.19822   0.00000  Uiso   1.00
H592   H     0.54029   0.73652   0.22802   0.00000  Uiso   1.00
H593   H     0.55505   0.68425   0.21308   0.00000  Uiso   1.00
H594   H     0.48009   0.93142   0.20645   0.00000  Uiso   1.00
H595   H     0.44336   0.94597   0.26058   0.00000  Uiso   1.00
H596   H     0.40173   0.87552   0.45980   0.00000  Uiso   1.00
H597   H     0.47718   0.98372   0.21982   0.00000  Uiso   1.00
H598   H     0.52547   0.92424   0.28482   0.00000  Uiso   1.00
H599   H     0.56066   0.94780   0.23439   0.00000  Uiso   1.00
H600   H     0.52038   0.97815   0.27883   0.00000  Uiso   1.00
H601   H     0.39998   0.72665   0.30291   0.00000  Uiso   1.00
H602   H     0.46341   0.72788   0.27547   0.00000  Uiso   1.00
H603   H     0.43438   0.67973   0.29231   0.00000  Uiso   1.00
H604   H     0.44704   0.81843   0.11186   0.00000  Uiso   1.00
H605   H     0.55127   0.84501   0.38696   0.00000  Uiso   1.00
H606   H     0.52017   0.82465   0.08337   0.00000  Uiso   1.00
H607   H     0.48445   0.86722   0.42043   0.00000  Uiso   1.00
H608   H     0.52462   0.80331   0.31298   0.00000  Uiso   1.00
H609   H     0.47568   0.86160   0.18609   0.00000  Uiso   1.00
H610   H     0.43813   0.80399   0.31324   0.00000  Uiso   1.00
N611   N     0.45069   0.83334   0.24999   0.00000  Uiso   1.00
N612   N     0.54931   0.83332   0.25001   0.00000  Uiso   1.00
O613   O     0.37291   0.77322   0.25000   0.00000  Uiso   1.00
O614   O     0.41643   0.95896   0.20523   0.00000  Uiso   1.00
O615   O     0.58272   0.95790   0.29340   0.00000  Uiso   1.00
O616   O     0.42111   0.70748   0.23556   0.00000  Uiso   1.00
O617   O     0.62709   0.89345   0.25000   0.00000  Uiso   1.00
O618   O     0.62706   0.77321   0.25000   0.00000  Uiso   1.00
O619   O     0.37294   0.89346   0.24999   0.00000  Uiso   1.00
O620   O     0.35186   0.83334   0.31491   0.00000  Uiso   1.00
O621   O     0.64814   0.83332   0.18508   0.00000  Uiso   1.00
O622   O     0.60600   0.83333   0.31492   0.00000  Uiso   1.00
O623   O     0.39400   0.83333   0.18508   0.00000  Uiso   1.00
O624   O     0.57801   0.70701   0.26699   0.00000  Uiso   1.00
C625   C     0.99986   0.75393   0.25024   0.00000  Uiso   1.00
C626   C     0.71078   0.68737   0.24059   0.00000  Uiso   1.00
C627   C     0.99993   0.95700   0.24997   0.00000  Uiso   1.00
C628   C     0.99972   0.70899   0.25039   0.00000  Uiso   1.00
C629   C     0.84778   0.81689   0.28501   0.00000  Uiso   1.00
C630   C     0.81902   0.84900   0.21461   0.00000  Uiso   1.00
C631   C     0.79824   0.81715   0.28512   0.00000  Uiso   1.00
C632   C     0.86845   0.84937   0.21481   0.00000  Uiso   1.00
C633   C     0.97274   0.83322   0.33605   0.00000  Uiso   1.00
C634   C     0.69393   0.83394   0.16398   0.00000  Uiso   1.00
C635   C     0.95775   0.83259   0.38518   0.00000  Uiso   1.00
C636   C     0.66671   0.91252   0.24992   0.00000  Uiso   1.00
C637   C     0.70915   0.83829   0.11512   0.00000  Uiso   1.00
C638   C     0.97487   0.82085   0.45637   0.00000  Uiso   1.00
C639   C     0.69428   0.86098   0.04580   0.00000  Uiso   1.00
C640   C     0.99085   0.82389   0.40993   0.00000  Uiso   1.00
C641   C     0.67721   0.85263   0.09141   0.00000  Uiso   1.00
C642   C     0.90897   0.83947   0.40734   0.00000  Uiso   1.00
C643   C     0.75784   0.83153   0.09272   0.00000  Uiso   1.00
C644   C     0.89207   0.83765   0.45428   0.00000  Uiso   1.00
C645   C     0.77647   0.84132   0.04715   0.00000  Uiso   1.00
C646   C     0.92584   0.82725   0.47864   0.00000  Uiso   1.00
C647   C     0.86187   0.82781   0.04753   0.00000  Uiso   1.00
C648   C     0.74348   0.85543   0.02353   0.00000  Uiso   1.00
C649   C     0.84247   0.84453   0.47745   0.00000  Uiso   1.00
C650   C     0.82672   0.83749   0.02452   0.00000  Uiso   1.00
C651   C     0.90191   0.71277   0.22474   0.00000  Uiso   1.00
C652   C     0.78866   0.95530   0.22469   0.00000  Uiso   1.00
C653   C     0.87956   0.95227   0.27123   0.00000  Uiso   1.00
C654   C     0.76297   0.71032   0.27844   0.00000  Uiso   1.00
C655   C     0.80827   0.85878   0.45530   0.00000  Uiso   1.00
C656   C     0.91038   0.82298   0.02494   0.00000  Uiso   1.00
C657   C     0.75989   0.86429   0.47806   0.00000  Uiso   1.00
C658   C     0.95531   0.68711   0.26022   0.00000  Uiso   1.00
C659   C     0.71050   0.97839   0.23403   0.00000  Uiso   1.00
C660   C     0.95588   0.97804   0.26601   0.00000  Uiso   1.00
Cu661  Cu    0.71355   0.83334   0.25000   0.00000  Uiso   1.00
Cu662  Cu    0.95311   0.83333   0.25000   0.00000  Uiso   1.00
H663   H     0.93593   0.81530   0.04393   0.00000  Uiso   1.00
H664   H     0.89521   0.86253   0.18669   0.00000  Uiso   1.00
H665   H     0.97278   0.85833   0.10826   0.00000  Uiso   1.00
H666   H     0.69540   0.81834   0.39338   0.00000  Uiso   1.00
H667   H     0.66743   0.81283   0.47484   0.00000  Uiso   1.00
H668   H     0.66917   0.87256   0.02806   0.00000  Uiso   1.00
H669   H     0.93415   0.72366   0.19822   0.00000  Uiso   1.00
H670   H     0.87363   0.73652   0.22802   0.00000  Uiso   1.00
H671   H     0.88838   0.68425   0.21308   0.00000  Uiso   1.00
H672   H     0.81343   0.93142   0.20645   0.00000  Uiso   1.00
H673   H     0.77669   0.94597   0.26058   0.00000  Uiso   1.00
H674   H     0.73507   0.87552   0.45980   0.00000  Uiso   1.00
H675   H     0.81052   0.98372   0.21982   0.00000  Uiso   1.00
H676   H     0.85880   0.92424   0.28482   0.00000  Uiso   1.00
H677   H     0.89399   0.94780   0.23439   0.00000  Uiso   1.00
H678   H     0.85371   0.97815   0.27883   0.00000  Uiso   1.00
H679   H     0.73331   0.72665   0.30291   0.00000  Uiso   1.00
H680   H     0.79674   0.72788   0.27547   0.00000  Uiso   1.00
H681   H     0.76771   0.67973   0.29231   0.00000  Uiso   1.00
H682   H     0.78037   0.81843   0.11186   0.00000  Uiso   1.00
H683   H     0.88460   0.84501   0.38696   0.00000  Uiso   1.00
H684   H     0.85350   0.82465   0.08337   0.00000  Uiso   1.00
H685   H     0.81778   0.86722   0.42043   0.00000  Uiso   1.00
H686   H     0.85795   0.80331   0.31298   0.00000  Uiso   1.00
H687   H     0.80901   0.86160   0.18609   0.00000  Uiso   1.00
H688   H     0.77147   0.80399   0.31324   0.00000  Uiso   1.00
N689   N     0.78403   0.83334   0.24999   0.00000  Uiso   1.00
N690   N     0.88264   0.83332   0.25001   0.00000  Uiso   1.00
O691   O     0.70625   0.77322   0.25000   0.00000  Uiso   1.00
O692   O     0.74977   0.95896   0.20523   0.00000  Uiso   1.00
O693   O     0.91605   0.95790   0.29340   0.00000  Uiso   1.00
O694   O     0.75444   0.70748   0.23556   0.00000  Uiso   1.00
O695   O     0.96042   0.89345   0.25000   0.00000  Uiso   1.00
O696   O     0.96039   0.77321   0.25000   0.00000  Uiso   1.00
O697   O     0.70628   0.89346   0.24999   0.00000  Uiso   1.00
O698   O     0.68519   0.83334   0.31491   0.00000  Uiso   1.00
O699   O     0.98148   0.83332   0.18508   0.00000  Uiso   1.00
O700   O     0.93933   0.83333   0.31492   0.00000  Uiso   1.00
O701   O     0.72733   0.83333   0.18508   0.00000  Uiso   1.00
O702   O     0.91134   0.70701   0.26699   0.00000  Uiso   1.00
C703   C     0.33320   0.08726   0.75024   0.00000  Uiso   1.00
C704   C     0.04411   0.02071   0.74059   0.00000  Uiso   1.00
C705   C     0.33326   0.29034   0.74997   0.00000  Uiso   1.00
C706   C     0.33305   0.04233   0.75039   0.00000  Uiso   1.00
C707   C     0.18111   0.15022   0.78501   0.00000  Uiso   1.00
C708   C     0.15235   0.18233   0.71461   0.00000  Uiso   1.00
C709   C     0.13158   0.15048   0.78512   0.00000  Uiso   1.00
C710   C     0.20178   0.18270   0.71481   0.00000  Uiso   1.00
C711   C     0.30608   0.16655   0.83605   0.00000  Uiso   1.00
C712   C     0.02726   0.16727   0.66398   0.00000  Uiso   1.00
C713   C     0.29108   0.16593   0.88518   0.00000  Uiso   1.00
C714   C     0.00004   0.24585   0.74992   0.00000  Uiso   1.00
C715   C     0.04249   0.17163   0.61512   0.00000  Uiso   1.00
C716   C     0.30821   0.15418   0.95637   0.00000  Uiso   1.00
C717   C     0.02761   0.19431   0.54580   0.00000  Uiso   1.00
C718   C     0.32418   0.15723   0.90993   0.00000  Uiso   1.00
C719   C     0.01054   0.18596   0.59141   0.00000  Uiso   1.00
C720   C     0.24230   0.17280   0.90734   0.00000  Uiso   1.00
C721   C     0.09117   0.16487   0.59272   0.00000  Uiso   1.00
C722   C     0.22541   0.17098   0.95428   0.00000  Uiso   1.00
C723   C     0.10980   0.17466   0.54715   0.00000  Uiso   1.00
C724   C     0.25917   0.16059   0.97864   0.00000  Uiso   1.00
C725   C     0.19520   0.16114   0.54753   0.00000  Uiso   1.00
C726   C     0.07681   0.18876   0.52353   0.00000  Uiso   1.00
C727   C     0.17580   0.17786   0.97745   0.00000  Uiso   1.00
C728   C     0.16005   0.17083   0.52452   0.00000  Uiso   1.00
C729   C     0.23524   0.04611   0.72474   0.00000  Uiso   1.00
C730   C     0.12200   0.28864   0.72469   0.00000  Uiso   1.00
C731   C     0.21289   0.28560   0.77123   0.00000  Uiso   1.00
C732   C     0.09630   0.04365   0.77844   0.00000  Uiso   1.00
C733   C     0.14160   0.19211   0.95530   0.00000  Uiso   1.00
C734   C     0.24372   0.15631   0.52494   0.00000  Uiso   1.00
C735   C     0.09322   0.19762   0.97806   0.00000  Uiso   1.00
C736   C     0.28865   0.02044   0.76022   0.00000  Uiso   1.00
C737   C     0.04383   0.31172   0.73403   0.00000  Uiso   1.00
C738   C     0.28921   0.31137   0.76601   0.00000  Uiso   1.00
Cu739  Cu    0.04689   0.16667   0.75000   0.00000  Uiso   1.00
Cu740  Cu    0.28645   0.16666   0.75000   0.00000  Uiso   1.00
H741   H     0.26926   0.14864   0.54393   0.00000  Uiso   1.00
H742   H     0.22855   0.19586   0.68669   0.00000  Uiso   1.00
H743   H     0.30611   0.19166   0.60826   0.00000  Uiso   1.00
H744   H     0.02873   0.15168   0.89338   0.00000  Uiso   1.00
H745   H     0.00076   0.14617   0.97484   0.00000  Uiso   1.00
H746   H     0.00251   0.20589   0.52806   0.00000  Uiso   1.00
H747   H     0.26748   0.05699   0.69822   0.00000  Uiso   1.00
H748   H     0.20696   0.06985   0.72802   0.00000  Uiso   1.00
H749   H     0.22171   0.01759   0.71308   0.00000  Uiso   1.00
H750   H     0.14676   0.26475   0.70645   0.00000  Uiso   1.00
H751   H     0.11003   0.27930   0.76058   0.00000  Uiso   1.00
H752   H     0.06840   0.20885   0.95980   0.00000  Uiso   1.00
H753   H     0.14385   0.31705   0.71982   0.00000  Uiso   1.00
H754   H     0.19214   0.25757   0.78482   0.00000  Uiso   1.00
H755   H     0.22733   0.28113   0.73439   0.00000  Uiso   1.00
H756   H     0.18704   0.31148   0.77883   0.00000  Uiso   1.00
H757   H     0.06665   0.05999   0.80291   0.00000  Uiso   1.00
H758   H     0.13008   0.06122   0.77547   0.00000  Uiso   1.00
H759   H     0.10104   0.01306   0.79231   0.00000  Uiso   1.00
H760   H     0.11370   0.15176   0.61186   0.00000  Uiso   1.00
H761   H     0.21793   0.17834   0.88696   0.00000  Uiso   1.00
H762   H     0.18683   0.15798   0.58337   0.00000  Uiso   1.00
H763   H     0.15112   0.20056   0.92043   0.00000  Uiso   1.00
H764   H     0.19129   0.13664   0.81298   0.00000  Uiso   1.00
H765   H     0.14235   0.19493   0.68609   0.00000  Uiso   1.00
H766   H     0.10480   0.13733   0.81324   0.00000  Uiso   1.00
N767   N     0.11736   0.16668   0.74999   0.00000  Uiso   1.00
N768   N     0.21597   0.16666   0.75001   0.00000  Uiso   1.00
O769   O     0.03958   0.10655   0.75000   0.00000  Uiso   1.00
O770   O     0.08310   0.29229   0.70523   0.00000  Uiso   1.00
O771   O     0.24939   0.29123   0.79340   0.00000  Uiso   1.00
O772   O     0.08778   0.04081   0.73556   0.00000  Uiso   1.00
O773   O     0.29375   0.22678   0.75000   0.00000  Uiso   1.00
O774   O     0.29372   0.10654   0.75000   0.00000  Uiso   1.00
O775   O     0.03961   0.22679   0.74999   0.00000  Uiso   1.00
O776   O     0.01852   0.16668   0.81491   0.00000  Uiso   1.00
O777   O     0.31481   0.16666   0.68508   0.00000  Uiso   1.00
O778   O     0.27267   0.16667   0.81492   0.00000  Uiso   1.00
O779   O     0.06067   0.16667   0.68508   0.00000  Uiso   1.00
O780   O     0.24467   0.04034   0.76699   0.00000  Uiso   1.00
C781   C     0.66653   0.08726   0.75024   0.00000  Uiso   1.00
C782   C     0.37745   0.02071   0.74059   0.00000  Uiso   1.00
C783   C     0.66659   0.29034   0.74997   0.00000  Uiso   1.00
C784   C     0.66639   0.04233   0.75039   0.00000  Uiso   1.00
C785   C     0.51445   0.15022   0.78501   0.00000  Uiso   1.00
C786   C     0.48569   0.18233   0.71461   0.00000  Uiso   1.00
C787   C     0.46491   0.15048   0.78512   0.00000  Uiso   1.00
C788   C     0.53512   0.18270   0.71481   0.00000  Uiso   1.00
C789   C     0.63941   0.16655   0.83605   0.00000  Uiso   1.00
C790   C     0.36059   0.16727   0.66398   0.00000  Uiso   1.00
C791   C     0.62442   0.16593   0.88518   0.00000  Uiso   1.00
C792   C     0.33337   0.24585   0.74992   0.00000  Uiso   1.00
C793   C     0.37582   0.17163   0.61512   0.00000  Uiso   1.00
C794   C     0.64154   0.15418   0.95637   0.00000  Uiso   1.00
C795   C     0.36095   0.19431   0.54580   0.00000  Uiso   1.00
C796   C     0.65752   0.15723   0.90993   0.00000  Uiso   1.00
C797   C     0.34388   0.18596   0.59141   0.00000  Uiso   1.00
C798   C     0.57564   0.17280   0.90734   0.00000  Uiso   1.00
C799   C     0.42450   0.16487   0.59272   0.00000  Uiso   1.00
C800   C     0.55874   0.17098   0.95428   0.00000  Uiso   1.00
C801   C     0.44313   0.17466   0.54715   0.00000  Uiso   1.00
C802   C     0.59251   0.16059   0.97864   0.00000  Uiso   1.00
C803   C     0.52854   0.16114   0.54753   0.00000  Uiso   1.00
C804   C     0.41015   0.18876   0.52353   0.00000  Uiso   1.00
C805   C     0.50913   0.17786   0.97745   0.00000  Uiso   1.00
C806   C     0.49338   0.17083   0.52452   0.00000  Uiso   1.00
C807   C     0.56858   0.04611   0.72474   0.00000  Uiso   1.00
C808   C     0.45533   0.28864   0.72469   0.00000  Uiso   1.00
C809   C     0.54622   0.28560   0.77123   0.00000  Uiso   1.00
C810   C     0.42963   0.04365   0.77844   0.00000  Uiso   1.00
C811   C     0.47493   0.19211   0.95530   0.00000  Uiso   1.00
C812   C     0.57705   0.15631   0.52494   0.00000  Uiso   1.00
C813   C     0.42656   0.19762   0.97806   0.00000  Uiso   1.00
C814   C     0.62198   0.02044   0.76022   0.00000  Uiso   1.00
C815   C     0.37716   0.31172   0.73403   0.00000  Uiso   1.00
C816   C     0.62255   0.31137   0.76601   0.00000  Uiso   1.00
Cu817  Cu    0.38022   0.16667   0.75000   0.00000  Uiso   1.00
Cu818  Cu    0.61978   0.16666   0.75000   0.00000  Uiso   1.00
H819   H     0.60259   0.14864   0.54393   0.00000  Uiso   1.00
H820   H     0.56188   0.19586   0.68669   0.00000  Uiso   1.00
H821   H     0.63944   0.19166   0.60826   0.00000  Uiso   1.00
H822   H     0.36207   0.15168   0.89338   0.00000  Uiso   1.00
H823   H     0.33410   0.14617   0.97484   0.00000  Uiso   1.00
H824   H     0.33584   0.20589   0.52806   0.00000  Uiso   1.00
H825   H     0.60081   0.05699   0.69822   0.00000  Uiso   1.00
H826   H     0.54029   0.06985   0.72802   0.00000  Uiso   1.00
H827   H     0.55505   0.01759   0.71308   0.00000  Uiso   1.00
H828   H     0.48009   0.26475   0.70645   0.00000  Uiso   1.00
H829   H     0.44336   0.27930   0.76058   0.00000  Uiso   1.00
H830   H     0.40173   0.20885   0.95980   0.00000  Uiso   1.00
H831   H     0.47718   0.31705   0.71982   0.00000  Uiso   1.00
H832   H     0.52547   0.25757   0.78482   0.00000  Uiso   1.00
H833   H     0.56066   0.28113   0.73439   0.00000  Uiso   1.00
H834   H     0.52038   0.31148   0.77883   0.00000  Uiso   1.00
H835   H     0.39998   0.05999   0.80291   0.00000  Uiso   1.00
H836   H     0.46341   0.06122   0.77547   0.00000  Uiso   1.00
H837   H     0.43438   0.01306   0.79231   0.00000  Uiso   1.00
H838   H     0.44704   0.15176   0.61186   0.00000  Uiso   1.00
H839   H     0.55127   0.17834   0.88696   0.00000  Uiso   1.00
H840   H     0.52017   0.15798   0.58337   0.00000  Uiso   1.00
H841   H     0.48445   0.20056   0.92043   0.00000  Uiso   1.00
H842   H     0.52462   0.13664   0.81298   0.00000  Uiso   1.00
H843   H     0.47568   0.19493   0.68609   0.00000  Uiso   1.00
H844   H     0.43813   0.13733   0.81324   0.00000  Uiso   1.00
N845   N     0.45069   0.16668   0.74999   0.00000  Uiso   1.00
N846   N     0.54931   0.16666   0.75001   0.00000  Uiso   1.00
O847   O     0.37291   0.10655   0.75000   0.00000  Uiso   1.00
O848   O     0.41643   0.29229   0.70523   0.00000  Uiso   1.00
O849   O     0.58272   0.29123   0.79340   0.00000  Uiso   1.00
O850   O     0.42111   0.04081   0.73556   0.00000  Uiso   1.00
O851   O     0.62709   0.22678   0.75000   0.00000  Uiso   1.00
O852   O     0.62706   0.10654   0.75000   0.00000  Uiso   1.00
O853   O     0.37294   0.22679   0.74999   0.00000  Uiso   1.00
O854   O     0.35186   0.16668   0.81491   0.00000  Uiso   1.00
O855   O     0.64814   0.16666   0.68508   0.00000  Uiso   1.00
O856   O     0.60600   0.16667   0.81492   0.00000  Uiso   1.00
O857   O     0.39400   0.16667   0.68508   0.00000  Uiso   1.00
O858   O     0.57801   0.04034   0.76699   0.00000  Uiso   1.00
C859   C     0.99986   0.08726   0.75024   0.00000  Uiso   1.00
C860   C     0.71078   0.02071   0.74059   0.00000  Uiso   1.00
C861   C     0.99993   0.29034   0.74997   0.00000  Uiso   1.00
C862   C     0.99972   0.04233   0.75039   0.00000  Uiso   1.00
C863   C     0.84778   0.15022   0.78501   0.00000  Uiso   1.00
C864   C     0.81902   0.18233   0.71461   0.00000  Uiso   1.00
C865   C     0.79824   0.15048   0.78512   0.00000  Uiso   1.00
C866   C     0.86845   0.18270   0.71481   0.00000  Uiso   1.00
C867   C     0.97274   0.16655   0.83605   0.00000  Uiso   1.00
C868   C     0.69393   0.16727   0.66398   0.00000  Uiso   1.00
C869   C     0.95775   0.16593   0.88518   0.00000  Uiso   1.00
C870   C     0.66671   0.24585   0.74992   0.00000  Uiso   1.00
C871   C     0.70915   0.17163   0.61512   0.00000  Uiso   1.00
C872   C     0.97487   0.15418   0.95637   0.00000  Uiso   1.00
C873   C     0.69428   0.19431   0.54580   0.00000  Uiso   1.00
C874   C     0.99085   0.15723   0.90993   0.00000  Uiso   1.00
C875   C     0.67721   0.18596   0.59141   0.00000  Uiso   1.00
C876   C     0.90897   0.17280   0.90734   0.00000  Uiso   1.00
C877   C     0.75784   0.16487   0.59272   0.00000  Uiso   1.00
C878   C     0.89207   0.17098   0.95428   0.00000  Uiso   1.00
C879   C     0.77647   0.17466   0.54715   0.00000  Uiso   1.00
C880   C     0.92584   0.16059   0.97864   0.00000  Uiso   1.00
C881   C     0.86187   0.16114   0.54753   0.00000  Uiso   1.00
C882   C     0.74348   0.18876   0.52353   0.00000  Uiso   1.00
C883   C     0.84247   0.17786   0.97745   0.00000  Uiso   1.00
C884   C     0.82672   0.17083   0.52452   0.00000  Uiso   1.00
C885   C     0.90191   0.04611   0.72474   0.00000  Uiso   1.00
C886   C     0.78866   0.28864   0.72469   0.00000  Uiso   1.00
C887   C     0.87956   0.28560   0.77123   0.00000  Uiso   1.00
C888   C     0.76297   0.04365   0.77844   0.00000  Uiso   1.00
C889   C     0.80827   0.19211   0.95530   0.00000  Uiso   1.00
C890   C     0.91038   0.15631   0.52494   0.00000  Uiso   1.00
C891   C     0.75989   0.19762   0.97806   0.00000  Uiso   1.00
C892   C     0.95531   0.02044   0.76022   0.00000  Uiso   1.00
C893   C     0.71050   0.31172   0.73403   0.00000  Uiso   1.00
C894   C     0.95588   0.31137   0.76601   0.00000  Uiso   1.00
Cu895  Cu    0.71355   0.16667   0.75000   0.00000  Uiso   1.00
Cu896  Cu    0.95311   0.16666   0.75000   0.00000  Uiso   1.00
H897   H     0.93593   0.14864   0.54393   0.00000  Uiso   1.00
H898   H     0.89521   0.19586   0.68669   0.00000  Uiso   1.00
H899   H     0.97278   0.19166   0.60826   0.00000  Uiso   1.00
H900   H     0.69540   0.15168   0.89338   0.00000  Uiso   1.00
H901   H     0.66743   0.14617   0.97484   0.00000  Uiso   1.00
H902   H     0.66917   0.20589   0.52806   0.00000  Uiso   1.00
H903   H     0.93415   0.05699   0.69822   0.00000  Uiso   1.00
H904   H     0.87363   0.06985   0.72802   0.00000  Uiso   1.00
H905   H     0.88838   0.01759   0.71308   0.00000  Uiso   1.00
H906   H     0.81343   0.26475   0.70645   0.00000  Uiso   1.00
H907   H     0.77669   0.27930   0.76058   0.00000  Uiso   1.00
H908   H     0.73507   0.20885   0.95980   0.00000  Uiso   1.00
H909   H     0.81052   0.31705   0.71982   0.00000  Uiso   1.00
H910   H     0.85880   0.25757   0.78482   0.00000  Uiso   1.00
H911   H     0.89399   0.28113   0.73439   0.00000  Uiso   1.00
H912   H     0.85371   0.31148   0.77883   0.00000  Uiso   1.00
H913   H     0.73331   0.05999   0.80291   0.00000  Uiso   1.00
H914   H     0.79674   0.06122   0.77547   0.00000  Uiso   1.00
H915   H     0.76771   0.01306   0.79231   0.00000  Uiso   1.00
H916   H     0.78037   0.15176   0.61186   0.00000  Uiso   1.00
H917   H     0.88460   0.17834   0.88696   0.00000  Uiso   1.00
H918   H     0.85350   0.15798   0.58337   0.00000  Uiso   1.00
H919   H     0.81778   0.20056   0.92043   0.00000  Uiso   1.00
H920   H     0.85795   0.13664   0.81298   0.00000  Uiso   1.00
H921   H     0.80901   0.19493   0.68609   0.00000  Uiso   1.00
H922   H     0.77147   0.13733   0.81324   0.00000  Uiso   1.00
N923   N     0.78403   0.16668   0.74999   0.00000  Uiso   1.00
N924   N     0.88264   0.16666   0.75001   0.00000  Uiso   1.00
O925   O     0.70625   0.10655   0.75000   0.00000  Uiso   1.00
O926   O     0.74977   0.29229   0.70523   0.00000  Uiso   1.00
O927   O     0.91605   0.29123   0.79340   0.00000  Uiso   1.00
O928   O     0.75444   0.04081   0.73556   0.00000  Uiso   1.00
O929   O     0.96042   0.22678   0.75000   0.00000  Uiso   1.00
O930   O     0.96039   0.10654   0.75000   0.00000  Uiso   1.00
O931   O     0.70628   0.22679   0.74999   0.00000  Uiso   1.00
O932   O     0.68519   0.16668   0.81491   0.00000  Uiso   1.00
O933   O     0.98148   0.16666   0.68508   0.00000  Uiso   1.00
O934   O     0.93933   0.16667   0.81492   0.00000  Uiso   1.00
O935   O     0.72733   0.16667   0.68508   0.00000  Uiso   1.00
O936   O     0.91134   0.04034   0.76699   0.00000  Uiso   1.00
C937   C     0.33320   0.42059   0.75024   0.00000  Uiso   1.00
C938   C     0.04411   0.35404   0.74059   0.00000  Uiso   1.00
C939   C     0.33326   0.62367   0.74997   0.00000  Uiso   1.00
C940   C     0.33305   0.37566   0.75039   0.00000  Uiso   1.00
C941   C     0.18111   0.48355   0.78501   0.00000  Uiso   1.00
C942   C     0.15235   0.51566   0.71461   0.00000  Uiso   1.00
C943   C     0.13158   0.48382   0.78512   0.00000  Uiso   1.00
C944   C     0.20178   0.51604   0.71481   0.00000  Uiso   1.00
C945   C     0.30608   0.49989   0.83605   0.00000  Uiso   1.00
C946   C     0.02726   0.50060   0.66398   0.00000  Uiso   1.00
C947   C     0.29108   0.49926   0.88518   0.00000  Uiso   1.00
C948   C     0.00004   0.57918   0.74992   0.00000  Uiso   1.00
C949   C     0.04249   0.50496   0.61512   0.00000  Uiso   1.00
C950   C     0.30821   0.48751   0.95637   0.00000  Uiso   1.00
C951   C     0.02761   0.52765   0.54580   0.00000  Uiso   1.00
C952   C     0.32418   0.49056   0.90993   0.00000  Uiso   1.00
C953   C     0.01054   0.51929   0.59141   0.00000  Uiso   1.00
C954   C     0.24230   0.50614   0.90734   0.00000  Uiso   1.00
C955   C     0.09117   0.49820   0.59272   0.00000  Uiso   1.00
C956   C     0.22541   0.50431   0.95428   0.00000  Uiso   1.00
C957   C     0.10980   0.50799   0.54715   0.00000  Uiso   1.00
C958   C     0.25917   0.49392   0.97864   0.00000  Uiso   1.00
C959   C     0.19520   0.49447   0.54753   0.00000  Uiso   1.00
C960   C     0.07681   0.52210   0.52353   0.00000  Uiso   1.00
C961   C     0.17580   0.51119   0.97745   0.00000  Uiso   1.00
C962   C     0.16005   0.50416   0.52452   0.00000  Uiso   1.00
C963   C     0.23524   0.37944   0.72474   0.00000  Uiso   1.00
C964   C     0.12200   0.62197   0.72469   0.00000  Uiso   1.00
C965   C     0.21289   0.61893   0.77123   0.00000  Uiso   1.00
C966   C     0.09630   0.37698   0.77844   0.00000  Uiso   1.00
C967   C     0.14160   0.52544   0.95530   0.00000  Uiso   1.00
C968   C     0.24372   0.48965   0.52494   0.00000  Uiso   1.00
C969   C     0.09322   0.53096   0.97806   0.00000  Uiso   1.00
C970   C     0.28865   0.35377   0.76022   0.00000  Uiso   1.00
C971   C     0.04383   0.64506   0.73403   0.00000  Uiso   1.00
C972   C     0.28921   0.64471   0.76601   0.00000  Uiso   1.00
Cu973  Cu    0.04689   0.50001   0.75000   0.00000  Uiso   1.00
Cu974  Cu    0.28645   0.49999   0.75000   0.00000  Uiso   1.00
H975   H     0.26926   0.48197   0.54393   0.00000  Uiso   1.00
H976   H     0.22855   0.52920   0.68669   0.00000  Uiso   1.00
H977   H     0.30611   0.52500   0.60826   0.00000  Uiso   1.00
H978   H     0.02873   0.48501   0.89338   0.00000  Uiso   1.00
H979   H     0.00076   0.47950   0.97484   0.00000  Uiso   1.00
H980   H     0.00251   0.53923   0.52806   0.00000  Uiso   1.00
H981   H     0.26748   0.39032   0.69822   0.00000  Uiso   1.00
H982   H     0.20696   0.40319   0.72802   0.00000  Uiso   1.00
H983   H     0.22171   0.35092   0.71308   0.00000  Uiso   1.00
H984   H     0.14676   0.59809   0.70645   0.00000  Uiso   1.00
H985   H     0.11003   0.61263   0.76058   0.00000  Uiso   1.00
H986   H     0.06840   0.54219   0.95980   0.00000  Uiso   1.00
H987   H     0.14385   0.65038   0.71982   0.00000  Uiso   1.00
H988   H     0.19214   0.59091   0.78482   0.00000  Uiso   1.00
H989   H     0.22733   0.61447   0.73439   0.00000  Uiso   1.00
H990   H     0.18704   0.64481   0.77883   0.00000  Uiso   1.00
H991   H     0.06665   0.39332   0.80291   0.00000  Uiso   1.00
H992   H     0.13008   0.39455   0.77547   0.00000  Uiso   1.00
H993   H     0.10104   0.34640   0.79231   0.00000  Uiso   1.00
H994   H     0.11370   0.48510   0.61186   0.00000  Uiso   1.00
H995   H     0.21793   0.51167   0.88696   0.00000  Uiso   1.00
H996   H     0.18683   0.49131   0.58337   0.00000  Uiso   1.00
H997   H     0.15112   0.53389   0.92043   0.00000  Uiso   1.00
H998   H     0.19129   0.46997   0.81298   0.00000  Uiso   1.00
H999   H     0.14235   0.52827   0.68609   0.00000  Uiso   1.00
H1000  H     0.10480   0.47066   0.81324   0.00000  Uiso   1.00
N1001  N     0.11736   0.50001   0.74999   0.00000  Uiso   1.00
N1002  N     0.21597   0.49999   0.75001   0.00000  Uiso   1.00
O1003  O     0.03958   0.43989   0.75000   0.00000  Uiso   1.00
O1004  O     0.08310   0.62562   0.70523   0.00000  Uiso   1.00
O1005  O     0.24939   0.62456   0.79340   0.00000  Uiso   1.00
O1006  O     0.08778   0.37414   0.73556   0.00000  Uiso   1.00
O1007  O     0.29375   0.56011   0.75000   0.00000  Uiso   1.00
O1008  O     0.29372   0.43988   0.75000   0.00000  Uiso   1.00
O1009  O     0.03961   0.56012   0.74999   0.00000  Uiso   1.00
O1010  O     0.01852   0.50001   0.81491   0.00000  Uiso   1.00
O1011  O     0.31481   0.49999   0.68508   0.00000  Uiso   1.00
O1012  O     0.27267   0.50000   0.81492   0.00000  Uiso   1.00
O1013  O     0.06067   0.50000   0.68508   0.00000  Uiso   1.00
O1014  O     0.24467   0.37368   0.76699   0.00000  Uiso   1.00
C1015  C     0.66653   0.42059   0.75024   0.00000  Uiso   1.00
C1016  C     0.37745   0.35404   0.74059   0.00000  Uiso   1.00
C1017  C     0.66659   0.62367   0.74997   0.00000  Uiso   1.00
C1018  C     0.66639   0.37566   0.75039   0.00000  Uiso   1.00
C1019  C     0.51445   0.48355   0.78501   0.00000  Uiso   1.00
C1020  C     0.48569   0.51566   0.71461   0.00000  Uiso   1.00
C1021  C     0.46491   0.48382   0.78512   0.00000  Uiso   1.00
C1022  C     0.53512   0.51604   0.71481   0.00000  Uiso   1.00
C1023  C     0.63941   0.49989   0.83605   0.00000  Uiso   1.00
C1024  C     0.36059   0.50060   0.66398   0.00000  Uiso   1.00
C1025  C     0.62442   0.49926   0.88518   0.00000  Uiso   1.00
C1026  C     0.33337   0.57918   0.74992   0.00000  Uiso   1.00
C1027  C     0.37582   0.50496   0.61512   0.00000  Uiso   1.00
C1028  C     0.64154   0.48751   0.95637   0.00000  Uiso   1.00
C1029  C     0.36095   0.52765   0.54580   0.00000  Uiso   1.00
C1030  C     0.65752   0.49056   0.90993   0.00000  Uiso   1.00
C1031  C     0.34388   0.51929   0.59141   0.00000  Uiso   1.00
C1032  C     0.57564   0.50614   0.90734   0.00000  Uiso   1.00
C1033  C     0.42450   0.49820   0.59272   0.00000  Uiso   1.00
C1034  C     0.55874   0.50431   0.95428   0.00000  Uiso   1.00
C1035  C     0.44313   0.50799   0.54715   0.00000  Uiso   1.00
C1036  C     0.59251   0.49392   0.97864   0.00000  Uiso   1.00
C1037  C     0.52854   0.49447   0.54753   0.00000  Uiso   1.00
C1038  C     0.41015   0.52210   0.52353   0.00000  Uiso   1.00
C1039  C     0.50913   0.51119   0.97745   0.00000  Uiso   1.00
C1040  C     0.49338   0.50416   0.52452   0.00000  Uiso   1.00
C1041  C     0.56858   0.37944   0.72474   0.00000  Uiso   1.00
C1042  C     0.45533   0.62197   0.72469   0.00000  Uiso   1.00
C1043  C     0.54622   0.61893   0.77123   0.00000  Uiso   1.00
C1044  C     0.42963   0.37698   0.77844   0.00000  Uiso   1.00
C1045  C     0.47493   0.52544   0.95530   0.00000  Uiso   1.00
C1046  C     0.57705   0.48965   0.52494   0.00000  Uiso   1.00
C1047  C     0.42656   0.53096   0.97806   0.00000  Uiso   1.00
C1048  C     0.62198   0.35377   0.76022   0.00000  Uiso   1.00
C1049  C     0.37716   0.64506   0.73403   0.00000  Uiso   1.00
C1050  C     0.62255   0.64471   0.76601   0.00000  Uiso   1.00
Cu1051 Cu    0.38022   0.50001   0.75000   0.00000  Uiso   1.00
Cu1052 Cu    0.61978   0.49999   0.75000   0.00000  Uiso   1.00
H1053  H     0.60259   0.48197   0.54393   0.00000  Uiso   1.00
H1054  H     0.56188   0.52920   0.68669   0.00000  Uiso   1.00
H1055  H     0.63944   0.52500   0.60826   0.00000  Uiso   1.00
H1056  H     0.36207   0.48501   0.89338   0.00000  Uiso   1.00
H1057  H     0.33410   0.47950   0.97484   0.00000  Uiso   1.00
H1058  H     0.33584   0.53923   0.52806   0.00000  Uiso   1.00
H1059  H     0.60081   0.39032   0.69822   0.00000  Uiso   1.00
H1060  H     0.54029   0.40319   0.72802   0.00000  Uiso   1.00
H1061  H     0.55505   0.35092   0.71308   0.00000  Uiso   1.00
H1062  H     0.48009   0.59809   0.70645   0.00000  Uiso   1.00
H1063  H     0.44336   0.61263   0.76058   0.00000  Uiso   1.00
H1064  H     0.40173   0.54219   0.95980   0.00000  Uiso   1.00
H1065  H     0.47718   0.65038   0.71982   0.00000  Uiso   1.00
H1066  H     0.52547   0.59091   0.78482   0.00000  Uiso   1.00
H1067  H     0.56066   0.61447   0.73439   0.00000  Uiso   1.00
H1068  H     0.52038   0.64481   0.77883   0.00000  Uiso   1.00
H1069  H     0.39998   0.39332   0.80291   0.00000  Uiso   1.00
H1070  H     0.46341   0.39455   0.77547   0.00000  Uiso   1.00
H1071  H     0.43438   0.34640   0.79231   0.00000  Uiso   1.00
H1072  H     0.44704   0.48510   0.61186   0.00000  Uiso   1.00
H1073  H     0.55127   0.51167   0.88696   0.00000  Uiso   1.00
H1074  H     0.52017   0.49131   0.58337   0.00000  Uiso   1.00
H1075  H     0.48445   0.53389   0.92043   0.00000  Uiso   1.00
H1076  H     0.52462   0.46997   0.81298   0.00000  Uiso   1.00
H1077  H     0.47568   0.52827   0.68609   0.00000  Uiso   1.00
H1078  H     0.43813   0.47066   0.81324   0.00000  Uiso   1.00
N1079  N     0.45069   0.50001   0.74999   0.00000  Uiso   1.00
N1080  N     0.54931   0.49999   0.75001   0.00000  Uiso   1.00
O1081  O     0.37291   0.43989   0.75000   0.00000  Uiso   1.00
O1082  O     0.41643   0.62562   0.70523   0.00000  Uiso   1.00
O1083  O     0.58272   0.62456   0.79340   0.00000  Uiso   1.00
O1084  O     0.42111   0.37414   0.73556   0.00000  Uiso   1.00
O1085  O     0.62709   0.56011   0.75000   0.00000  Uiso   1.00
O1086  O     0.62706   0.43988   0.75000   0.00000  Uiso   1.00
O1087  O     0.37294   0.56012   0.74999   0.00000  Uiso   1.00
O1088  O     0.35186   0.50001   0.81491   0.00000  Uiso   1.00
O1089  O     0.64814   0.49999   0.68508   0.00000  Uiso   1.00
O1090  O     0.60600   0.50000   0.81492   0.00000  Uiso   1.00
O1091  O     0.39400   0.50000   0.68508   0.00000  Uiso   1.00
O1092  O     0.57801   0.37368   0.76699   0.00000  Uiso   1.00
C1093  C     0.99986   0.42059   0.75024   0.00000  Uiso   1.00
C1094  C     0.71078   0.35404   0.74059   0.00000  Uiso   1.00
C1095  C     0.99993   0.62367   0.74997   0.00000  Uiso   1.00
C1096  C     0.99972   0.37566   0.75039   0.00000  Uiso   1.00
C1097  C     0.84778   0.48355   0.78501   0.00000  Uiso   1.00
C1098  C     0.81902   0.51566   0.71461   0.00000  Uiso   1.00
C1099  C     0.79824   0.48382   0.78512   0.00000  Uiso   1.00
C1100  C     0.86845   0.51604   0.71481   0.00000  Uiso   1.00
C1101  C     0.97274   0.49989   0.83605   0.00000  Uiso   1.00
C1102  C     0.69393   0.50060   0.66398   0.00000  Uiso   1.00
C1103  C     0.95775   0.49926   0.88518   0.00000  Uiso   1.00
C1104  C     0.66671   0.57918   0.74992   0.00000  Uiso   1.00
C1105  C     0.70915   0.50496   0.61512   0.00000  Uiso   1.00
C1106  C     0.97487   0.48751   0.95637   0.00000  Uiso   1.00
C1107  C     0.69428   0.52765   0.54580   0.00000  Uiso   1.00
C1108  C     0.99085   0.49056   0.90993   0.00000  Uiso   1.00
C1109  C     0.67721   0.51929   0.59141   0.00000  Uiso   1.00
C1110  C     0.90897   0.50614   0.90734   0.00000  Uiso   1.00
C1111  C     0.75784   0.49820   0.59272   0.00000  Uiso   1.00
C1112  C     0.89207   0.50431   0.95428   0.00000  Uiso   1.00
C1113  C     0.77647   0.50799   0.54715   0.00000  Uiso   1.00
C1114  C     0.92584   0.49392   0.97864   0.00000  Uiso   1.00
C1115  C     0.86187   0.49447   0.54753   0.00000  Uiso   1.00
C1116  C     0.74348   0.52210   0.52353   0.00000  Uiso   1.00
C1117  C     0.84247   0.51119   0.97745   0.00000  Uiso   1.00
C1118  C     0.82672   0.50416   0.52452   0.00000  Uiso   1.00
C1119  C     0.90191   0.37944   0.72474   0.00000  Uiso   1.00
C1120  C     0.78866   0.62197   0.72469   0.00000  Uiso   1.00
C1121  C     0.87956   0.61893   0.77123   0.00000  Uiso   1.00
C1122  C     0.76297   0.37698   0.77844   0.00000  Uiso   1.00
C1123  C     0.80827   0.52544   0.95530   0.00000  Uiso   1.00
C1124  C     0.91038   0.48965   0.52494   0.00000  Uiso   1.00
C1125  C     0.75989   0.53096   0.97806   0.00000  Uiso   1.00
C1126  C     0.95531   0.35377   0.76022   0.00000  Uiso   1.00
C1127  C     0.71050   0.64506   0.73403   0.00000  Uiso   1.00
C1128  C     0.95588   0.64471   0.76601   0.00000  Uiso   1.00
Cu1129 Cu    0.71355   0.50001   0.75000   0.00000  Uiso   1.00
Cu1130 Cu    0.95311   0.49999   0.75000   0.00000  Uiso   1.00
H1131  H     0.93593   0.48197   0.54393   0.00000  Uiso   1.00
H1132  H     0.89521   0.52920   0.68669   0.00000  Uiso   1.00
H1133  H     0.97278   0.52500   0.60826   0.00000  Uiso   1.00
H1134  H     0.69540   0.48501   0.89338   0.00000  Uiso   1.00
H1135  H     0.66743   0.47950   0.97484   0.00000  Uiso   1.00
H1136  H     0.66917   0.53923   0.52806   0.00000  Uiso   1.00
H1137  H     0.93415   0.39032   0.69822   0.00000  Uiso   1.00
H1138  H     0.87363   0.40319   0.72802   0.00000  Uiso   1.00
H1139  H     0.88838   0.35092   0.71308   0.00000  Uiso   1.00
H1140  H     0.81343   0.59809   0.70645   0.00000  Uiso   1.00
H1141  H     0.77669   0.61263   0.76058   0.00000  Uiso   1.00
H1142  H     0.73507   0.54219   0.95980   0.00000  Uiso   1.00
H1143  H     0.81052   0.65038   0.71982   0.00000  Uiso   1.00
H1144  H     0.85880   0.59091   0.78482   0.00000  Uiso   1.00
H1145  H     0.89399   0.61447   0.73439   0.00000  Uiso   1.00
H1146  H     0.85371   0.64481   0.77883   0.00000  Uiso   1.00
H1147  H     0.73331   0.39332   0.80291   0.00000  Uiso   1.00
H1148  H     0.79674   0.39455   0.77547   0.00000  Uiso   1.00
H1149  H     0.76771   0.34640   0.79231   0.00000  Uiso   1.00
H1150  H     0.78037   0.48510   0.61186   0.00000  Uiso   1.00
H1151  H     0.88460   0.51167   0.88696   0.00000  Uiso   1.00
H1152  H     0.85350   0.49131   0.58337   0.00000  Uiso   1.00
H1153  H     0.81778   0.53389   0.92043   0.00000  Uiso   1.00
H1154  H     0.85795   0.46997   0.81298   0.00000  Uiso   1.00
H1155  H     0.80901   0.52827   0.68609   0.00000  Uiso   1.00
H1156  H     0.77147   0.47066   0.81324   0.00000  Uiso   1.00
N1157  N     0.78403   0.50001   0.74999   0.00000  Uiso   1.00
N1158  N     0.88264   0.49999   0.75001   0.00000  Uiso   1.00
O1159  O     0.70625   0.43989   0.75000   0.00000  Uiso   1.00
O1160  O     0.74977   0.62562   0.70523   0.00000  Uiso   1.00
O1161  O     0.91605   0.62456   0.79340   0.00000  Uiso   1.00
O1162  O     0.75444   0.37414   0.73556   0.00000  Uiso   1.00
O1163  O     0.96042   0.56011   0.75000   0.00000  Uiso   1.00
O1164  O     0.96039   0.43988   0.75000   0.00000  Uiso   1.00
O1165  O     0.70628   0.56012   0.74999   0.00000  Uiso   1.00
O1166  O     0.68519   0.50001   0.81491   0.00000  Uiso   1.00
O1167  O     0.98148   0.49999   0.68508   0.00000  Uiso   1.00
O1168  O     0.93933   0.50000   0.81492   0.00000  Uiso   1.00
O1169  O     0.72733   0.50000   0.68508   0.00000  Uiso   1.00
O1170  O     0.91134   0.37368   0.76699   0.00000  Uiso   1.00
C1171  C     0.33320   0.75393   0.75024   0.00000  Uiso   1.00
C1172  C     0.04411   0.68737   0.74059   0.00000  Uiso   1.00
C1173  C     0.33326   0.95700   0.74997   0.00000  Uiso   1.00
C1174  C     0.33305   0.70899   0.75039   0.00000  Uiso   1.00
C1175  C     0.18111   0.81689   0.78501   0.00000  Uiso   1.00
C1176  C     0.15235   0.84900   0.71461   0.00000  Uiso   1.00
C1177  C     0.13158   0.81715   0.78512   0.00000  Uiso   1.00
C1178  C     0.20178   0.84937   0.71481   0.00000  Uiso   1.00
C1179  C     0.30608   0.83322   0.83605   0.00000  Uiso   1.00
C1180  C     0.02726   0.83394   0.66398   0.00000  Uiso   1.00
C1181  C     0.29108   0.83259   0.88518   0.00000  Uiso   1.00
C1182  C     0.00004   0.91252   0.74992   0.00000  Uiso   1.00
C1183  C     0.04249   0.83829   0.61512   0.00000  Uiso   1.00
C1184  C     0.30821   0.82085   0.95637   0.00000  Uiso   1.00
C1185  C     0.02761   0.86098   0.54580   0.00000  Uiso   1.00
C1186  C     0.32418   0.82389   0.90993   0.00000  Uiso   1.00
C1187  C     0.01054   0.85263   0.59141   0.00000  Uiso   1.00
C1188  C     0.24230   0.83947   0.90734   0.00000  Uiso   1.00
C1189  C     0.09117   0.83153   0.59272   0.00000  Uiso   1.00
C1190  C     0.22541   0.83765   0.95428   0.00000  Uiso   1.00
C1191  C     0.10980   0.84132   0.54715   0.00000  Uiso   1.00
C1192  C     0.25917   0.82725   0.97864   0.00000  Uiso   1.00
C1193  C     0.19520   0.82781   0.54753   0.00000  Uiso   1.00
C1194  C     0.07681   0.85543   0.52353   0.00000  Uiso   1.00
C1195  C     0.17580   0.84453   0.97745   0.00000  Uiso   1.00
C1196  C     0.16005   0.83749   0.52452   0.00000  Uiso   1.00
C1197  C     0.23524   0.71277   0.72474   0.00000  Uiso   1.00
C1198  C     0.12200   0.95530   0.72469   0.00000  Uiso   1.00
C1199  C     0.21289   0.95227   0.77123   0.00000  Uiso   1.00
C1200  C     0.09630   0.71032   0.77844   0.00000  Uiso   1.00
C1201  C     0.14160   0.85878   0.95530   0.00000  Uiso   1.00
C1202  C     0.24372   0.82298   0.52494   0.00000  Uiso   1.00
C1203  C     0.09322   0.86429   0.97806   0.00000  Uiso   1.00
C1204  C     0.28865   0.68711   0.76022   0.00000  Uiso   1.00
C1205  C     0.04383   0.97839   0.73403   0.00000  Uiso   1.00
C1206  C     0.28921   0.97804   0.76601   0.00000  Uiso   1.00
Cu1207 Cu    0.04689   0.83334   0.75000   0.00000  Uiso   1.00
Cu1208 Cu    0.28645   0.83333   0.75000   0.00000  Uiso   1.00
H1209  H     0.26926   0.81530   0.54393   0.00000  Uiso   1.00
H1210  H     0.22855   0.86253   0.68669   0.00000  Uiso   1.00
H1211  H     0.30611   0.85833   0.60826   0.00000  Uiso   1.00
H1212  H     0.02873   0.81834   0.89338   0.00000  Uiso   1.00
H1213  H     0.00076   0.81283   0.97484   0.00000  Uiso   1.00
H1214  H     0.00251   0.87256   0.52806   0.00000  Uiso   1.00
H1215  H     0.26748   0.72366   0.69822   0.00000  Uiso   1.00
H1216  H     0.20696   0.73652   0.72802   0.00000  Uiso   1.00
H1217  H     0.22171   0.68425   0.71308   0.00000  Uiso   1.00
H1218  H     0.14676   0.93142   0.70645   0.00000  Uiso   1.00
H1219  H     0.11003   0.94597   0.76058   0.00000  Uiso   1.00
H1220  H     0.06840   0.87552   0.95980   0.00000  Uiso   1.00
H1221  H     0.14385   0.98372   0.71982   0.00000  Uiso   1.00
H1222  H     0.19214   0.92424   0.78482   0.00000  Uiso   1.00
H1223  H     0.22733   0.94780   0.73439   0.00000  Uiso   1.00
H1224  H     0.18704   0.97815   0.77883   0.00000  Uiso   1.00
H1225  H     0.06665   0.72665   0.80291   0.00000  Uiso   1.00
H1226  H     0.13008   0.72788   0.77547   0.00000  Uiso   1.00
H1227  H     0.10104   0.67973   0.79231   0.00000  Uiso   1.00
H1228  H     0.11370   0.81843   0.61186   0.00000  Uiso   1.00
H1229  H     0.21793   0.84501   0.88696   0.00000  Uiso   1.00
H1230  H     0.18683   0.82465   0.58337   0.00000  Uiso   1.00
H1231  H     0.15112   0.86722   0.92043   0.00000  Uiso   1.00
H1232  H     0.19129   0.80331   0.81298   0.00000  Uiso   1.00
H1233  H     0.14235   0.86160   0.68609   0.00000  Uiso   1.00
H1234  H     0.10480   0.80399   0.81324   0.00000  Uiso   1.00
N1235  N     0.11736   0.83334   0.74999   0.00000  Uiso   1.00
N1236  N     0.21597   0.83332   0.75001   0.00000  Uiso   1.00
O1237  O     0.03958   0.77322   0.75000   0.00000  Uiso   1.00
O1238  O     0.08310   0.95896   0.70523   0.00000  Uiso   1.00
O1239  O     0.24939   0.95790   0.79340   0.00000  Uiso   1.00
O1240  O     0.08778   0.70748   0.73556   0.00000  Uiso   1.00
O1241  O     0.29375   0.89345   0.75000   0.00000  Uiso   1.00
O1242  O     0.29372   0.77321   0.75000   0.00000  Uiso   1.00
O1243  O     0.03961   0.89346   0.74999   0.00000  Uiso   1.00
O1244  O     0.01852   0.83334   0.81491   0.00000  Uiso   1.00
O1245  O     0.31481   0.83332   0.68508   0.00000  Uiso   1.00
O1246  O     0.27267   0.83333   0.81492   0.00000  Uiso   1.00
O1247  O     0.06067   0.83333   0.68508   0.00000  Uiso   1.00
O1248  O     0.24467   0.70701   0.76699   0.00000  Uiso   1.00
C1249  C     0.66653   0.75393   0.75024   0.00000  Uiso   1.00
C1250  C     0.37745   0.68737   0.74059   0.00000  Uiso   1.00
C1251  C     0.66659   0.95700   0.74997   0.00000  Uiso   1.00
C1252  C     0.66639   0.70899   0.75039   0.00000  Uiso   1.00
C1253  C     0.51445   0.81689   0.78501   0.00000  Uiso   1.00
C1254  C     0.48569   0.84900   0.71461   0.00000  Uiso   1.00
C1255  C     0.46491   0.81715   0.78512   0.00000  Uiso   1.00
C1256  C     0.53512   0.84937   0.71481   0.00000  Uiso   1.00
C1257  C     0.63941   0.83322   0.83605   0.00000  Uiso   1.00
C1258  C     0.36059   0.83394   0.66398   0.00000  Uiso   1.00
C1259  C     0.62442   0.83259   0.88518   0.00000  Uiso   1.00
C1260  C     0.33337   0.91252   0.74992   0.00000  Uiso   1.00
C1261  C     0.37582   0.83829   0.61512   0.00000  Uiso   1.00
C1262  C     0.64154   0.82085   0.95637   0.00000  Uiso   1.00
C1263  C     0.36095   0.86098   0.54580   0.00000  Uiso   1.00
C1264  C     0.65752   0.82389   0.90993   0.00000  Uiso   1.00
C1265  C     0.34388   0.85263   0.59141   0.00000  Uiso   1.00
C1266  C     0.57564   0.83947   0.90734   0.00000  Uiso   1.00
C1267  C     0.42450   0.83153   0.59272   0.00000  Uiso   1.00
C1268  C     0.55874   0.83765   0.95428   0.00000  Uiso   1.00
C1269  C     0.44313   0.84132   0.54715   0.00000  Uiso   1.00
C1270  C     0.59251   0.82725   0.97864   0.00000  Uiso   1.00
C1271  C     0.52854   0.82781   0.54753   0.00000  Uiso   1.00
C1272  C     0.41015   0.85543   0.52353   0.00000  Uiso   1.00
C1273  C     0.50913   0.84453   0.97745   0.00000  Uiso   1.00
C1274  C     0.49338   0.83749   0.52452   0.00000  Uiso   1.00
C1275  C     0.56858   0.71277   0.72474   0.00000  Uiso   1.00
C1276  C     0.45533   0.95530   0.72469   0.00000  Uiso   1.00
C1277  C     0.54622   0.95227   0.77123   0.00000  Uiso   1.00
C1278  C     0.42963   0.71032   0.77844   0.00000  Uiso   1.00
C1279  C     0.47493   0.85878   0.95530   0.00000  Uiso   1.00
C1280  C     0.57705   0.82298   0.52494   0.00000  Uiso   1.00
C1281  C     0.42656   0.86429   0.97806   0.00000  Uiso   1.00
C1282  C     0.62198   0.68711   0.76022   0.00000  Uiso   1.00
C1283  C     0.37716   0.97839   0.73403   0.00000  Uiso   1.00
C1284  C     0.62255   0.97804   0.76601   0.00000  Uiso   1.00
Cu1285 Cu    0.38022   0.83334   0.75000   0.00000  Uiso   1.00
Cu1286 Cu    0.61978   0.83333   0.75000   0.00000  Uiso   1.00
H1287  H     0.60259   0.81530   0.54393   0.00000  Uiso   1.00
H1288  H     0.56188   0.86253   0.68669   0.00000  Uiso   1.00
H1289  H     0.63944   0.85833   0.60826   0.00000  Uiso   1.00
H1290  H     0.36207   0.81834   0.89338   0.00000  Uiso   1.00
H1291  H     0.33410   0.81283   0.97484   0.00000  Uiso   1.00
H1292  H     0.33584   0.87256   0.52806   0.00000  Uiso   1.00
H1293  H     0.60081   0.72366   0.69822   0.00000  Uiso   1.00
H1294  H     0.54029   0.73652   0.72802   0.00000  Uiso   1.00
H1295  H     0.55505   0.68425   0.71308   0.00000  Uiso   1.00
H1296  H     0.48009   0.93142   0.70645   0.00000  Uiso   1.00
H1297  H     0.44336   0.94597   0.76058   0.00000  Uiso   1.00
H1298  H     0.40173   0.87552   0.95980   0.00000  Uiso   1.00
H1299  H     0.47718   0.98372   0.71982   0.00000  Uiso   1.00
H1300  H     0.52547   0.92424   0.78482   0.00000  Uiso   1.00
H1301  H     0.56066   0.94780   0.73439   0.00000  Uiso   1.00
H1302  H     0.52038   0.97815   0.77883   0.00000  Uiso   1.00
H1303  H     0.39998   0.72665   0.80291   0.00000  Uiso   1.00
H1304  H     0.46341   0.72788   0.77547   0.00000  Uiso   1.00
H1305  H     0.43438   0.67973   0.79231   0.00000  Uiso   1.00
H1306  H     0.44704   0.81843   0.61186   0.00000  Uiso   1.00
H1307  H     0.55127   0.84501   0.88696   0.00000  Uiso   1.00
H1308  H     0.52017   0.82465   0.58337   0.00000  Uiso   1.00
H1309  H     0.48445   0.86722   0.92043   0.00000  Uiso   1.00
H1310  H     0.52462   0.80331   0.81298   0.00000  Uiso   1.00
H1311  H     0.47568   0.86160   0.68609   0.00000  Uiso   1.00
H1312  H     0.43813   0.80399   0.81324   0.00000  Uiso   1.00
N1313  N     0.45069   0.83334   0.74999   0.00000  Uiso   1.00
N1314  N     0.54931   0.83332   0.75001   0.00000  Uiso   1.00
O1315  O     0.37291   0.77322   0.75000   0.00000  Uiso   1.00
O1316  O     0.41643   0.95896   0.70523   0.00000  Uiso   1.00
O1317  O     0.58272   0.95790   0.79340   0.00000  Uiso   1.00
O1318  O     0.42111   0.70748   0.73556   0.00000  Uiso   1.00
O1319  O     0.62709   0.89345   0.75000   0.00000  Uiso   1.00
O1320  O     0.62706   0.77321   0.75000   0.00000  Uiso   1.00
O1321  O     0.37294   0.89346   0.74999   0.00000  Uiso   1.00
O1322  O     0.35186   0.83334   0.81491   0.00000  Uiso   1.00
O1323  O     0.64814   0.83332   0.68508   0.00000  Uiso   1.00
O1324  O     0.60600   0.83333   0.81492   0.00000  Uiso   1.00
O1325  O     0.39400   0.83333   0.68508   0.00000  Uiso   1.00
O1326  O     0.57801   0.70701   0.76699   0.00000  Uiso   1.00
C1327  C     0.99986   0.75393   0.75024   0.00000  Uiso   1.00
C1328  C     0.71078   0.68737   0.74059   0.00000  Uiso   1.00
C1329  C     0.99993   0.95700   0.74997   0.00000  Uiso   1.00
C1330  C     0.99972   0.70899   0.75039   0.00000  Uiso   1.00
C1331  C     0.84778   0.81689   0.78501   0.00000  Uiso   1.00
C1332  C     0.81902   0.84900   0.71461   0.00000  Uiso   1.00
C1333  C     0.79824   0.81715   0.78512   0.00000  Uiso   1.00
C1334  C     0.86845   0.84937   0.71481   0.00000  Uiso   1.00
C1335  C     0.97274   0.83322   0.83605   0.00000  Uiso   1.00
C1336  C     0.69393   0.83394   0.66398   0.00000  Uiso   1.00
C1337  C     0.95775   0.83259   0.88518   0.00000  Uiso   1.00
C1338  C     0.66671   0.91252   0.74992   0.00000  Uiso   1.00
C1339  C     0.70915   0.83829   0.61512   0.00000  Uiso   1.00
C1340  C     0.97487   0.82085   0.95637   0.00000  Uiso   1.00
C1341  C     0.69428   0.86098   0.54580   0.00000  Uiso   1.00
C1342  C     0.99085   0.82389   0.90993   0.00000  Uiso   1.00
C1343  C     0.67721   0.85263   0.59141   0.00000  Uiso   1.00
C1344  C     0.90897   0.83947   0.90734   0.00000  Uiso   1.00
C1345  C     0.75784   0.83153   0.59272   0.00000  Uiso   1.00
C1346  C     0.89207   0.83765   0.95428   0.00000  Uiso   1.00
C1347  C     0.77647   0.84132   0.54715   0.00000  Uiso   1.00
C1348  C     0.92584   0.82725   0.97864   0.00000  Uiso   1.00
C1349  C     0.86187   0.82781   0.54753   0.00000  Uiso   1.00
C1350  C     0.74348   0.85543   0.52353   0.00000  Uiso   1.00
C1351  C     0.84247   0.84453   0.97745   0.00000  Uiso   1.00
C1352  C     0.82672   0.83749   0.52452   0.00000  Uiso   1.00
C1353  C     0.90191   0.71277   0.72474   0.00000  Uiso   1.00
C1354  C     0.78866   0.95530   0.72469   0.00000  Uiso   1.00
C1355  C     0.87956   0.95227   0.77123   0.00000  Uiso   1.00
C1356  C     0.76297   0.71032   0.77844   0.00000  Uiso   1.00
C1357  C     0.80827   0.85878   0.95530   0.00000  Uiso   1.00
C1358  C     0.91038   0.82298   0.52494   0.00000  Uiso   1.00
C1359  C     0.75989   0.86429   0.97806   0.00000  Uiso   1.00
C1360  C     0.95531   0.68711   0.76022   0.00000  Uiso   1.00
C1361  C     0.71050   0.97839   0.73403   0.00000  Uiso   1.00
C1362  C     0.95588   0.97804   0.76601   0.00000  Uiso   1.00
Cu1363 Cu    0.71355   0.83334   0.75000   0.00000  Uiso   1.00
Cu1364 Cu    0.95311   0.83333   0.75000   0.00000  Uiso   1.00
H1365  H     0.93593   0.81530   0.54393   0.00000  Uiso   1.00
H1366  H     0.89521   0.86253   0.68669   0.00000  Uiso   1.00
H1367  H     0.97278   0.85833   0.60826   0.00000  Uiso   1.00
H1368  H     0.69540   0.81834   0.89338   0.00000  Uiso   1.00
H1369  H     0.66743   0.81283   0.97484   0.00000  Uiso   1.00
H1370  H     0.66917   0.87256   0.52806   0.00000  Uiso   1.00
H1371  H     0.93415   0.72366   0.69822   0.00000  Uiso   1.00
H1372  H     0.87363   0.73652   0.72802   0.00000  Uiso   1.00
H1373  H     0.88838   0.68425   0.71308   0.00000  Uiso   1.00
H1374  H     0.81343   0.93142   0.70645   0.00000  Uiso   1.00
H1375  H     0.77669   0.94597   0.76058   0.00000  Uiso   1.00
H1376  H     0.73507   0.87552   0.95980   0.00000  Uiso   1.00
H1377  H     0.81052   0.98372   0.71982   0.00000  Uiso   1.00
H1378  H     0.85880   0.92424   0.78482   0.00000  Uiso   1.00
H1379  H     0.89399   0.94780   0.73439   0.00000  Uiso   1.00
H1380  H     0.85371   0.97815   0.77883   0.00000  Uiso   1.00
H1381  H     0.73331   0.72665   0.80291   0.00000  Uiso   1.00
H1382  H     0.79674   0.72788   0.77547   0.00000  Uiso   1.00
H1383  H     0.76771   0.67973   0.79231   0.00000  Uiso   1.00
H1384  H     0.78037   0.81843   0.61186   0.00000  Uiso   1.00
H1385  H     0.88460   0.84501   0.88696   0.00000  Uiso   1.00
H1386  H     0.85350   0.82465   0.58337   0.00000  Uiso   1.00
H1387  H     0.81778   0.86722   0.92043   0.00000  Uiso   1.00
H1388  H     0.85795   0.80331   0.81298   0.00000  Uiso   1.00
H1389  H     0.80901   0.86160   0.68609   0.00000  Uiso   1.00
H1390  H     0.77147   0.80399   0.81324   0.00000  Uiso   1.00
N1391  N     0.78403   0.83334   0.74999   0.00000  Uiso   1.00
N1392  N     0.88264   0.83332   0.75001   0.00000  Uiso   1.00
O1393  O     0.70625   0.77322   0.75000   0.00000  Uiso   1.00
O1394  O     0.74977   0.95896   0.70523   0.00000  Uiso   1.00
O1395  O     0.91605   0.95790   0.79340   0.00000  Uiso   1.00
O1396  O     0.75444   0.70748   0.73556   0.00000  Uiso   1.00
O1397  O     0.96042   0.89345   0.75000   0.00000  Uiso   1.00
O1398  O     0.96039   0.77321   0.75000   0.00000  Uiso   1.00
O1399  O     0.70628   0.89346   0.74999   0.00000  Uiso   1.00
O1400  O     0.68519   0.83334   0.81491   0.00000  Uiso   1.00
O1401  O     0.98148   0.83332   0.68508   0.00000  Uiso   1.00
O1402  O     0.93933   0.83333   0.81492   0.00000  Uiso   1.00
O1403  O     0.72733   0.83333   0.68508   0.00000  Uiso   1.00
O1404  O     0.91134   0.70701   0.76699   0.00000  Uiso   1.00
loop_
_geom_bond_atom_site_label_1
_geom_bond_atom_site_label_2
_geom_bond_distance
_geom_bond_site_symmetry_2
_ccdc_geom_bond_type
C1     O72     1.296   .     A
C1     C4      1.469   .     S
C1     O145    1.297   .     S
C2     O70     1.382   .     S
C2     C160    1.415   1_455 S
C2     C503    1.399   1_545 S
C3     C36     1.406   .     A
C3     C90     1.455   .     S
C3     C113    1.404   .     S
C4     C34     1.417   .     A
C4     C80     1.415   .     S
C5     C7      1.417   .     A
C5     N66     1.369   .     A
C5     H62     1.081   .     S
C6     N65     1.368   .     A
C6     C8      1.416   .     A
C6     H63     1.081   .     S
C7     N65     1.367   .     A
C7     H64     1.081   .     S
C8     N66     1.366   .     A
C8     H40     1.081   .     S
C9     O76     1.296   .     A
C9     C11     1.467   .     S
C9     O152    1.298   .     S
C10    O77     1.296   .     A
C10    C13     1.466   .     S
C10    O231    1.297   1_455 S
C11    C18     1.399   .     A
C11    C16     1.399   .     A
C12    O73     1.294   .     A
C12    C159    1.455   1_455 S
C12    O227    1.292   1_455 S
C13    C19     1.398   .     A
C13    C17     1.399   .     A
C14    C16     1.391   .     A
C14    C22     1.404   .     A
C14    H121    1.083   .     S
C15    H44     1.083   .     S
C15    C24     1.404   .     A
C15    C17     1.392   .     A
C16    H120    1.083   .     S
C17    H197    1.083   1_455 S
C18    C20     1.405   .     A
C18    H59     1.075   .     S
C19    H58     1.076   .     S
C19    C21     1.405   .     A
C20    C22     1.418   .     A
C20    C25     1.427   .     A
C21    C26     1.426   .     A
C21    C24     1.418   .     A
C22    C734    1.390   .     S
C23    C26     1.417   .     A
C23    H60     1.076   .     S
C23    C32     1.386   .     A
C24    C735    1.390   1_554 S
C25    C31     1.417   .     A
C25    C728    1.424   .     S
C26    C727    1.424   1_554 S
C27    O78     1.418   .     S
C27    H45     1.115   .     S
C27    H46     1.108   .     S
C27    H47     1.107   .     S
C28    O68     1.407   .     S
C28    H51     1.106   .     S
C28    H49     1.114   .     S
C28    H48     1.105   .     S
C29    H54     1.108   .     S
C29    O69     1.408   .     S
C29    H53     1.115   .     S
C29    H52     1.110   .     S
C30    H57     1.110   .     S
C30    O70     1.417   .     S
C30    H56     1.106   .     S
C30    H55     1.113   .     S
C31    H61     1.076   .     S
C31    C33     1.387   .     A
C32    H39     1.084   .     S
C32    C724    1.390   1_554 S
C33    H50     1.084   .     S
C33    C726    1.390   .     S
C34    O78     1.383   .     S
C34    C504    1.398   1_545 S
C35    O68     1.389   .     S
C35    C159    1.404   1_455 S
C35    C236    1.399   .     S
C36    O69     1.388   .     S
C36    C268    1.398   .     S
Cu37   O74     1.957   .     S
Cu37   N65     2.017   .     S
Cu37   O73     1.977   .     S
Cu37   O77     1.944   .     S
Cu37   O67     1.976   .     S
Cu37   Cu194   2.683   1_455 S
Cu38   O72     1.977   .     S
Cu38   O76     1.944   .     S
Cu38   N66     2.017   .     S
Cu38   O75     1.957   .     S
Cu38   O71     1.976   .     S
Cu38   Cu115   2.683   .     S
H41    C95     1.083   .     S
H42    C172    1.083   1_455 S
H43    C170    1.083   1_455 S
O67    C157    1.297   1_455 S
O71    C90     1.292   .     S
O74    C165    1.298   1_455 S
O75    C88     1.297   .     S
C79    O150    1.296   .     A
C79    C82     1.469   .     S
C79    O223    1.297   .     S
C80    O148    1.382   .     S
C80    C581    1.399   1_545 S
C81    C114    1.406   .     A
C81    C168    1.455   .     S
C81    C191    1.404   .     S
C82    C112    1.417   .     A
C82    C158    1.415   .     S
C83    C85     1.417   .     A
C83    N144    1.369   .     A
C83    H140    1.081   .     S
C84    N143    1.368   .     A
C84    C86     1.416   .     A
C84    H141    1.081   .     S
C85    N143    1.367   .     A
C85    H142    1.081   .     S
C86    N144    1.366   .     A
C86    H118    1.081   .     S
C87    O154    1.296   .     A
C87    C89     1.467   .     S
C87    O230    1.298   .     S
C88    O155    1.296   .     A
C88    C91     1.466   .     S
C89    C96     1.399   .     A
C89    C94     1.399   .     A
C90    O151    1.294   .     A
C91    C97     1.398   .     A
C91    C95     1.399   .     A
C92    C94     1.391   .     A
C92    C100    1.404   .     A
C92    H199    1.083   .     S
C93    H122    1.083   .     S
C93    C102    1.404   .     A
C93    C95     1.392   .     A
C94    H198    1.083   .     S
C96    C98     1.405   .     A
C96    H137    1.075   .     S
C97    H136    1.076   .     S
C97    C99     1.405   .     A
C98    C100    1.418   .     A
C98    C103    1.427   .     A
C99    C104    1.426   .     A
C99    C102    1.418   .     A
C100   C812    1.390   .     S
C101   C104    1.417   .     A
C101   H138    1.076   .     S
C101   C110    1.386   .     A
C102   C813    1.390   1_554 S
C103   C109    1.417   .     A
C103   C806    1.424   .     S
C104   C805    1.424   1_554 S
C105   O156    1.418   .     S
C105   H123    1.115   .     S
C105   H124    1.108   .     S
C105   H125    1.107   .     S
C106   O146    1.407   .     S
C106   H129    1.106   .     S
C106   H127    1.114   .     S
C106   H126    1.105   .     S
C107   H132    1.108   .     S
C107   O147    1.408   .     S
C107   H131    1.115   .     S
C107   H130    1.110   .     S
C108   H135    1.110   .     S
C108   O148    1.417   .     S
C108   H134    1.106   .     S
C108   H133    1.113   .     S
C109   H139    1.076   .     S
C109   C111    1.387   .     A
C110   H117    1.084   .     S
C110   C802    1.390   1_554 S
C111   H128    1.084   .     S
C111   C804    1.390   .     S
C112   O156    1.383   .     S
C112   C582    1.398   1_545 S
C113   O146    1.389   .     S
C113   C314    1.399   .     S
C114   O147    1.388   .     S
C114   C346    1.398   .     S
Cu115  O152    1.957   .     S
Cu115  N143    2.017   .     S
Cu115  O151    1.977   .     S
Cu115  O155    1.944   .     S
Cu115  O145    1.976   .     S
Cu116  O150    1.977   .     S
Cu116  O154    1.944   .     S
Cu116  N144    2.017   .     S
Cu116  O153    1.957   .     S
Cu116  O149    1.976   .     S
Cu116  Cu193   2.683   .     S
H119   C173    1.083   .     S
O149   C168    1.292   .     S
O153   C166    1.297   .     S
C157   O228    1.296   .     A
C157   C160    1.469   .     S
C157   O67     1.297   1_655 S
C158   O226    1.382   .     S
C158   C659    1.399   1_545 S
C159   C192    1.406   .     A
C159   C12     1.455   1_655 S
C159   C35     1.404   1_655 S
C160   C190    1.417   .     A
C160   C2      1.415   1_655 S
C161   C163    1.417   .     A
C161   N222    1.369   .     A
C161   H218    1.081   .     S
C162   N221    1.368   .     A
C162   C164    1.416   .     A
C162   H219    1.081   .     S
C163   N221    1.367   .     A
C163   H220    1.081   .     S
C164   N222    1.366   .     A
C164   H196    1.081   .     S
C165   O232    1.296   .     A
C165   C167    1.467   .     S
C165   O74     1.298   1_655 S
C166   O233    1.296   .     A
C166   C169    1.466   .     S
C167   C174    1.399   .     A
C167   C172    1.399   .     A
C168   O229    1.294   .     A
C169   C175    1.398   .     A
C169   C173    1.399   .     A
C170   C172    1.391   .     A
C170   C178    1.404   .     A
C170   H43     1.083   1_655 S
C171   H200    1.083   .     S
C171   C180    1.404   .     A
C171   C173    1.392   .     A
C172   H42     1.083   1_655 S
C174   C176    1.405   .     A
C174   H215    1.075   .     S
C175   H214    1.076   .     S
C175   C177    1.405   .     A
C176   C178    1.418   .     A
C176   C181    1.427   .     A
C177   C182    1.426   .     A
C177   C180    1.418   .     A
C178   C890    1.390   .     S
C179   C182    1.417   .     A
C179   H216    1.076   .     S
C179   C188    1.386   .     A
C180   C891    1.390   1_554 S
C181   C187    1.417   .     A
C181   C884    1.424   .     S
C182   C883    1.424   1_554 S
C183   O234    1.418   .     S
C183   H201    1.115   .     S
C183   H202    1.108   .     S
C183   H203    1.107   .     S
C184   O224    1.407   .     S
C184   H207    1.106   .     S
C184   H205    1.114   .     S
C184   H204    1.105   .     S
C185   H210    1.108   .     S
C185   O225    1.408   .     S
C185   H209    1.115   .     S
C185   H208    1.110   .     S
C186   H213    1.110   .     S
C186   O226    1.417   .     S
C186   H212    1.106   .     S
C186   H211    1.113   .     S
C187   H217    1.076   .     S
C187   C189    1.387   .     A
C188   H195    1.084   .     S
C188   C880    1.390   1_554 S
C189   H206    1.084   .     S
C189   C882    1.390   .     S
C190   O234    1.383   .     S
C190   C660    1.398   1_545 S
C191   O224    1.389   .     S
C191   C392    1.399   .     S
C192   O225    1.388   .     S
C192   C424    1.398   .     S
Cu193  O230    1.957   .     S
Cu193  N221    2.017   .     S
Cu193  O229    1.977   .     S
Cu193  O233    1.944   .     S
Cu193  O223    1.976   .     S
Cu194  O228    1.977   .     S
Cu194  O232    1.944   .     S
Cu194  N222    2.017   .     S
Cu194  O231    1.957   .     S
Cu194  O227    1.976   .     S
Cu194  Cu37    2.683   1_655 S
H197   C17     1.083   1_655 S
O227   C12     1.292   1_655 S
O231   C10     1.297   1_655 S
C235   O306    1.296   .     A
C235   C238    1.469   .     S
C235   O379    1.297   .     S
C236   O304    1.382   .     S
C236   C394    1.415   1_455 S
C237   C270    1.406   .     A
C237   C324    1.455   .     S
C237   C347    1.404   .     S
C238   C268    1.417   .     A
C238   C314    1.415   .     S
C239   C241    1.417   .     A
C239   N300    1.369   .     A
C239   H296    1.081   .     S
C240   N299    1.368   .     A
C240   C242    1.416   .     A
C240   H297    1.081   .     S
C241   N299    1.367   .     A
C241   H298    1.081   .     S
C242   N300    1.366   .     A
C242   H274    1.081   .     S
C243   O310    1.296   .     A
C243   C245    1.467   .     S
C243   O386    1.298   .     S
C244   O311    1.296   .     A
C244   C247    1.466   .     S
C244   O465    1.297   1_455 S
C245   C252    1.399   .     A
C245   C250    1.399   .     A
C246   O307    1.294   .     A
C246   C393    1.455   1_455 S
C246   O461    1.292   1_455 S
C247   C253    1.398   .     A
C247   C251    1.399   .     A
C248   C250    1.391   .     A
C248   C256    1.404   .     A
C248   H355    1.083   .     S
C249   H278    1.083   .     S
C249   C258    1.404   .     A
C249   C251    1.392   .     A
C250   H354    1.083   .     S
C251   H431    1.083   1_455 S
C252   C254    1.405   .     A
C252   H293    1.075   .     S
C253   H292    1.076   .     S
C253   C255    1.405   .     A
C254   C256    1.418   .     A
C254   C259    1.427   .     A
C255   C260    1.426   .     A
C255   C258    1.418   .     A
C256   C968    1.390   .     S
C257   C260    1.417   .     A
C257   H294    1.076   .     S
C257   C266    1.386   .     A
C258   C969    1.390   1_554 S
C259   C265    1.417   .     A
C259   C962    1.424   .     S
C260   C961    1.424   1_554 S
C261   O312    1.418   .     S
C261   H279    1.115   .     S
C261   H280    1.108   .     S
C261   H281    1.107   .     S
C262   O302    1.407   .     S
C262   H285    1.106   .     S
C262   H283    1.114   .     S
C262   H282    1.105   .     S
C263   H288    1.108   .     S
C263   O303    1.408   .     S
C263   H287    1.115   .     S
C263   H286    1.110   .     S
C264   H291    1.110   .     S
C264   O304    1.417   .     S
C264   H290    1.106   .     S
C264   H289    1.113   .     S
C265   H295    1.076   .     S
C265   C267    1.387   .     A
C266   H273    1.084   .     S
C266   C958    1.390   1_554 S
C267   H284    1.084   .     S
C267   C960    1.390   .     S
C268   O312    1.383   .     S
C269   O302    1.389   .     S
C269   C393    1.404   1_455 S
C269   C470    1.399   .     S
C270   O303    1.388   .     S
C270   C502    1.398   .     S
Cu271  O308    1.957   .     S
Cu271  N299    2.017   .     S
Cu271  O307    1.977   .     S
Cu271  O311    1.944   .     S
Cu271  O301    1.976   .     S
Cu271  Cu428   2.683   1_455 S
Cu272  O306    1.977   .     S
Cu272  O310    1.944   .     S
Cu272  N300    2.017   .     S
Cu272  O309    1.957   .     S
Cu272  O305    1.976   .     S
Cu272  Cu349   2.683   .     S
H275   C329    1.083   .     S
H276   C406    1.083   1_455 S
H277   C404    1.083   1_455 S
O301   C391    1.297   1_455 S
O305   C324    1.292   .     S
O308   C399    1.298   1_455 S
O309   C322    1.297   .     S
C313   O384    1.296   .     A
C313   C316    1.469   .     S
C313   O457    1.297   .     S
C314   O382    1.382   .     S
C315   C348    1.406   .     A
C315   C402    1.455   .     S
C315   C425    1.404   .     S
C316   C346    1.417   .     A
C316   C392    1.415   .     S
C317   C319    1.417   .     A
C317   N378    1.369   .     A
C317   H374    1.081   .     S
C318   N377    1.368   .     A
C318   C320    1.416   .     A
C318   H375    1.081   .     S
C319   N377    1.367   .     A
C319   H376    1.081   .     S
C320   N378    1.366   .     A
C320   H352    1.081   .     S
C321   O388    1.296   .     A
C321   C323    1.467   .     S
C321   O464    1.298   .     S
C322   O389    1.296   .     A
C322   C325    1.466   .     S
C323   C330    1.399   .     A
C323   C328    1.399   .     A
C324   O385    1.294   .     A
C325   C331    1.398   .     A
C325   C329    1.399   .     A
C326   C328    1.391   .     A
C326   C334    1.404   .     A
C326   H433    1.083   .     S
C327   H356    1.083   .     S
C327   C336    1.404   .     A
C327   C329    1.392   .     A
C328   H432    1.083   .     S
C330   C332    1.405   .     A
C330   H371    1.075   .     S
C331   H370    1.076   .     S
C331   C333    1.405   .     A
C332   C334    1.418   .     A
C332   C337    1.427   .     A
C333   C338    1.426   .     A
C333   C336    1.418   .     A
C334   C1046   1.390   .     S
C335   C338    1.417   .     A
C335   H372    1.076   .     S
C335   C344    1.386   .     A
C336   C1047   1.390   1_554 S
C337   C343    1.417   .     A
C337   C1040   1.424   .     S
C338   C1039   1.424   1_554 S
C339   O390    1.418   .     S
C339   H357    1.115   .     S
C339   H358    1.108   .     S
C339   H359    1.107   .     S
C340   O380    1.407   .     S
C340   H363    1.106   .     S
C340   H361    1.114   .     S
C340   H360    1.105   .     S
C341   H366    1.108   .     S
C341   O381    1.408   .     S
C341   H365    1.115   .     S
C341   H364    1.110   .     S
C342   H369    1.110   .     S
C342   O382    1.417   .     S
C342   H368    1.106   .     S
C342   H367    1.113   .     S
C343   H373    1.076   .     S
C343   C345    1.387   .     A
C344   H351    1.084   .     S
C344   C1036   1.390   1_554 S
C345   H362    1.084   .     S
C345   C1038   1.390   .     S
C346   O390    1.383   .     S
C347   O380    1.389   .     S
C347   C548    1.399   .     S
C348   O381    1.388   .     S
C348   C580    1.398   .     S
Cu349  O386    1.957   .     S
Cu349  N377    2.017   .     S
Cu349  O385    1.977   .     S
Cu349  O389    1.944   .     S
Cu349  O379    1.976   .     S
Cu350  O384    1.977   .     S
Cu350  O388    1.944   .     S
Cu350  N378    2.017   .     S
Cu350  O387    1.957   .     S
Cu350  O383    1.976   .     S
Cu350  Cu427   2.683   .     S
H353   C407    1.083   .     S
O383   C402    1.292   .     S
O387   C400    1.297   .     S
C391   O462    1.296   .     A
C391   C394    1.469   .     S
C391   O301    1.297   1_655 S
C392   O460    1.382   .     S
C393   C426    1.406   .     A
C393   C246    1.455   1_655 S
C393   C269    1.404   1_655 S
C394   C424    1.417   .     A
C394   C236    1.415   1_655 S
C395   C397    1.417   .     A
C395   N456    1.369   .     A
C395   H452    1.081   .     S
C396   N455    1.368   .     A
C396   C398    1.416   .     A
C396   H453    1.081   .     S
C397   N455    1.367   .     A
C397   H454    1.081   .     S
C398   N456    1.366   .     A
C398   H430    1.081   .     S
C399   O466    1.296   .     A
C399   C401    1.467   .     S
C399   O308    1.298   1_655 S
C400   O467    1.296   .     A
C400   C403    1.466   .     S
C401   C408    1.399   .     A
C401   C406    1.399   .     A
C402   O463    1.294   .     A
C403   C409    1.398   .     A
C403   C407    1.399   .     A
C404   C406    1.391   .     A
C404   C412    1.404   .     A
C404   H277    1.083   1_655 S
C405   H434    1.083   .     S
C405   C414    1.404   .     A
C405   C407    1.392   .     A
C406   H276    1.083   1_655 S
C408   C410    1.405   .     A
C408   H449    1.075   .     S
C409   H448    1.076   .     S
C409   C411    1.405   .     A
C410   C412    1.418   .     A
C410   C415    1.427   .     A
C411   C416    1.426   .     A
C411   C414    1.418   .     A
C412   C1124   1.390   .     S
C413   C416    1.417   .     A
C413   H450    1.076   .     S
C413   C422    1.386   .     A
C414   C1125   1.390   1_554 S
C415   C421    1.417   .     A
C415   C1118   1.424   .     S
C416   C1117   1.424   1_554 S
C417   O468    1.418   .     S
C417   H435    1.115   .     S
C417   H436    1.108   .     S
C417   H437    1.107   .     S
C418   O458    1.407   .     S
C418   H441    1.106   .     S
C418   H439    1.114   .     S
C418   H438    1.105   .     S
C419   H444    1.108   .     S
C419   O459    1.408   .     S
C419   H443    1.115   .     S
C419   H442    1.110   .     S
C420   H447    1.110   .     S
C420   O460    1.417   .     S
C420   H446    1.106   .     S
C420   H445    1.113   .     S
C421   H451    1.076   .     S
C421   C423    1.387   .     A
C422   H429    1.084   .     S
C422   C1114   1.390   1_554 S
C423   H440    1.084   .     S
C423   C1116   1.390   .     S
C424   O468    1.383   .     S
C425   O458    1.389   .     S
C425   C626    1.399   .     S
C426   O459    1.388   .     S
C426   C658    1.398   .     S
Cu427  O464    1.957   .     S
Cu427  N455    2.017   .     S
Cu427  O463    1.977   .     S
Cu427  O467    1.944   .     S
Cu427  O457    1.976   .     S
Cu428  O462    1.977   .     S
Cu428  O466    1.944   .     S
Cu428  N456    2.017   .     S
Cu428  O465    1.957   .     S
Cu428  O461    1.976   .     S
Cu428  Cu271   2.683   1_655 S
H431   C251    1.083   1_655 S
O461   C246    1.292   1_655 S
O465   C244    1.297   1_655 S
C469   O540    1.296   .     A
C469   C472    1.469   .     S
C469   O613    1.297   .     S
C470   O538    1.382   .     S
C470   C628    1.415   1_455 S
C471   C504    1.406   .     A
C471   C558    1.455   .     S
C471   C581    1.404   .     S
C472   C502    1.417   .     A
C472   C548    1.415   .     S
C473   C475    1.417   .     A
C473   N534    1.369   .     A
C473   H530    1.081   .     S
C474   N533    1.368   .     A
C474   C476    1.416   .     A
C474   H531    1.081   .     S
C475   N533    1.367   .     A
C475   H532    1.081   .     S
C476   N534    1.366   .     A
C476   H508    1.081   .     S
C477   O544    1.296   .     A
C477   C479    1.467   .     S
C477   O620    1.298   .     S
C478   O545    1.296   .     A
C478   C481    1.466   .     S
C478   O699    1.297   1_455 S
C479   C486    1.399   .     A
C479   C484    1.399   .     A
C480   O541    1.294   .     A
C480   C627    1.455   1_455 S
C480   O695    1.292   1_455 S
C481   C487    1.398   .     A
C481   C485    1.399   .     A
C482   C484    1.391   .     A
C482   C490    1.404   .     A
C482   H589    1.083   .     S
C483   H512    1.083   .     S
C483   C492    1.404   .     A
C483   C485    1.392   .     A
C484   H588    1.083   .     S
C485   H665    1.083   1_455 S
C486   C488    1.405   .     A
C486   H527    1.075   .     S
C487   H526    1.076   .     S
C487   C489    1.405   .     A
C488   C490    1.418   .     A
C488   C493    1.427   .     A
C489   C494    1.426   .     A
C489   C492    1.418   .     A
C490   C1202   1.390   .     S
C491   C494    1.417   .     A
C491   H528    1.076   .     S
C491   C500    1.386   .     A
C492   C1203   1.390   1_554 S
C493   C499    1.417   .     A
C493   C1196   1.424   .     S
C494   C1195   1.424   1_554 S
C495   O546    1.418   .     S
C495   H513    1.115   .     S
C495   H514    1.108   .     S
C495   H515    1.107   .     S
C496   O536    1.407   .     S
C496   H519    1.106   .     S
C496   H517    1.114   .     S
C496   H516    1.105   .     S
C497   H522    1.108   .     S
C497   O537    1.408   .     S
C497   H521    1.115   .     S
C497   H520    1.110   .     S
C498   H525    1.110   .     S
C498   O538    1.417   .     S
C498   H524    1.106   .     S
C498   H523    1.113   .     S
C499   H529    1.076   .     S
C499   C501    1.387   .     A
C500   H507    1.084   .     S
C500   C1192   1.390   1_554 S
C501   H518    1.084   .     S
C501   C1194   1.390   .     S
C502   O546    1.383   .     S
C503   O536    1.389   .     S
C503   C627    1.404   1_455 S
C503   C2      1.399   1_565 S
C504   O537    1.388   .     S
C504   C34     1.398   1_565 S
Cu505  O542    1.957   .     S
Cu505  N533    2.017   .     S
Cu505  O541    1.977   .     S
Cu505  O545    1.944   .     S
Cu505  O535    1.976   .     S
Cu505  Cu662   2.683   1_455 S
Cu506  O540    1.977   .     S
Cu506  O544    1.944   .     S
Cu506  N534    2.017   .     S
Cu506  O543    1.957   .     S
Cu506  O539    1.976   .     S
Cu506  Cu583   2.683   .     S
H509   C563    1.083   .     S
H510   C640    1.083   1_455 S
H511   C638    1.083   1_455 S
O535   C625    1.297   1_455 S
O539   C558    1.292   .     S
O542   C633    1.298   1_455 S
O543   C556    1.297   .     S
C547   O618    1.296   .     A
C547   C550    1.469   .     S
C547   O691    1.297   .     S
C548   O616    1.382   .     S
C549   C582    1.406   .     A
C549   C636    1.455   .     S
C549   C659    1.404   .     S
C550   C580    1.417   .     A
C550   C626    1.415   .     S
C551   C553    1.417   .     A
C551   N612    1.369   .     A
C551   H608    1.081   .     S
C552   N611    1.368   .     A
C552   C554    1.416   .     A
C552   H609    1.081   .     S
C553   N611    1.367   .     A
C553   H610    1.081   .     S
C554   N612    1.366   .     A
C554   H586    1.081   .     S
C555   O622    1.296   .     A
C555   C557    1.467   .     S
C555   O698    1.298   .     S
C556   O623    1.296   .     A
C556   C559    1.466   .     S
C557   C564    1.399   .     A
C557   C562    1.399   .     A
C558   O619    1.294   .     A
C559   C565    1.398   .     A
C559   C563    1.399   .     A
C560   C562    1.391   .     A
C560   C568    1.404   .     A
C560   H667    1.083   .     S
C561   H590    1.083   .     S
C561   C570    1.404   .     A
C561   C563    1.392   .     A
C562   H666    1.083   .     S
C564   C566    1.405   .     A
C564   H605    1.075   .     S
C565   H604    1.076   .     S
C565   C567    1.405   .     A
C566   C568    1.418   .     A
C566   C571    1.427   .     A
C567   C572    1.426   .     A
C567   C570    1.418   .     A
C568   C1280   1.390   .     S
C569   C572    1.417   .     A
C569   H606    1.076   .     S
C569   C578    1.386   .     A
C570   C1281   1.390   1_554 S
C571   C577    1.417   .     A
C571   C1274   1.424   .     S
C572   C1273   1.424   1_554 S
C573   O624    1.418   .     S
C573   H591    1.115   .     S
C573   H592    1.108   .     S
C573   H593    1.107   .     S
C574   O614    1.407   .     S
C574   H597    1.106   .     S
C574   H595    1.114   .     S
C574   H594    1.105   .     S
C575   H600    1.108   .     S
C575   O615    1.408   .     S
C575   H599    1.115   .     S
C575   H598    1.110   .     S
C576   H603    1.110   .     S
C576   O616    1.417   .     S
C576   H602    1.106   .     S
C576   H601    1.113   .     S
C577   H607    1.076   .     S
C577   C579    1.387   .     A
C578   H585    1.084   .     S
C578   C1270   1.390   1_554 S
C579   H596    1.084   .     S
C579   C1272   1.390   .     S
C580   O624    1.383   .     S
C581   O614    1.389   .     S
C581   C80     1.399   1_565 S
C582   O615    1.388   .     S
C582   C112    1.398   1_565 S
Cu583  O620    1.957   .     S
Cu583  N611    2.017   .     S
Cu583  O619    1.977   .     S
Cu583  O623    1.944   .     S
Cu583  O613    1.976   .     S
Cu584  O618    1.977   .     S
Cu584  O622    1.944   .     S
Cu584  N612    2.017   .     S
Cu584  O621    1.957   .     S
Cu584  O617    1.976   .     S
Cu584  Cu661   2.683   .     S
H587   C641    1.083   .     S
O617   C636    1.292   .     S
O621   C634    1.297   .     S
C625   O696    1.296   .     A
C625   C628    1.469   .     S
C625   O535    1.297   1_655 S
C626   O694    1.382   .     S
C627   C660    1.406   .     A
C627   C480    1.455   1_655 S
C627   C503    1.404   1_655 S
C628   C658    1.417   .     A
C628   C470    1.415   1_655 S
C629   C631    1.417   .     A
C629   N690    1.369   .     A
C629   H686    1.081   .     S
C630   N689    1.368   .     A
C630   C632    1.416   .     A
C630   H687    1.081   .     S
C631   N689    1.367   .     A
C631   H688    1.081   .     S
C632   N690    1.366   .     A
C632   H664    1.081   .     S
C633   O700    1.296   .     A
C633   C635    1.467   .     S
C633   O542    1.298   1_655 S
C634   O701    1.296   .     A
C634   C637    1.466   .     S
C635   C642    1.399   .     A
C635   C640    1.399   .     A
C636   O697    1.294   .     A
C637   C643    1.398   .     A
C637   C641    1.399   .     A
C638   C640    1.391   .     A
C638   C646    1.404   .     A
C638   H511    1.083   1_655 S
C639   H668    1.083   .     S
C639   C648    1.404   .     A
C639   C641    1.392   .     A
C640   H510    1.083   1_655 S
C642   C644    1.405   .     A
C642   H683    1.075   .     S
C643   H682    1.076   .     S
C643   C645    1.405   .     A
C644   C646    1.418   .     A
C644   C649    1.427   .     A
C645   C650    1.426   .     A
C645   C648    1.418   .     A
C646   C1358   1.390   .     S
C647   C650    1.417   .     A
C647   H684    1.076   .     S
C647   C656    1.386   .     A
C648   C1359   1.390   1_554 S
C649   C655    1.417   .     A
C649   C1352   1.424   .     S
C650   C1351   1.424   1_554 S
C651   O702    1.418   .     S
C651   H669    1.115   .     S
C651   H670    1.108   .     S
C651   H671    1.107   .     S
C652   O692    1.407   .     S
C652   H675    1.106   .     S
C652   H673    1.114   .     S
C652   H672    1.105   .     S
C653   H678    1.108   .     S
C653   O693    1.408   .     S
C653   H677    1.115   .     S
C653   H676    1.110   .     S
C654   H681    1.110   .     S
C654   O694    1.417   .     S
C654   H680    1.106   .     S
C654   H679    1.113   .     S
C655   H685    1.076   .     S
C655   C657    1.387   .     A
C656   H663    1.084   .     S
C656   C1348   1.390   1_554 S
C657   H674    1.084   .     S
C657   C1350   1.390   .     S
C658   O702    1.383   .     S
C659   O692    1.389   .     S
C659   C158    1.399   1_565 S
C660   O693    1.388   .     S
C660   C190    1.398   1_565 S
Cu661  O698    1.957   .     S
Cu661  N689    2.017   .     S
Cu661  O697    1.977   .     S
Cu661  O701    1.944   .     S
Cu661  O691    1.976   .     S
Cu662  O696    1.977   .     S
Cu662  O700    1.944   .     S
Cu662  N690    2.017   .     S
Cu662  O699    1.957   .     S
Cu662  O695    1.976   .     S
Cu662  Cu505   2.683   1_655 S
H665   C485    1.083   1_655 S
O695   C480    1.292   1_655 S
O699   C478    1.297   1_655 S
C703   O774    1.296   .     A
C703   C706    1.469   .     S
C703   O847    1.297   .     S
C704   O772    1.382   .     S
C704   C862    1.415   1_455 S
C704   C1205   1.399   1_545 S
C705   C738    1.406   .     A
C705   C792    1.455   .     S
C705   C815    1.404   .     S
C706   C736    1.417   .     A
C706   C782    1.415   .     S
C707   C709    1.417   .     A
C707   N768    1.369   .     A
C707   H764    1.081   .     S
C708   N767    1.368   .     A
C708   C710    1.416   .     A
C708   H765    1.081   .     S
C709   N767    1.367   .     A
C709   H766    1.081   .     S
C710   N768    1.366   .     A
C710   H742    1.081   .     S
C711   O778    1.296   .     A
C711   C713    1.467   .     S
C711   O854    1.298   .     S
C712   O779    1.296   .     A
C712   C715    1.466   .     S
C712   O933    1.297   1_455 S
C713   C720    1.399   .     A
C713   C718    1.399   .     A
C714   O775    1.294   .     A
C714   C861    1.455   1_455 S
C714   O929    1.292   1_455 S
C715   C721    1.398   .     A
C715   C719    1.399   .     A
C716   C718    1.391   .     A
C716   C724    1.404   .     A
C716   H823    1.083   .     S
C717   H746    1.083   .     S
C717   C726    1.404   .     A
C717   C719    1.392   .     A
C718   H822    1.083   .     S
C719   H899    1.083   1_455 S
C720   C722    1.405   .     A
C720   H761    1.075   .     S
C721   H760    1.076   .     S
C721   C723    1.405   .     A
C722   C724    1.418   .     A
C722   C727    1.427   .     A
C723   C728    1.426   .     A
C723   C726    1.418   .     A
C724   C32     1.390   1_556 S
C725   C728    1.417   .     A
C725   H762    1.076   .     S
C725   C734    1.386   .     A
C727   C733    1.417   .     A
C727   C26     1.424   1_556 S
C729   O780    1.418   .     S
C729   H747    1.115   .     S
C729   H748    1.108   .     S
C729   H749    1.107   .     S
C730   O770    1.407   .     S
C730   H753    1.106   .     S
C730   H751    1.114   .     S
C730   H750    1.105   .     S
C731   H756    1.108   .     S
C731   O771    1.408   .     S
C731   H755    1.115   .     S
C731   H754    1.110   .     S
C732   H759    1.110   .     S
C732   O772    1.417   .     S
C732   H758    1.106   .     S
C732   H757    1.113   .     S
C733   H763    1.076   .     S
C733   C735    1.387   .     A
C734   H741    1.084   .     S
C735   H752    1.084   .     S
C735   C24     1.390   1_556 S
C736   O780    1.383   .     S
C736   C1206   1.398   1_545 S
C737   O770    1.389   .     S
C737   C861    1.404   1_455 S
C737   C938    1.399   .     S
C738   O771    1.388   .     S
C738   C970    1.398   .     S
Cu739  O776    1.957   .     S
Cu739  N767    2.017   .     S
Cu739  O775    1.977   .     S
Cu739  O779    1.944   .     S
Cu739  O769    1.976   .     S
Cu739  Cu896   2.683   1_455 S
Cu740  O774    1.977   .     S
Cu740  O778    1.944   .     S
Cu740  N768    2.017   .     S
Cu740  O777    1.957   .     S
Cu740  O773    1.976   .     S
Cu740  Cu817   2.683   .     S
H743   C797    1.083   .     S
H744   C874    1.083   1_455 S
H745   C872    1.083   1_455 S
O769   C859    1.297   1_455 S
O773   C792    1.292   .     S
O776   C867    1.298   1_455 S
O777   C790    1.297   .     S
C781   O852    1.296   .     A
C781   C784    1.469   .     S
C781   O925    1.297   .     S
C782   O850    1.382   .     S
C782   C1283   1.399   1_545 S
C783   C816    1.406   .     A
C783   C870    1.455   .     S
C783   C893    1.404   .     S
C784   C814    1.417   .     A
C784   C860    1.415   .     S
C785   C787    1.417   .     A
C785   N846    1.369   .     A
C785   H842    1.081   .     S
C786   N845    1.368   .     A
C786   C788    1.416   .     A
C786   H843    1.081   .     S
C787   N845    1.367   .     A
C787   H844    1.081   .     S
C788   N846    1.366   .     A
C788   H820    1.081   .     S
C789   O856    1.296   .     A
C789   C791    1.467   .     S
C789   O932    1.298   .     S
C790   O857    1.296   .     A
C790   C793    1.466   .     S
C791   C798    1.399   .     A
C791   C796    1.399   .     A
C792   O853    1.294   .     A
C793   C799    1.398   .     A
C793   C797    1.399   .     A
C794   C796    1.391   .     A
C794   C802    1.404   .     A
C794   H901    1.083   .     S
C795   H824    1.083   .     S
C795   C804    1.404   .     A
C795   C797    1.392   .     A
C796   H900    1.083   .     S
C798   C800    1.405   .     A
C798   H839    1.075   .     S
C799   H838    1.076   .     S
C799   C801    1.405   .     A
C800   C802    1.418   .     A
C800   C805    1.427   .     A
C801   C806    1.426   .     A
C801   C804    1.418   .     A
C802   C110    1.390   1_556 S
C803   C806    1.417   .     A
C803   H840    1.076   .     S
C803   C812    1.386   .     A
C805   C811    1.417   .     A
C805   C104    1.424   1_556 S
C807   O858    1.418   .     S
C807   H825    1.115   .     S
C807   H826    1.108   .     S
C807   H827    1.107   .     S
C808   O848    1.407   .     S
C808   H831    1.106   .     S
C808   H829    1.114   .     S
C808   H828    1.105   .     S
C809   H834    1.108   .     S
C809   O849    1.408   .     S
C809   H833    1.115   .     S
C809   H832    1.110   .     S
C810   H837    1.110   .     S
C810   O850    1.417   .     S
C810   H836    1.106   .     S
C810   H835    1.113   .     S
C811   H841    1.076   .     S
C811   C813    1.387   .     A
C812   H819    1.084   .     S
C813   H830    1.084   .     S
C813   C102    1.390   1_556 S
C814   O858    1.383   .     S
C814   C1284   1.398   1_545 S
C815   O848    1.389   .     S
C815   C1016   1.399   .     S
C816   O849    1.388   .     S
C816   C1048   1.398   .     S
Cu817  O854    1.957   .     S
Cu817  N845    2.017   .     S
Cu817  O853    1.977   .     S
Cu817  O857    1.944   .     S
Cu817  O847    1.976   .     S
Cu818  O852    1.977   .     S
Cu818  O856    1.944   .     S
Cu818  N846    2.017   .     S
Cu818  O855    1.957   .     S
Cu818  O851    1.976   .     S
Cu818  Cu895   2.683   .     S
H821   C875    1.083   .     S
O851   C870    1.292   .     S
O855   C868    1.297   .     S
C859   O930    1.296   .     A
C859   C862    1.469   .     S
C859   O769    1.297   1_655 S
C860   O928    1.382   .     S
C860   C1361   1.399   1_545 S
C861   C894    1.406   .     A
C861   C714    1.455   1_655 S
C861   C737    1.404   1_655 S
C862   C892    1.417   .     A
C862   C704    1.415   1_655 S
C863   C865    1.417   .     A
C863   N924    1.369   .     A
C863   H920    1.081   .     S
C864   N923    1.368   .     A
C864   C866    1.416   .     A
C864   H921    1.081   .     S
C865   N923    1.367   .     A
C865   H922    1.081   .     S
C866   N924    1.366   .     A
C866   H898    1.081   .     S
C867   O934    1.296   .     A
C867   C869    1.467   .     S
C867   O776    1.298   1_655 S
C868   O935    1.296   .     A
C868   C871    1.466   .     S
C869   C876    1.399   .     A
C869   C874    1.399   .     A
C870   O931    1.294   .     A
C871   C877    1.398   .     A
C871   C875    1.399   .     A
C872   C874    1.391   .     A
C872   C880    1.404   .     A
C872   H745    1.083   1_655 S
C873   H902    1.083   .     S
C873   C882    1.404   .     A
C873   C875    1.392   .     A
C874   H744    1.083   1_655 S
C876   C878    1.405   .     A
C876   H917    1.075   .     S
C877   H916    1.076   .     S
C877   C879    1.405   .     A
C878   C880    1.418   .     A
C878   C883    1.427   .     A
C879   C884    1.426   .     A
C879   C882    1.418   .     A
C880   C188    1.390   1_556 S
C881   C884    1.417   .     A
C881   H918    1.076   .     S
C881   C890    1.386   .     A
C883   C889    1.417   .     A
C883   C182    1.424   1_556 S
C885   O936    1.418   .     S
C885   H903    1.115   .     S
C885   H904    1.108   .     S
C885   H905    1.107   .     S
C886   O926    1.407   .     S
C886   H909    1.106   .     S
C886   H907    1.114   .     S
C886   H906    1.105   .     S
C887   H912    1.108   .     S
C887   O927    1.408   .     S
C887   H911    1.115   .     S
C887   H910    1.110   .     S
C888   H915    1.110   .     S
C888   O928    1.417   .     S
C888   H914    1.106   .     S
C888   H913    1.113   .     S
C889   H919    1.076   .     S
C889   C891    1.387   .     A
C890   H897    1.084   .     S
C891   H908    1.084   .     S
C891   C180    1.390   1_556 S
C892   O936    1.383   .     S
C892   C1362   1.398   1_545 S
C893   O926    1.389   .     S
C893   C1094   1.399   .     S
C894   O927    1.388   .     S
C894   C1126   1.398   .     S
Cu895  O932    1.957   .     S
Cu895  N923    2.017   .     S
Cu895  O931    1.977   .     S
Cu895  O935    1.944   .     S
Cu895  O925    1.976   .     S
Cu896  O930    1.977   .     S
Cu896  O934    1.944   .     S
Cu896  N924    2.017   .     S
Cu896  O933    1.957   .     S
Cu896  O929    1.976   .     S
Cu896  Cu739   2.683   1_655 S
H899   C719    1.083   1_655 S
O929   C714    1.292   1_655 S
O933   C712    1.297   1_655 S
C937   O1008   1.296   .     A
C937   C940    1.469   .     S
C937   O1081   1.297   .     S
C938   O1006   1.382   .     S
C938   C1096   1.415   1_455 S
C939   C972    1.406   .     A
C939   C1026   1.455   .     S
C939   C1049   1.404   .     S
C940   C970    1.417   .     A
C940   C1016   1.415   .     S
C941   C943    1.417   .     A
C941   N1002   1.369   .     A
C941   H998    1.081   .     S
C942   N1001   1.368   .     A
C942   C944    1.416   .     A
C942   H999    1.081   .     S
C943   N1001   1.367   .     A
C943   H1000   1.081   .     S
C944   N1002   1.366   .     A
C944   H976    1.081   .     S
C945   O1012   1.296   .     A
C945   C947    1.467   .     S
C945   O1088   1.298   .     S
C946   O1013   1.296   .     A
C946   C949    1.466   .     S
C946   O1167   1.297   1_455 S
C947   C954    1.399   .     A
C947   C952    1.399   .     A
C948   O1009   1.294   .     A
C948   C1095   1.455   1_455 S
C948   O1163   1.292   1_455 S
C949   C955    1.398   .     A
C949   C953    1.399   .     A
C950   C952    1.391   .     A
C950   C958    1.404   .     A
C950   H1057   1.083   .     S
C951   H980    1.083   .     S
C951   C960    1.404   .     A
C951   C953    1.392   .     A
C952   H1056   1.083   .     S
C953   H1133   1.083   1_455 S
C954   C956    1.405   .     A
C954   H995    1.075   .     S
C955   H994    1.076   .     S
C955   C957    1.405   .     A
C956   C958    1.418   .     A
C956   C961    1.427   .     A
C957   C962    1.426   .     A
C957   C960    1.418   .     A
C958   C266    1.390   1_556 S
C959   C962    1.417   .     A
C959   H996    1.076   .     S
C959   C968    1.386   .     A
C961   C967    1.417   .     A
C961   C260    1.424   1_556 S
C963   O1014   1.418   .     S
C963   H981    1.115   .     S
C963   H982    1.108   .     S
C963   H983    1.107   .     S
C964   O1004   1.407   .     S
C964   H987    1.106   .     S
C964   H985    1.114   .     S
C964   H984    1.105   .     S
C965   H990    1.108   .     S
C965   O1005   1.408   .     S
C965   H989    1.115   .     S
C965   H988    1.110   .     S
C966   H993    1.110   .     S
C966   O1006   1.417   .     S
C966   H992    1.106   .     S
C966   H991    1.113   .     S
C967   H997    1.076   .     S
C967   C969    1.387   .     A
C968   H975    1.084   .     S
C969   H986    1.084   .     S
C969   C258    1.390   1_556 S
C970   O1014   1.383   .     S
C971   O1004   1.389   .     S
C971   C1095   1.404   1_455 S
C971   C1172   1.399   .     S
C972   O1005   1.388   .     S
C972   C1204   1.398   .     S
Cu973  O1010   1.957   .     S
Cu973  N1001   2.017   .     S
Cu973  O1009   1.977   .     S
Cu973  O1013   1.944   .     S
Cu973  O1003   1.976   .     S
Cu973  Cu1130  2.683   1_455 S
Cu974  O1008   1.977   .     S
Cu974  O1012   1.944   .     S
Cu974  N1002   2.017   .     S
Cu974  O1011   1.957   .     S
Cu974  O1007   1.976   .     S
Cu974  Cu1051  2.683   .     S
H977   C1031   1.083   .     S
H978   C1108   1.083   1_455 S
H979   C1106   1.083   1_455 S
O1003  C1093   1.297   1_455 S
O1007  C1026   1.292   .     S
O1010  C1101   1.298   1_455 S
O1011  C1024   1.297   .     S
C1015  O1086   1.296   .     A
C1015  C1018   1.469   .     S
C1015  O1159   1.297   .     S
C1016  O1084   1.382   .     S
C1017  C1050   1.406   .     A
C1017  C1104   1.455   .     S
C1017  C1127   1.404   .     S
C1018  C1048   1.417   .     A
C1018  C1094   1.415   .     S
C1019  C1021   1.417   .     A
C1019  N1080   1.369   .     A
C1019  H1076   1.081   .     S
C1020  N1079   1.368   .     A
C1020  C1022   1.416   .     A
C1020  H1077   1.081   .     S
C1021  N1079   1.367   .     A
C1021  H1078   1.081   .     S
C1022  N1080   1.366   .     A
C1022  H1054   1.081   .     S
C1023  O1090   1.296   .     A
C1023  C1025   1.467   .     S
C1023  O1166   1.298   .     S
C1024  O1091   1.296   .     A
C1024  C1027   1.466   .     S
C1025  C1032   1.399   .     A
C1025  C1030   1.399   .     A
C1026  O1087   1.294   .     A
C1027  C1033   1.398   .     A
C1027  C1031   1.399   .     A
C1028  C1030   1.391   .     A
C1028  C1036   1.404   .     A
C1028  H1135   1.083   .     S
C1029  H1058   1.083   .     S
C1029  C1038   1.404   .     A
C1029  C1031   1.392   .     A
C1030  H1134   1.083   .     S
C1032  C1034   1.405   .     A
C1032  H1073   1.075   .     S
C1033  H1072   1.076   .     S
C1033  C1035   1.405   .     A
C1034  C1036   1.418   .     A
C1034  C1039   1.427   .     A
C1035  C1040   1.426   .     A
C1035  C1038   1.418   .     A
C1036  C344    1.390   1_556 S
C1037  C1040   1.417   .     A
C1037  H1074   1.076   .     S
C1037  C1046   1.386   .     A
C1039  C1045   1.417   .     A
C1039  C338    1.424   1_556 S
C1041  O1092   1.418   .     S
C1041  H1059   1.115   .     S
C1041  H1060   1.108   .     S
C1041  H1061   1.107   .     S
C1042  O1082   1.407   .     S
C1042  H1065   1.106   .     S
C1042  H1063   1.114   .     S
C1042  H1062   1.105   .     S
C1043  H1068   1.108   .     S
C1043  O1083   1.408   .     S
C1043  H1067   1.115   .     S
C1043  H1066   1.110   .     S
C1044  H1071   1.110   .     S
C1044  O1084   1.417   .     S
C1044  H1070   1.106   .     S
C1044  H1069   1.113   .     S
C1045  H1075   1.076   .     S
C1045  C1047   1.387   .     A
C1046  H1053   1.084   .     S
C1047  H1064   1.084   .     S
C1047  C336    1.390   1_556 S
C1048  O1092   1.383   .     S
C1049  O1082   1.389   .     S
C1049  C1250   1.399   .     S
C1050  O1083   1.388   .     S
C1050  C1282   1.398   .     S
Cu1051 O1088   1.957   .     S
Cu1051 N1079   2.017   .     S
Cu1051 O1087   1.977   .     S
Cu1051 O1091   1.944   .     S
Cu1051 O1081   1.976   .     S
Cu1052 O1086   1.977   .     S
Cu1052 O1090   1.944   .     S
Cu1052 N1080   2.017   .     S
Cu1052 O1089   1.957   .     S
Cu1052 O1085   1.976   .     S
Cu1052 Cu1129  2.683   .     S
H1055  C1109   1.083   .     S
O1085  C1104   1.292   .     S
O1089  C1102   1.297   .     S
C1093  O1164   1.296   .     A
C1093  C1096   1.469   .     S
C1093  O1003   1.297   1_655 S
C1094  O1162   1.382   .     S
C1095  C1128   1.406   .     A
C1095  C948    1.455   1_655 S
C1095  C971    1.404   1_655 S
C1096  C1126   1.417   .     A
C1096  C938    1.415   1_655 S
C1097  C1099   1.417   .     A
C1097  N1158   1.369   .     A
C1097  H1154   1.081   .     S
C1098  N1157   1.368   .     A
C1098  C1100   1.416   .     A
C1098  H1155   1.081   .     S
C1099  N1157   1.367   .     A
C1099  H1156   1.081   .     S
C1100  N1158   1.366   .     A
C1100  H1132   1.081   .     S
C1101  O1168   1.296   .     A
C1101  C1103   1.467   .     S
C1101  O1010   1.298   1_655 S
C1102  O1169   1.296   .     A
C1102  C1105   1.466   .     S
C1103  C1110   1.399   .     A
C1103  C1108   1.399   .     A
C1104  O1165   1.294   .     A
C1105  C1111   1.398   .     A
C1105  C1109   1.399   .     A
C1106  C1108   1.391   .     A
C1106  C1114   1.404   .     A
C1106  H979    1.083   1_655 S
C1107  H1136   1.083   .     S
C1107  C1116   1.404   .     A
C1107  C1109   1.392   .     A
C1108  H978    1.083   1_655 S
C1110  C1112   1.405   .     A
C1110  H1151   1.075   .     S
C1111  H1150   1.076   .     S
C1111  C1113   1.405   .     A
C1112  C1114   1.418   .     A
C1112  C1117   1.427   .     A
C1113  C1118   1.426   .     A
C1113  C1116   1.418   .     A
C1114  C422    1.390   1_556 S
C1115  C1118   1.417   .     A
C1115  H1152   1.076   .     S
C1115  C1124   1.386   .     A
C1117  C1123   1.417   .     A
C1117  C416    1.424   1_556 S
C1119  O1170   1.418   .     S
C1119  H1137   1.115   .     S
C1119  H1138   1.108   .     S
C1119  H1139   1.107   .     S
C1120  O1160   1.407   .     S
C1120  H1143   1.106   .     S
C1120  H1141   1.114   .     S
C1120  H1140   1.105   .     S
C1121  H1146   1.108   .     S
C1121  O1161   1.408   .     S
C1121  H1145   1.115   .     S
C1121  H1144   1.110   .     S
C1122  H1149   1.110   .     S
C1122  O1162   1.417   .     S
C1122  H1148   1.106   .     S
C1122  H1147   1.113   .     S
C1123  H1153   1.076   .     S
C1123  C1125   1.387   .     A
C1124  H1131   1.084   .     S
C1125  H1142   1.084   .     S
C1125  C414    1.390   1_556 S
C1126  O1170   1.383   .     S
C1127  O1160   1.389   .     S
C1127  C1328   1.399   .     S
C1128  O1161   1.388   .     S
C1128  C1360   1.398   .     S
Cu1129 O1166   1.957   .     S
Cu1129 N1157   2.017   .     S
Cu1129 O1165   1.977   .     S
Cu1129 O1169   1.944   .     S
Cu1129 O1159   1.976   .     S
Cu1130 O1164   1.977   .     S
Cu1130 O1168   1.944   .     S
Cu1130 N1158   2.017   .     S
Cu1130 O1167   1.957   .     S
Cu1130 O1163   1.976   .     S
Cu1130 Cu973   2.683   1_655 S
H1133  C953    1.083   1_655 S
O1163  C948    1.292   1_655 S
O1167  C946    1.297   1_655 S
C1171  O1242   1.296   .     A
C1171  C1174   1.469   .     S
C1171  O1315   1.297   .     S
C1172  O1240   1.382   .     S
C1172  C1330   1.415   1_455 S
C1173  C1206   1.406   .     A
C1173  C1260   1.455   .     S
C1173  C1283   1.404   .     S
C1174  C1204   1.417   .     A
C1174  C1250   1.415   .     S
C1175  C1177   1.417   .     A
C1175  N1236   1.369   .     A
C1175  H1232   1.081   .     S
C1176  N1235   1.368   .     A
C1176  C1178   1.416   .     A
C1176  H1233   1.081   .     S
C1177  N1235   1.367   .     A
C1177  H1234   1.081   .     S
C1178  N1236   1.366   .     A
C1178  H1210   1.081   .     S
C1179  O1246   1.296   .     A
C1179  C1181   1.467   .     S
C1179  O1322   1.298   .     S
C1180  O1247   1.296   .     A
C1180  C1183   1.466   .     S
C1180  O1401   1.297   1_455 S
C1181  C1188   1.399   .     A
C1181  C1186   1.399   .     A
C1182  O1243   1.294   .     A
C1182  C1329   1.455   1_455 S
C1182  O1397   1.292   1_455 S
C1183  C1189   1.398   .     A
C1183  C1187   1.399   .     A
C1184  C1186   1.391   .     A
C1184  C1192   1.404   .     A
C1184  H1291   1.083   .     S
C1185  H1214   1.083   .     S
C1185  C1194   1.404   .     A
C1185  C1187   1.392   .     A
C1186  H1290   1.083   .     S
C1187  H1367   1.083   1_455 S
C1188  C1190   1.405   .     A
C1188  H1229   1.075   .     S
C1189  H1228   1.076   .     S
C1189  C1191   1.405   .     A
C1190  C1192   1.418   .     A
C1190  C1195   1.427   .     A
C1191  C1196   1.426   .     A
C1191  C1194   1.418   .     A
C1192  C500    1.390   1_556 S
C1193  C1196   1.417   .     A
C1193  H1230   1.076   .     S
C1193  C1202   1.386   .     A
C1195  C1201   1.417   .     A
C1195  C494    1.424   1_556 S
C1197  O1248   1.418   .     S
C1197  H1215   1.115   .     S
C1197  H1216   1.108   .     S
C1197  H1217   1.107   .     S
C1198  O1238   1.407   .     S
C1198  H1221   1.106   .     S
C1198  H1219   1.114   .     S
C1198  H1218   1.105   .     S
C1199  H1224   1.108   .     S
C1199  O1239   1.408   .     S
C1199  H1223   1.115   .     S
C1199  H1222   1.110   .     S
C1200  H1227   1.110   .     S
C1200  O1240   1.417   .     S
C1200  H1226   1.106   .     S
C1200  H1225   1.113   .     S
C1201  H1231   1.076   .     S
C1201  C1203   1.387   .     A
C1202  H1209   1.084   .     S
C1203  H1220   1.084   .     S
C1203  C492    1.390   1_556 S
C1204  O1248   1.383   .     S
C1205  O1238   1.389   .     S
C1205  C1329   1.404   1_455 S
C1205  C704    1.399   1_565 S
C1206  O1239   1.388   .     S
C1206  C736    1.398   1_565 S
Cu1207 O1244   1.957   .     S
Cu1207 N1235   2.017   .     S
Cu1207 O1243   1.977   .     S
Cu1207 O1247   1.944   .     S
Cu1207 O1237   1.976   .     S
Cu1207 Cu1364  2.683   1_455 S
Cu1208 O1242   1.977   .     S
Cu1208 O1246   1.944   .     S
Cu1208 N1236   2.017   .     S
Cu1208 O1245   1.957   .     S
Cu1208 O1241   1.976   .     S
Cu1208 Cu1285  2.683   .     S
H1211  C1265   1.083   .     S
H1212  C1342   1.083   1_455 S
H1213  C1340   1.083   1_455 S
O1237  C1327   1.297   1_455 S
O1241  C1260   1.292   .     S
O1244  C1335   1.298   1_455 S
O1245  C1258   1.297   .     S
C1249  O1320   1.296   .     A
C1249  C1252   1.469   .     S
C1249  O1393   1.297   .     S
C1250  O1318   1.382   .     S
C1251  C1284   1.406   .     A
C1251  C1338   1.455   .     S
C1251  C1361   1.404   .     S
C1252  C1282   1.417   .     A
C1252  C1328   1.415   .     S
C1253  C1255   1.417   .     A
C1253  N1314   1.369   .     A
C1253  H1310   1.081   .     S
C1254  N1313   1.368   .     A
C1254  C1256   1.416   .     A
C1254  H1311   1.081   .     S
C1255  N1313   1.367   .     A
C1255  H1312   1.081   .     S
C1256  N1314   1.366   .     A
C1256  H1288   1.081   .     S
C1257  O1324   1.296   .     A
C1257  C1259   1.467   .     S
C1257  O1400   1.298   .     S
C1258  O1325   1.296   .     A
C1258  C1261   1.466   .     S
C1259  C1266   1.399   .     A
C1259  C1264   1.399   .     A
C1260  O1321   1.294   .     A
C1261  C1267   1.398   .     A
C1261  C1265   1.399   .     A
C1262  C1264   1.391   .     A
C1262  C1270   1.404   .     A
C1262  H1369   1.083   .     S
C1263  H1292   1.083   .     S
C1263  C1272   1.404   .     A
C1263  C1265   1.392   .     A
C1264  H1368   1.083   .     S
C1266  C1268   1.405   .     A
C1266  H1307   1.075   .     S
C1267  H1306   1.076   .     S
C1267  C1269   1.405   .     A
C1268  C1270   1.418   .     A
C1268  C1273   1.427   .     A
C1269  C1274   1.426   .     A
C1269  C1272   1.418   .     A
C1270  C578    1.390   1_556 S
C1271  C1274   1.417   .     A
C1271  H1308   1.076   .     S
C1271  C1280   1.386   .     A
C1273  C1279   1.417   .     A
C1273  C572    1.424   1_556 S
C1275  O1326   1.418   .     S
C1275  H1293   1.115   .     S
C1275  H1294   1.108   .     S
C1275  H1295   1.107   .     S
C1276  O1316   1.407   .     S
C1276  H1299   1.106   .     S
C1276  H1297   1.114   .     S
C1276  H1296   1.105   .     S
C1277  H1302   1.108   .     S
C1277  O1317   1.408   .     S
C1277  H1301   1.115   .     S
C1277  H1300   1.110   .     S
C1278  H1305   1.110   .     S
C1278  O1318   1.417   .     S
C1278  H1304   1.106   .     S
C1278  H1303   1.113   .     S
C1279  H1309   1.076   .     S
C1279  C1281   1.387   .     A
C1280  H1287   1.084   .     S
C1281  H1298   1.084   .     S
C1281  C570    1.390   1_556 S
C1282  O1326   1.383   .     S
C1283  O1316   1.389   .     S
C1283  C782    1.399   1_565 S
C1284  O1317   1.388   .     S
C1284  C814    1.398   1_565 S
Cu1285 O1322   1.957   .     S
Cu1285 N1313   2.017   .     S
Cu1285 O1321   1.977   .     S
Cu1285 O1325   1.944   .     S
Cu1285 O1315   1.976   .     S
Cu1286 O1320   1.977   .     S
Cu1286 O1324   1.944   .     S
Cu1286 N1314   2.017   .     S
Cu1286 O1323   1.957   .     S
Cu1286 O1319   1.976   .     S
Cu1286 Cu1363  2.683   .     S
H1289  C1343   1.083   .     S
O1319  C1338   1.292   .     S
O1323  C1336   1.297   .     S
C1327  O1398   1.296   .     A
C1327  C1330   1.469   .     S
C1327  O1237   1.297   1_655 S
C1328  O1396   1.382   .     S
C1329  C1362   1.406   .     A
C1329  C1182   1.455   1_655 S
C1329  C1205   1.404   1_655 S
C1330  C1360   1.417   .     A
C1330  C1172   1.415   1_655 S
C1331  C1333   1.417   .     A
C1331  N1392   1.369   .     A
C1331  H1388   1.081   .     S
C1332  N1391   1.368   .     A
C1332  C1334   1.416   .     A
C1332  H1389   1.081   .     S
C1333  N1391   1.367   .     A
C1333  H1390   1.081   .     S
C1334  N1392   1.366   .     A
C1334  H1366   1.081   .     S
C1335  O1402   1.296   .     A
C1335  C1337   1.467   .     S
C1335  O1244   1.298   1_655 S
C1336  O1403   1.296   .     A
C1336  C1339   1.466   .     S
C1337  C1344   1.399   .     A
C1337  C1342   1.399   .     A
C1338  O1399   1.294   .     A
C1339  C1345   1.398   .     A
C1339  C1343   1.399   .     A
C1340  C1342   1.391   .     A
C1340  C1348   1.404   .     A
C1340  H1213   1.083   1_655 S
C1341  H1370   1.083   .     S
C1341  C1350   1.404   .     A
C1341  C1343   1.392   .     A
C1342  H1212   1.083   1_655 S
C1344  C1346   1.405   .     A
C1344  H1385   1.075   .     S
C1345  H1384   1.076   .     S
C1345  C1347   1.405   .     A
C1346  C1348   1.418   .     A
C1346  C1351   1.427   .     A
C1347  C1352   1.426   .     A
C1347  C1350   1.418   .     A
C1348  C656    1.390   1_556 S
C1349  C1352   1.417   .     A
C1349  H1386   1.076   .     S
C1349  C1358   1.386   .     A
C1351  C1357   1.417   .     A
C1351  C650    1.424   1_556 S
C1353  O1404   1.418   .     S
C1353  H1371   1.115   .     S
C1353  H1372   1.108   .     S
C1353  H1373   1.107   .     S
C1354  O1394   1.407   .     S
C1354  H1377   1.106   .     S
C1354  H1375   1.114   .     S
C1354  H1374   1.105   .     S
C1355  H1380   1.108   .     S
C1355  O1395   1.408   .     S
C1355  H1379   1.115   .     S
C1355  H1378   1.110   .     S
C1356  H1383   1.110   .     S
C1356  O1396   1.417   .     S
C1356  H1382   1.106   .     S
C1356  H1381   1.113   .     S
C1357  H1387   1.076   .     S
C1357  C1359   1.387   .     A
C1358  H1365   1.084   .     S
C1359  H1376   1.084   .     S
C1359  C648    1.390   1_556 S
C1360  O1404   1.383   .     S
C1361  O1394   1.389   .     S
C1361  C860    1.399   1_565 S
C1362  O1395   1.388   .     S
C1362  C892    1.398   1_565 S
Cu1363 O1400   1.957   .     S
Cu1363 N1391   2.017   .     S
Cu1363 O1399   1.977   .     S
Cu1363 O1403   1.944   .     S
Cu1363 O1393   1.976   .     S
Cu1364 O1398   1.977   .     S
Cu1364 O1402   1.944   .     S
Cu1364 N1392   2.017   .     S
Cu1364 O1401   1.957   .     S
Cu1364 O1397   1.976   .     S
Cu1364 Cu1207  2.683   1_655 S
H1367  C1187   1.083   1_655 S
O1397  C1182   1.292   1_655 S
O1401  C1180   1.297   1_655 S
