data_str_m2_o1_o2_pcu_sym.39
_audit_creation_date              2020-01-03
_audit_creation_method            'Materials Studio'
_symmetry_space_group_name_H-M    'P1'
_symmetry_Int_Tables_number       1
_symmetry_cell_setting            triclinic
loop_
_symmetry_equiv_pos_as_xyz
  x,y,z
_cell_length_a                    32.4864
_cell_length_b                    28.5643
_cell_length_c                    30.1763
_cell_angle_alpha                 89.9999
_cell_angle_beta                  90.1824
_cell_angle_gamma                 90.0000
loop_
_atom_site_label
_atom_site_type_symbol
_atom_site_fract_x
_atom_site_fract_y
_atom_site_fract_z
_atom_site_U_iso_or_equiv
_atom_site_adp_type
_atom_site_occupancy
C1     C     0.08736   0.16667   0.24996   0.00000  Uiso   1.00
C2     C     0.31204   0.20921   0.25001   0.00000  Uiso   1.00
C3     C     0.31204   0.12412   0.25004   0.00000  Uiso   1.00
C4     C     0.02129   0.20921   0.24999   0.00000  Uiso   1.00
C5     C     0.20083   0.18385   0.04758   0.00000  Uiso   1.00
C6     C     0.20087   0.14974   0.45269   0.00000  Uiso   1.00
C7     C     0.13250   0.18385   0.45242   0.00000  Uiso   1.00
C8     C     0.13247   0.14974   0.04731   0.00000  Uiso   1.00
C9     C     0.20121   0.18405   0.09385   0.00000  Uiso   1.00
C10    C     0.20126   0.14944   0.40643   0.00000  Uiso   1.00
C11    C     0.13213   0.18405   0.40615   0.00000  Uiso   1.00
C12    C     0.24598   0.16667   0.25004   0.00000  Uiso   1.00
C13    C     0.13208   0.14944   0.09357   0.00000  Uiso   1.00
C14    C     0.16665   0.16670   0.11690   0.00000  Uiso   1.00
C15    C     0.16669   0.16670   0.38310   0.00000  Uiso   1.00
C16    C     0.16666   0.16680   0.02430   0.00000  Uiso   1.00
C17    C     0.16668   0.16680   0.47570   0.00000  Uiso   1.00
C18    C     0.29059   0.16667   0.25004   0.00000  Uiso   1.00
C19    C     0.04274   0.16667   0.24996   0.00000  Uiso   1.00
C20    C     0.23877   0.20194   0.11805   0.00000  Uiso   1.00
C21    C     0.23885   0.13157   0.38254   0.00000  Uiso   1.00
C22    C     0.09456   0.20194   0.38195   0.00000  Uiso   1.00
C23    C     0.16664   0.16667   0.16513   0.00000  Uiso   1.00
C24    C     0.09448   0.13157   0.11746   0.00000  Uiso   1.00
C25    C     0.16669   0.16667   0.33487   0.00000  Uiso   1.00
C26    C     0.13995   0.02480   0.22370   0.00000  Uiso   1.00
C27    C     0.19337   0.30853   0.27632   0.00000  Uiso   1.00
C28    C     0.19338   0.02480   0.27630   0.00000  Uiso   1.00
C29    C     0.13996   0.30853   0.22368   0.00000  Uiso   1.00
C30    C     0.02129   0.12412   0.24996   0.00000  Uiso   1.00
Cu31   Cu    0.16667   0.21355   0.25000   0.00000  Uiso   1.00
Cu32   Cu    0.16667   0.11978   0.25000   0.00000  Uiso   1.00
H33    H     0.11853   0.04347   0.20265   0.00000  Uiso   1.00
H34    H     0.29603   0.24247   0.25001   0.00000  Uiso   1.00
H35    H     0.29603   0.09086   0.25009   0.00000  Uiso   1.00
H36    H     0.03731   0.24247   0.24999   0.00000  Uiso   1.00
H37    H     0.23061   0.23316   0.13807   0.00000  Uiso   1.00
H38    H     0.25107   0.17423   0.14026   0.00000  Uiso   1.00
H39    H     0.26362   0.21220   0.09478   0.00000  Uiso   1.00
H40    H     0.25107   0.15920   0.36028   0.00000  Uiso   1.00
H41    H     0.26373   0.12149   0.40600   0.00000  Uiso   1.00
H42    H     0.23074   0.10023   0.36262   0.00000  Uiso   1.00
H43    H     0.10273   0.23317   0.36193   0.00000  Uiso   1.00
H44    H     0.21476   0.28984   0.29742   0.00000  Uiso   1.00
H45    H     0.08226   0.17424   0.35974   0.00000  Uiso   1.00
H46    H     0.06972   0.21220   0.40522   0.00000  Uiso   1.00
H47    H     0.08226   0.15921   0.13972   0.00000  Uiso   1.00
H48    H     0.06960   0.12150   0.09400   0.00000  Uiso   1.00
H49    H     0.10259   0.10023   0.13738   0.00000  Uiso   1.00
H50    H     0.21481   0.04347   0.29735   0.00000  Uiso   1.00
H51    H     0.11858   0.28984   0.20258   0.00000  Uiso   1.00
H52    H     0.22705   0.19740   0.02954   0.00000  Uiso   1.00
H53    H     0.22708   0.13623   0.47095   0.00000  Uiso   1.00
H54    H     0.10628   0.19740   0.47046   0.00000  Uiso   1.00
H55    H     0.10625   0.13623   0.02905   0.00000  Uiso   1.00
H56    H     0.03731   0.09086   0.24991   0.00000  Uiso   1.00
N57    N     0.16667   0.28402   0.25000   0.00000  Uiso   1.00
N58    N     0.16667   0.04931   0.25000   0.00000  Uiso   1.00
O59    O     0.10655   0.20625   0.25000   0.00000  Uiso   1.00
O60    O     0.22679   0.12709   0.25001   0.00000  Uiso   1.00
O61    O     0.22679   0.20625   0.25001   0.00000  Uiso   1.00
O62    O     0.10655   0.12709   0.25000   0.00000  Uiso   1.00
O63    O     0.16666   0.20626   0.18573   0.00000  Uiso   1.00
O64    O     0.16667   0.12707   0.31427   0.00000  Uiso   1.00
O65    O     0.16667   0.20626   0.31427   0.00000  Uiso   1.00
O66    O     0.16666   0.12707   0.18573   0.00000  Uiso   1.00
C67    C     0.42069   0.16667   0.24996   0.00000  Uiso   1.00
C68    C     0.64538   0.20921   0.25001   0.00000  Uiso   1.00
C69    C     0.64538   0.12412   0.25004   0.00000  Uiso   1.00
C70    C     0.35462   0.20921   0.24999   0.00000  Uiso   1.00
C71    C     0.53416   0.18385   0.04758   0.00000  Uiso   1.00
C72    C     0.53420   0.14974   0.45269   0.00000  Uiso   1.00
C73    C     0.46584   0.18385   0.45242   0.00000  Uiso   1.00
C74    C     0.46580   0.14974   0.04731   0.00000  Uiso   1.00
C75    C     0.53454   0.18405   0.09385   0.00000  Uiso   1.00
C76    C     0.53459   0.14944   0.40643   0.00000  Uiso   1.00
C77    C     0.46546   0.18405   0.40615   0.00000  Uiso   1.00
C78    C     0.57931   0.16667   0.25004   0.00000  Uiso   1.00
C79    C     0.46541   0.14944   0.09357   0.00000  Uiso   1.00
C80    C     0.49998   0.16670   0.11690   0.00000  Uiso   1.00
C81    C     0.50002   0.16670   0.38310   0.00000  Uiso   1.00
C82    C     0.49999   0.16680   0.02430   0.00000  Uiso   1.00
C83    C     0.50001   0.16680   0.47570   0.00000  Uiso   1.00
C84    C     0.62392   0.16667   0.25004   0.00000  Uiso   1.00
C85    C     0.37608   0.16667   0.24996   0.00000  Uiso   1.00
C86    C     0.57211   0.20194   0.11805   0.00000  Uiso   1.00
C87    C     0.57218   0.13157   0.38254   0.00000  Uiso   1.00
C88    C     0.42789   0.20194   0.38195   0.00000  Uiso   1.00
C89    C     0.49997   0.16667   0.16513   0.00000  Uiso   1.00
C90    C     0.42781   0.13157   0.11746   0.00000  Uiso   1.00
C91    C     0.50003   0.16667   0.33487   0.00000  Uiso   1.00
C92    C     0.47328   0.02480   0.22370   0.00000  Uiso   1.00
C93    C     0.52670   0.30853   0.27632   0.00000  Uiso   1.00
C94    C     0.52672   0.02480   0.27630   0.00000  Uiso   1.00
C95    C     0.47330   0.30853   0.22368   0.00000  Uiso   1.00
C96    C     0.35462   0.12412   0.24996   0.00000  Uiso   1.00
Cu97   Cu    0.50000   0.21355   0.25000   0.00000  Uiso   1.00
Cu98   Cu    0.50000   0.11978   0.25000   0.00000  Uiso   1.00
H99    H     0.45186   0.04347   0.20265   0.00000  Uiso   1.00
H100   H     0.62936   0.24247   0.25001   0.00000  Uiso   1.00
H101   H     0.62936   0.09086   0.25009   0.00000  Uiso   1.00
H102   H     0.37064   0.24247   0.24999   0.00000  Uiso   1.00
H103   H     0.56394   0.23316   0.13807   0.00000  Uiso   1.00
H104   H     0.58441   0.17423   0.14026   0.00000  Uiso   1.00
H105   H     0.59695   0.21220   0.09478   0.00000  Uiso   1.00
H106   H     0.58440   0.15920   0.36028   0.00000  Uiso   1.00
H107   H     0.59707   0.12149   0.40600   0.00000  Uiso   1.00
H108   H     0.56407   0.10023   0.36262   0.00000  Uiso   1.00
H109   H     0.43606   0.23317   0.36193   0.00000  Uiso   1.00
H110   H     0.54809   0.28984   0.29742   0.00000  Uiso   1.00
H111   H     0.41559   0.17424   0.35974   0.00000  Uiso   1.00
H112   H     0.40305   0.21220   0.40522   0.00000  Uiso   1.00
H113   H     0.41560   0.15921   0.13972   0.00000  Uiso   1.00
H114   H     0.40293   0.12150   0.09400   0.00000  Uiso   1.00
H115   H     0.43592   0.10023   0.13738   0.00000  Uiso   1.00
H116   H     0.54814   0.04347   0.29735   0.00000  Uiso   1.00
H117   H     0.45191   0.28984   0.20258   0.00000  Uiso   1.00
H118   H     0.56039   0.19740   0.02954   0.00000  Uiso   1.00
H119   H     0.56042   0.13623   0.47095   0.00000  Uiso   1.00
H120   H     0.43961   0.19740   0.47046   0.00000  Uiso   1.00
H121   H     0.43958   0.13623   0.02905   0.00000  Uiso   1.00
H122   H     0.37064   0.09086   0.24991   0.00000  Uiso   1.00
N123   N     0.50000   0.28402   0.25000   0.00000  Uiso   1.00
N124   N     0.50000   0.04931   0.25000   0.00000  Uiso   1.00
O125   O     0.43988   0.20625   0.25000   0.00000  Uiso   1.00
O126   O     0.56012   0.12709   0.25001   0.00000  Uiso   1.00
O127   O     0.56012   0.20625   0.25001   0.00000  Uiso   1.00
O128   O     0.43988   0.12709   0.25000   0.00000  Uiso   1.00
O129   O     0.50000   0.20626   0.18573   0.00000  Uiso   1.00
O130   O     0.50000   0.12707   0.31427   0.00000  Uiso   1.00
O131   O     0.50000   0.20626   0.31427   0.00000  Uiso   1.00
O132   O     0.50000   0.12707   0.18573   0.00000  Uiso   1.00
C133   C     0.75402   0.16667   0.24996   0.00000  Uiso   1.00
C134   C     0.97871   0.20921   0.25001   0.00000  Uiso   1.00
C135   C     0.97871   0.12412   0.25004   0.00000  Uiso   1.00
C136   C     0.68796   0.20921   0.24999   0.00000  Uiso   1.00
C137   C     0.86750   0.18385   0.04758   0.00000  Uiso   1.00
C138   C     0.86753   0.14974   0.45269   0.00000  Uiso   1.00
C139   C     0.79917   0.18385   0.45242   0.00000  Uiso   1.00
C140   C     0.79913   0.14974   0.04731   0.00000  Uiso   1.00
C141   C     0.86787   0.18405   0.09385   0.00000  Uiso   1.00
C142   C     0.86792   0.14944   0.40643   0.00000  Uiso   1.00
C143   C     0.79879   0.18405   0.40615   0.00000  Uiso   1.00
C144   C     0.91264   0.16667   0.25004   0.00000  Uiso   1.00
C145   C     0.79874   0.14944   0.09357   0.00000  Uiso   1.00
C146   C     0.83331   0.16670   0.11690   0.00000  Uiso   1.00
C147   C     0.83335   0.16670   0.38310   0.00000  Uiso   1.00
C148   C     0.83332   0.16680   0.02430   0.00000  Uiso   1.00
C149   C     0.83334   0.16680   0.47570   0.00000  Uiso   1.00
C150   C     0.95726   0.16667   0.25004   0.00000  Uiso   1.00
C151   C     0.70941   0.16667   0.24996   0.00000  Uiso   1.00
C152   C     0.90544   0.20194   0.11805   0.00000  Uiso   1.00
C153   C     0.90552   0.13157   0.38254   0.00000  Uiso   1.00
C154   C     0.76123   0.20194   0.38195   0.00000  Uiso   1.00
C155   C     0.83331   0.16667   0.16513   0.00000  Uiso   1.00
C156   C     0.76115   0.13157   0.11746   0.00000  Uiso   1.00
C157   C     0.83336   0.16667   0.33487   0.00000  Uiso   1.00
C158   C     0.80662   0.02480   0.22370   0.00000  Uiso   1.00
C159   C     0.86004   0.30853   0.27632   0.00000  Uiso   1.00
C160   C     0.86005   0.02480   0.27630   0.00000  Uiso   1.00
C161   C     0.80663   0.30853   0.22368   0.00000  Uiso   1.00
C162   C     0.68796   0.12412   0.24996   0.00000  Uiso   1.00
Cu163  Cu    0.83333   0.21355   0.25000   0.00000  Uiso   1.00
Cu164  Cu    0.83333   0.11978   0.25000   0.00000  Uiso   1.00
H165   H     0.78519   0.04347   0.20265   0.00000  Uiso   1.00
H166   H     0.96269   0.24247   0.25001   0.00000  Uiso   1.00
H167   H     0.96269   0.09086   0.25009   0.00000  Uiso   1.00
H168   H     0.70397   0.24247   0.24999   0.00000  Uiso   1.00
H169   H     0.89728   0.23316   0.13807   0.00000  Uiso   1.00
H170   H     0.91774   0.17423   0.14026   0.00000  Uiso   1.00
H171   H     0.93028   0.21220   0.09478   0.00000  Uiso   1.00
H172   H     0.91774   0.15920   0.36028   0.00000  Uiso   1.00
H173   H     0.93040   0.12149   0.40600   0.00000  Uiso   1.00
H174   H     0.89741   0.10023   0.36262   0.00000  Uiso   1.00
H175   H     0.76939   0.23317   0.36193   0.00000  Uiso   1.00
H176   H     0.88142   0.28984   0.29742   0.00000  Uiso   1.00
H177   H     0.74893   0.17424   0.35974   0.00000  Uiso   1.00
H178   H     0.73639   0.21220   0.40522   0.00000  Uiso   1.00
H179   H     0.74893   0.15921   0.13972   0.00000  Uiso   1.00
H180   H     0.73626   0.12150   0.09400   0.00000  Uiso   1.00
H181   H     0.76926   0.10023   0.13738   0.00000  Uiso   1.00
H182   H     0.88147   0.04347   0.29735   0.00000  Uiso   1.00
H183   H     0.78524   0.28984   0.20258   0.00000  Uiso   1.00
H184   H     0.89372   0.19740   0.02954   0.00000  Uiso   1.00
H185   H     0.89375   0.13623   0.47095   0.00000  Uiso   1.00
H186   H     0.77295   0.19740   0.47046   0.00000  Uiso   1.00
H187   H     0.77291   0.13623   0.02905   0.00000  Uiso   1.00
H188   H     0.70397   0.09086   0.24991   0.00000  Uiso   1.00
N189   N     0.83333   0.28402   0.25000   0.00000  Uiso   1.00
N190   N     0.83333   0.04931   0.25000   0.00000  Uiso   1.00
O191   O     0.77321   0.20625   0.25000   0.00000  Uiso   1.00
O192   O     0.89345   0.12709   0.25001   0.00000  Uiso   1.00
O193   O     0.89345   0.20625   0.25001   0.00000  Uiso   1.00
O194   O     0.77321   0.12709   0.25000   0.00000  Uiso   1.00
O195   O     0.83333   0.20626   0.18573   0.00000  Uiso   1.00
O196   O     0.83334   0.12707   0.31427   0.00000  Uiso   1.00
O197   O     0.83334   0.20626   0.31427   0.00000  Uiso   1.00
O198   O     0.83333   0.12707   0.18573   0.00000  Uiso   1.00
C199   C     0.08736   0.50000   0.24996   0.00000  Uiso   1.00
C200   C     0.31204   0.54254   0.25001   0.00000  Uiso   1.00
C201   C     0.31204   0.45746   0.25004   0.00000  Uiso   1.00
C202   C     0.02129   0.54254   0.24999   0.00000  Uiso   1.00
C203   C     0.20083   0.51718   0.04758   0.00000  Uiso   1.00
C204   C     0.20087   0.48307   0.45269   0.00000  Uiso   1.00
C205   C     0.13250   0.51718   0.45242   0.00000  Uiso   1.00
C206   C     0.13247   0.48307   0.04731   0.00000  Uiso   1.00
C207   C     0.20121   0.51739   0.09385   0.00000  Uiso   1.00
C208   C     0.20126   0.48277   0.40643   0.00000  Uiso   1.00
C209   C     0.13213   0.51739   0.40615   0.00000  Uiso   1.00
C210   C     0.24598   0.50000   0.25004   0.00000  Uiso   1.00
C211   C     0.13208   0.48277   0.09357   0.00000  Uiso   1.00
C212   C     0.16665   0.50003   0.11690   0.00000  Uiso   1.00
C213   C     0.16669   0.50003   0.38310   0.00000  Uiso   1.00
C214   C     0.16666   0.50014   0.02430   0.00000  Uiso   1.00
C215   C     0.16668   0.50014   0.47570   0.00000  Uiso   1.00
C216   C     0.29059   0.50000   0.25004   0.00000  Uiso   1.00
C217   C     0.04274   0.50000   0.24996   0.00000  Uiso   1.00
C218   C     0.23877   0.53527   0.11805   0.00000  Uiso   1.00
C219   C     0.23885   0.46490   0.38254   0.00000  Uiso   1.00
C220   C     0.09456   0.53528   0.38195   0.00000  Uiso   1.00
C221   C     0.16664   0.50000   0.16513   0.00000  Uiso   1.00
C222   C     0.09448   0.46490   0.11746   0.00000  Uiso   1.00
C223   C     0.16669   0.50000   0.33487   0.00000  Uiso   1.00
C224   C     0.13995   0.35813   0.22370   0.00000  Uiso   1.00
C225   C     0.19337   0.64186   0.27632   0.00000  Uiso   1.00
C226   C     0.19338   0.35813   0.27630   0.00000  Uiso   1.00
C227   C     0.13996   0.64186   0.22368   0.00000  Uiso   1.00
C228   C     0.02129   0.45746   0.24996   0.00000  Uiso   1.00
Cu229  Cu    0.16667   0.54689   0.25000   0.00000  Uiso   1.00
Cu230  Cu    0.16667   0.45311   0.25000   0.00000  Uiso   1.00
H231   H     0.11853   0.37681   0.20265   0.00000  Uiso   1.00
H232   H     0.29603   0.57581   0.25001   0.00000  Uiso   1.00
H233   H     0.29603   0.42419   0.25009   0.00000  Uiso   1.00
H234   H     0.03731   0.57581   0.24999   0.00000  Uiso   1.00
H235   H     0.23061   0.56650   0.13807   0.00000  Uiso   1.00
H236   H     0.25107   0.50757   0.14026   0.00000  Uiso   1.00
H237   H     0.26362   0.54553   0.09478   0.00000  Uiso   1.00
H238   H     0.25107   0.49254   0.36028   0.00000  Uiso   1.00
H239   H     0.26373   0.45483   0.40600   0.00000  Uiso   1.00
H240   H     0.23074   0.43356   0.36262   0.00000  Uiso   1.00
H241   H     0.10273   0.56650   0.36193   0.00000  Uiso   1.00
H242   H     0.21476   0.62317   0.29742   0.00000  Uiso   1.00
H243   H     0.08226   0.50757   0.35974   0.00000  Uiso   1.00
H244   H     0.06972   0.54554   0.40522   0.00000  Uiso   1.00
H245   H     0.08226   0.49254   0.13972   0.00000  Uiso   1.00
H246   H     0.06960   0.45483   0.09400   0.00000  Uiso   1.00
H247   H     0.10259   0.43357   0.13738   0.00000  Uiso   1.00
H248   H     0.21481   0.37681   0.29735   0.00000  Uiso   1.00
H249   H     0.11858   0.62317   0.20258   0.00000  Uiso   1.00
H250   H     0.22705   0.53073   0.02954   0.00000  Uiso   1.00
H251   H     0.22708   0.46956   0.47095   0.00000  Uiso   1.00
H252   H     0.10628   0.53073   0.47046   0.00000  Uiso   1.00
H253   H     0.10625   0.46956   0.02905   0.00000  Uiso   1.00
H254   H     0.03731   0.42419   0.24991   0.00000  Uiso   1.00
N255   N     0.16667   0.61736   0.25000   0.00000  Uiso   1.00
N256   N     0.16667   0.38264   0.25000   0.00000  Uiso   1.00
O257   O     0.10655   0.53958   0.25000   0.00000  Uiso   1.00
O258   O     0.22679   0.46042   0.25001   0.00000  Uiso   1.00
O259   O     0.22679   0.53958   0.25001   0.00000  Uiso   1.00
O260   O     0.10655   0.46042   0.25000   0.00000  Uiso   1.00
O261   O     0.16666   0.53959   0.18573   0.00000  Uiso   1.00
O262   O     0.16667   0.46041   0.31427   0.00000  Uiso   1.00
O263   O     0.16667   0.53959   0.31427   0.00000  Uiso   1.00
O264   O     0.16666   0.46041   0.18573   0.00000  Uiso   1.00
C265   C     0.42069   0.50000   0.24996   0.00000  Uiso   1.00
C266   C     0.64538   0.54254   0.25001   0.00000  Uiso   1.00
C267   C     0.64538   0.45746   0.25004   0.00000  Uiso   1.00
C268   C     0.35462   0.54254   0.24999   0.00000  Uiso   1.00
C269   C     0.53416   0.51718   0.04758   0.00000  Uiso   1.00
C270   C     0.53420   0.48307   0.45269   0.00000  Uiso   1.00
C271   C     0.46584   0.51718   0.45242   0.00000  Uiso   1.00
C272   C     0.46580   0.48307   0.04731   0.00000  Uiso   1.00
C273   C     0.53454   0.51739   0.09385   0.00000  Uiso   1.00
C274   C     0.53459   0.48277   0.40643   0.00000  Uiso   1.00
C275   C     0.46546   0.51739   0.40615   0.00000  Uiso   1.00
C276   C     0.57931   0.50000   0.25004   0.00000  Uiso   1.00
C277   C     0.46541   0.48277   0.09357   0.00000  Uiso   1.00
C278   C     0.49998   0.50003   0.11690   0.00000  Uiso   1.00
C279   C     0.50002   0.50003   0.38310   0.00000  Uiso   1.00
C280   C     0.49999   0.50014   0.02430   0.00000  Uiso   1.00
C281   C     0.50001   0.50014   0.47570   0.00000  Uiso   1.00
C282   C     0.62392   0.50000   0.25004   0.00000  Uiso   1.00
C283   C     0.37608   0.50000   0.24996   0.00000  Uiso   1.00
C284   C     0.57211   0.53527   0.11805   0.00000  Uiso   1.00
C285   C     0.57218   0.46490   0.38254   0.00000  Uiso   1.00
C286   C     0.42789   0.53528   0.38195   0.00000  Uiso   1.00
C287   C     0.49997   0.50000   0.16513   0.00000  Uiso   1.00
C288   C     0.42781   0.46490   0.11746   0.00000  Uiso   1.00
C289   C     0.50003   0.50000   0.33487   0.00000  Uiso   1.00
C290   C     0.47328   0.35813   0.22370   0.00000  Uiso   1.00
C291   C     0.52670   0.64186   0.27632   0.00000  Uiso   1.00
C292   C     0.52672   0.35813   0.27630   0.00000  Uiso   1.00
C293   C     0.47330   0.64186   0.22368   0.00000  Uiso   1.00
C294   C     0.35462   0.45746   0.24996   0.00000  Uiso   1.00
Cu295  Cu    0.50000   0.54689   0.25000   0.00000  Uiso   1.00
Cu296  Cu    0.50000   0.45311   0.25000   0.00000  Uiso   1.00
H297   H     0.45186   0.37681   0.20265   0.00000  Uiso   1.00
H298   H     0.62936   0.57581   0.25001   0.00000  Uiso   1.00
H299   H     0.62936   0.42419   0.25009   0.00000  Uiso   1.00
H300   H     0.37064   0.57581   0.24999   0.00000  Uiso   1.00
H301   H     0.56394   0.56650   0.13807   0.00000  Uiso   1.00
H302   H     0.58441   0.50757   0.14026   0.00000  Uiso   1.00
H303   H     0.59695   0.54553   0.09478   0.00000  Uiso   1.00
H304   H     0.58440   0.49254   0.36028   0.00000  Uiso   1.00
H305   H     0.59707   0.45483   0.40600   0.00000  Uiso   1.00
H306   H     0.56407   0.43356   0.36262   0.00000  Uiso   1.00
H307   H     0.43606   0.56650   0.36193   0.00000  Uiso   1.00
H308   H     0.54809   0.62317   0.29742   0.00000  Uiso   1.00
H309   H     0.41559   0.50757   0.35974   0.00000  Uiso   1.00
H310   H     0.40305   0.54554   0.40522   0.00000  Uiso   1.00
H311   H     0.41560   0.49254   0.13972   0.00000  Uiso   1.00
H312   H     0.40293   0.45483   0.09400   0.00000  Uiso   1.00
H313   H     0.43592   0.43357   0.13738   0.00000  Uiso   1.00
H314   H     0.54814   0.37681   0.29735   0.00000  Uiso   1.00
H315   H     0.45191   0.62317   0.20258   0.00000  Uiso   1.00
H316   H     0.56039   0.53073   0.02954   0.00000  Uiso   1.00
H317   H     0.56042   0.46956   0.47095   0.00000  Uiso   1.00
H318   H     0.43961   0.53073   0.47046   0.00000  Uiso   1.00
H319   H     0.43958   0.46956   0.02905   0.00000  Uiso   1.00
H320   H     0.37064   0.42419   0.24991   0.00000  Uiso   1.00
N321   N     0.50000   0.61736   0.25000   0.00000  Uiso   1.00
N322   N     0.50000   0.38264   0.25000   0.00000  Uiso   1.00
O323   O     0.43988   0.53958   0.25000   0.00000  Uiso   1.00
O324   O     0.56012   0.46042   0.25001   0.00000  Uiso   1.00
O325   O     0.56012   0.53958   0.25001   0.00000  Uiso   1.00
O326   O     0.43988   0.46042   0.25000   0.00000  Uiso   1.00
O327   O     0.50000   0.53959   0.18573   0.00000  Uiso   1.00
O328   O     0.50000   0.46041   0.31427   0.00000  Uiso   1.00
O329   O     0.50000   0.53959   0.31427   0.00000  Uiso   1.00
O330   O     0.50000   0.46041   0.18573   0.00000  Uiso   1.00
C331   C     0.75402   0.50000   0.24996   0.00000  Uiso   1.00
C332   C     0.97871   0.54254   0.25001   0.00000  Uiso   1.00
C333   C     0.97871   0.45746   0.25004   0.00000  Uiso   1.00
C334   C     0.68796   0.54254   0.24999   0.00000  Uiso   1.00
C335   C     0.86750   0.51718   0.04758   0.00000  Uiso   1.00
C336   C     0.86753   0.48307   0.45269   0.00000  Uiso   1.00
C337   C     0.79917   0.51718   0.45242   0.00000  Uiso   1.00
C338   C     0.79913   0.48307   0.04731   0.00000  Uiso   1.00
C339   C     0.86787   0.51739   0.09385   0.00000  Uiso   1.00
C340   C     0.86792   0.48277   0.40643   0.00000  Uiso   1.00
C341   C     0.79879   0.51739   0.40615   0.00000  Uiso   1.00
C342   C     0.91264   0.50000   0.25004   0.00000  Uiso   1.00
C343   C     0.79874   0.48277   0.09357   0.00000  Uiso   1.00
C344   C     0.83331   0.50003   0.11690   0.00000  Uiso   1.00
C345   C     0.83335   0.50003   0.38310   0.00000  Uiso   1.00
C346   C     0.83332   0.50014   0.02430   0.00000  Uiso   1.00
C347   C     0.83334   0.50014   0.47570   0.00000  Uiso   1.00
C348   C     0.95726   0.50000   0.25004   0.00000  Uiso   1.00
C349   C     0.70941   0.50000   0.24996   0.00000  Uiso   1.00
C350   C     0.90544   0.53527   0.11805   0.00000  Uiso   1.00
C351   C     0.90552   0.46490   0.38254   0.00000  Uiso   1.00
C352   C     0.76123   0.53528   0.38195   0.00000  Uiso   1.00
C353   C     0.83331   0.50000   0.16513   0.00000  Uiso   1.00
C354   C     0.76115   0.46490   0.11746   0.00000  Uiso   1.00
C355   C     0.83336   0.50000   0.33487   0.00000  Uiso   1.00
C356   C     0.80662   0.35813   0.22370   0.00000  Uiso   1.00
C357   C     0.86004   0.64186   0.27632   0.00000  Uiso   1.00
C358   C     0.86005   0.35813   0.27630   0.00000  Uiso   1.00
C359   C     0.80663   0.64186   0.22368   0.00000  Uiso   1.00
C360   C     0.68796   0.45746   0.24996   0.00000  Uiso   1.00
Cu361  Cu    0.83333   0.54689   0.25000   0.00000  Uiso   1.00
Cu362  Cu    0.83333   0.45311   0.25000   0.00000  Uiso   1.00
H363   H     0.78519   0.37681   0.20265   0.00000  Uiso   1.00
H364   H     0.96269   0.57581   0.25001   0.00000  Uiso   1.00
H365   H     0.96269   0.42419   0.25009   0.00000  Uiso   1.00
H366   H     0.70397   0.57581   0.24999   0.00000  Uiso   1.00
H367   H     0.89728   0.56650   0.13807   0.00000  Uiso   1.00
H368   H     0.91774   0.50757   0.14026   0.00000  Uiso   1.00
H369   H     0.93028   0.54553   0.09478   0.00000  Uiso   1.00
H370   H     0.91774   0.49254   0.36028   0.00000  Uiso   1.00
H371   H     0.93040   0.45483   0.40600   0.00000  Uiso   1.00
H372   H     0.89741   0.43356   0.36262   0.00000  Uiso   1.00
H373   H     0.76939   0.56650   0.36193   0.00000  Uiso   1.00
H374   H     0.88142   0.62317   0.29742   0.00000  Uiso   1.00
H375   H     0.74893   0.50757   0.35974   0.00000  Uiso   1.00
H376   H     0.73639   0.54554   0.40522   0.00000  Uiso   1.00
H377   H     0.74893   0.49254   0.13972   0.00000  Uiso   1.00
H378   H     0.73626   0.45483   0.09400   0.00000  Uiso   1.00
H379   H     0.76926   0.43357   0.13738   0.00000  Uiso   1.00
H380   H     0.88147   0.37681   0.29735   0.00000  Uiso   1.00
H381   H     0.78524   0.62317   0.20258   0.00000  Uiso   1.00
H382   H     0.89372   0.53073   0.02954   0.00000  Uiso   1.00
H383   H     0.89375   0.46956   0.47095   0.00000  Uiso   1.00
H384   H     0.77295   0.53073   0.47046   0.00000  Uiso   1.00
H385   H     0.77291   0.46956   0.02905   0.00000  Uiso   1.00
H386   H     0.70397   0.42419   0.24991   0.00000  Uiso   1.00
N387   N     0.83333   0.61736   0.25000   0.00000  Uiso   1.00
N388   N     0.83333   0.38264   0.25000   0.00000  Uiso   1.00
O389   O     0.77321   0.53958   0.25000   0.00000  Uiso   1.00
O390   O     0.89345   0.46042   0.25001   0.00000  Uiso   1.00
O391   O     0.89345   0.53958   0.25001   0.00000  Uiso   1.00
O392   O     0.77321   0.46042   0.25000   0.00000  Uiso   1.00
O393   O     0.83333   0.53959   0.18573   0.00000  Uiso   1.00
O394   O     0.83334   0.46041   0.31427   0.00000  Uiso   1.00
O395   O     0.83334   0.53959   0.31427   0.00000  Uiso   1.00
O396   O     0.83333   0.46041   0.18573   0.00000  Uiso   1.00
C397   C     0.08736   0.83333   0.24996   0.00000  Uiso   1.00
C398   C     0.31204   0.87588   0.25001   0.00000  Uiso   1.00
C399   C     0.31204   0.79079   0.25004   0.00000  Uiso   1.00
C400   C     0.02129   0.87588   0.24999   0.00000  Uiso   1.00
C401   C     0.20083   0.85051   0.04758   0.00000  Uiso   1.00
C402   C     0.20087   0.81640   0.45269   0.00000  Uiso   1.00
C403   C     0.13250   0.85051   0.45242   0.00000  Uiso   1.00
C404   C     0.13247   0.81641   0.04731   0.00000  Uiso   1.00
C405   C     0.20121   0.85072   0.09385   0.00000  Uiso   1.00
C406   C     0.20126   0.81610   0.40643   0.00000  Uiso   1.00
C407   C     0.13213   0.85072   0.40615   0.00000  Uiso   1.00
C408   C     0.24598   0.83333   0.25004   0.00000  Uiso   1.00
C409   C     0.13208   0.81611   0.09357   0.00000  Uiso   1.00
C410   C     0.16665   0.83336   0.11690   0.00000  Uiso   1.00
C411   C     0.16669   0.83336   0.38310   0.00000  Uiso   1.00
C412   C     0.16666   0.83347   0.02430   0.00000  Uiso   1.00
C413   C     0.16668   0.83347   0.47570   0.00000  Uiso   1.00
C414   C     0.29059   0.83333   0.25004   0.00000  Uiso   1.00
C415   C     0.04274   0.83333   0.24996   0.00000  Uiso   1.00
C416   C     0.23877   0.86861   0.11805   0.00000  Uiso   1.00
C417   C     0.23885   0.79823   0.38254   0.00000  Uiso   1.00
C418   C     0.09456   0.86861   0.38195   0.00000  Uiso   1.00
C419   C     0.16664   0.83334   0.16513   0.00000  Uiso   1.00
C420   C     0.09448   0.79824   0.11746   0.00000  Uiso   1.00
C421   C     0.16669   0.83334   0.33487   0.00000  Uiso   1.00
C422   C     0.13995   0.69147   0.22370   0.00000  Uiso   1.00
C423   C     0.19337   0.97520   0.27632   0.00000  Uiso   1.00
C424   C     0.19338   0.69147   0.27630   0.00000  Uiso   1.00
C425   C     0.13996   0.97520   0.22368   0.00000  Uiso   1.00
C426   C     0.02129   0.79079   0.24996   0.00000  Uiso   1.00
Cu427  Cu    0.16667   0.88022   0.25000   0.00000  Uiso   1.00
Cu428  Cu    0.16667   0.78645   0.25000   0.00000  Uiso   1.00
H429   H     0.11853   0.71014   0.20265   0.00000  Uiso   1.00
H430   H     0.29603   0.90914   0.25001   0.00000  Uiso   1.00
H431   H     0.29603   0.75753   0.25009   0.00000  Uiso   1.00
H432   H     0.03731   0.90914   0.24999   0.00000  Uiso   1.00
H433   H     0.23061   0.89983   0.13807   0.00000  Uiso   1.00
H434   H     0.25107   0.84090   0.14026   0.00000  Uiso   1.00
H435   H     0.26362   0.87886   0.09478   0.00000  Uiso   1.00
H436   H     0.25107   0.82587   0.36028   0.00000  Uiso   1.00
H437   H     0.26373   0.78816   0.40600   0.00000  Uiso   1.00
H438   H     0.23074   0.76690   0.36262   0.00000  Uiso   1.00
H439   H     0.10273   0.89983   0.36193   0.00000  Uiso   1.00
H440   H     0.21476   0.95651   0.29742   0.00000  Uiso   1.00
H441   H     0.08226   0.84090   0.35974   0.00000  Uiso   1.00
H442   H     0.06972   0.87887   0.40522   0.00000  Uiso   1.00
H443   H     0.08226   0.82587   0.13972   0.00000  Uiso   1.00
H444   H     0.06960   0.78816   0.09400   0.00000  Uiso   1.00
H445   H     0.10259   0.76690   0.13738   0.00000  Uiso   1.00
H446   H     0.21481   0.71014   0.29735   0.00000  Uiso   1.00
H447   H     0.11858   0.95651   0.20258   0.00000  Uiso   1.00
H448   H     0.22705   0.86406   0.02954   0.00000  Uiso   1.00
H449   H     0.22708   0.80289   0.47095   0.00000  Uiso   1.00
H450   H     0.10628   0.86407   0.47046   0.00000  Uiso   1.00
H451   H     0.10625   0.80290   0.02905   0.00000  Uiso   1.00
H452   H     0.03731   0.75753   0.24991   0.00000  Uiso   1.00
N453   N     0.16667   0.95069   0.25000   0.00000  Uiso   1.00
N454   N     0.16667   0.71598   0.25000   0.00000  Uiso   1.00
O455   O     0.10655   0.87291   0.25000   0.00000  Uiso   1.00
O456   O     0.22679   0.79375   0.25001   0.00000  Uiso   1.00
O457   O     0.22679   0.87291   0.25001   0.00000  Uiso   1.00
O458   O     0.10655   0.79375   0.25000   0.00000  Uiso   1.00
O459   O     0.16666   0.87293   0.18573   0.00000  Uiso   1.00
O460   O     0.16667   0.79374   0.31427   0.00000  Uiso   1.00
O461   O     0.16667   0.87293   0.31427   0.00000  Uiso   1.00
O462   O     0.16666   0.79374   0.18573   0.00000  Uiso   1.00
C463   C     0.42069   0.83333   0.24996   0.00000  Uiso   1.00
C464   C     0.64538   0.87588   0.25001   0.00000  Uiso   1.00
C465   C     0.64538   0.79079   0.25004   0.00000  Uiso   1.00
C466   C     0.35462   0.87588   0.24999   0.00000  Uiso   1.00
C467   C     0.53416   0.85051   0.04758   0.00000  Uiso   1.00
C468   C     0.53420   0.81640   0.45269   0.00000  Uiso   1.00
C469   C     0.46584   0.85051   0.45242   0.00000  Uiso   1.00
C470   C     0.46580   0.81641   0.04731   0.00000  Uiso   1.00
C471   C     0.53454   0.85072   0.09385   0.00000  Uiso   1.00
C472   C     0.53459   0.81610   0.40643   0.00000  Uiso   1.00
C473   C     0.46546   0.85072   0.40615   0.00000  Uiso   1.00
C474   C     0.57931   0.83333   0.25004   0.00000  Uiso   1.00
C475   C     0.46541   0.81611   0.09357   0.00000  Uiso   1.00
C476   C     0.49998   0.83336   0.11690   0.00000  Uiso   1.00
C477   C     0.50002   0.83336   0.38310   0.00000  Uiso   1.00
C478   C     0.49999   0.83347   0.02430   0.00000  Uiso   1.00
C479   C     0.50001   0.83347   0.47570   0.00000  Uiso   1.00
C480   C     0.62392   0.83333   0.25004   0.00000  Uiso   1.00
C481   C     0.37608   0.83333   0.24996   0.00000  Uiso   1.00
C482   C     0.57211   0.86861   0.11805   0.00000  Uiso   1.00
C483   C     0.57218   0.79823   0.38254   0.00000  Uiso   1.00
C484   C     0.42789   0.86861   0.38195   0.00000  Uiso   1.00
C485   C     0.49997   0.83334   0.16513   0.00000  Uiso   1.00
C486   C     0.42781   0.79824   0.11746   0.00000  Uiso   1.00
C487   C     0.50003   0.83334   0.33487   0.00000  Uiso   1.00
C488   C     0.47328   0.69147   0.22370   0.00000  Uiso   1.00
C489   C     0.52670   0.97520   0.27632   0.00000  Uiso   1.00
C490   C     0.52672   0.69147   0.27630   0.00000  Uiso   1.00
C491   C     0.47330   0.97520   0.22368   0.00000  Uiso   1.00
C492   C     0.35462   0.79079   0.24996   0.00000  Uiso   1.00
Cu493  Cu    0.50000   0.88022   0.25000   0.00000  Uiso   1.00
Cu494  Cu    0.50000   0.78645   0.25000   0.00000  Uiso   1.00
H495   H     0.45186   0.71014   0.20265   0.00000  Uiso   1.00
H496   H     0.62936   0.90914   0.25001   0.00000  Uiso   1.00
H497   H     0.62936   0.75753   0.25009   0.00000  Uiso   1.00
H498   H     0.37064   0.90914   0.24999   0.00000  Uiso   1.00
H499   H     0.56394   0.89983   0.13807   0.00000  Uiso   1.00
H500   H     0.58441   0.84090   0.14026   0.00000  Uiso   1.00
H501   H     0.59695   0.87886   0.09478   0.00000  Uiso   1.00
H502   H     0.58440   0.82587   0.36028   0.00000  Uiso   1.00
H503   H     0.59707   0.78816   0.40600   0.00000  Uiso   1.00
H504   H     0.56407   0.76690   0.36262   0.00000  Uiso   1.00
H505   H     0.43606   0.89983   0.36193   0.00000  Uiso   1.00
H506   H     0.54809   0.95651   0.29742   0.00000  Uiso   1.00
H507   H     0.41559   0.84090   0.35974   0.00000  Uiso   1.00
H508   H     0.40305   0.87887   0.40522   0.00000  Uiso   1.00
H509   H     0.41560   0.82587   0.13972   0.00000  Uiso   1.00
H510   H     0.40293   0.78816   0.09400   0.00000  Uiso   1.00
H511   H     0.43592   0.76690   0.13738   0.00000  Uiso   1.00
H512   H     0.54814   0.71014   0.29735   0.00000  Uiso   1.00
H513   H     0.45191   0.95651   0.20258   0.00000  Uiso   1.00
H514   H     0.56039   0.86406   0.02954   0.00000  Uiso   1.00
H515   H     0.56042   0.80289   0.47095   0.00000  Uiso   1.00
H516   H     0.43961   0.86407   0.47046   0.00000  Uiso   1.00
H517   H     0.43958   0.80290   0.02905   0.00000  Uiso   1.00
H518   H     0.37064   0.75753   0.24991   0.00000  Uiso   1.00
N519   N     0.50000   0.95069   0.25000   0.00000  Uiso   1.00
N520   N     0.50000   0.71598   0.25000   0.00000  Uiso   1.00
O521   O     0.43988   0.87291   0.25000   0.00000  Uiso   1.00
O522   O     0.56012   0.79375   0.25001   0.00000  Uiso   1.00
O523   O     0.56012   0.87291   0.25001   0.00000  Uiso   1.00
O524   O     0.43988   0.79375   0.25000   0.00000  Uiso   1.00
O525   O     0.50000   0.87293   0.18573   0.00000  Uiso   1.00
O526   O     0.50000   0.79374   0.31427   0.00000  Uiso   1.00
O527   O     0.50000   0.87293   0.31427   0.00000  Uiso   1.00
O528   O     0.50000   0.79374   0.18573   0.00000  Uiso   1.00
C529   C     0.75402   0.83333   0.24996   0.00000  Uiso   1.00
C530   C     0.97871   0.87588   0.25001   0.00000  Uiso   1.00
C531   C     0.97871   0.79079   0.25004   0.00000  Uiso   1.00
C532   C     0.68796   0.87588   0.24999   0.00000  Uiso   1.00
C533   C     0.86750   0.85051   0.04758   0.00000  Uiso   1.00
C534   C     0.86753   0.81640   0.45269   0.00000  Uiso   1.00
C535   C     0.79917   0.85051   0.45242   0.00000  Uiso   1.00
C536   C     0.79913   0.81641   0.04731   0.00000  Uiso   1.00
C537   C     0.86787   0.85072   0.09385   0.00000  Uiso   1.00
C538   C     0.86792   0.81610   0.40643   0.00000  Uiso   1.00
C539   C     0.79879   0.85072   0.40615   0.00000  Uiso   1.00
C540   C     0.91264   0.83333   0.25004   0.00000  Uiso   1.00
C541   C     0.79874   0.81611   0.09357   0.00000  Uiso   1.00
C542   C     0.83331   0.83336   0.11690   0.00000  Uiso   1.00
C543   C     0.83335   0.83336   0.38310   0.00000  Uiso   1.00
C544   C     0.83332   0.83347   0.02430   0.00000  Uiso   1.00
C545   C     0.83334   0.83347   0.47570   0.00000  Uiso   1.00
C546   C     0.95726   0.83333   0.25004   0.00000  Uiso   1.00
C547   C     0.70941   0.83333   0.24996   0.00000  Uiso   1.00
C548   C     0.90544   0.86861   0.11805   0.00000  Uiso   1.00
C549   C     0.90552   0.79823   0.38254   0.00000  Uiso   1.00
C550   C     0.76123   0.86861   0.38195   0.00000  Uiso   1.00
C551   C     0.83331   0.83334   0.16513   0.00000  Uiso   1.00
C552   C     0.76115   0.79824   0.11746   0.00000  Uiso   1.00
C553   C     0.83336   0.83334   0.33487   0.00000  Uiso   1.00
C554   C     0.80662   0.69147   0.22370   0.00000  Uiso   1.00
C555   C     0.86004   0.97520   0.27632   0.00000  Uiso   1.00
C556   C     0.86005   0.69147   0.27630   0.00000  Uiso   1.00
C557   C     0.80663   0.97520   0.22368   0.00000  Uiso   1.00
C558   C     0.68796   0.79079   0.24996   0.00000  Uiso   1.00
Cu559  Cu    0.83333   0.88022   0.25000   0.00000  Uiso   1.00
Cu560  Cu    0.83333   0.78645   0.25000   0.00000  Uiso   1.00
H561   H     0.78519   0.71014   0.20265   0.00000  Uiso   1.00
H562   H     0.96269   0.90914   0.25001   0.00000  Uiso   1.00
H563   H     0.96269   0.75753   0.25009   0.00000  Uiso   1.00
H564   H     0.70397   0.90914   0.24999   0.00000  Uiso   1.00
H565   H     0.89728   0.89983   0.13807   0.00000  Uiso   1.00
H566   H     0.91774   0.84090   0.14026   0.00000  Uiso   1.00
H567   H     0.93028   0.87886   0.09478   0.00000  Uiso   1.00
H568   H     0.91774   0.82587   0.36028   0.00000  Uiso   1.00
H569   H     0.93040   0.78816   0.40600   0.00000  Uiso   1.00
H570   H     0.89741   0.76690   0.36262   0.00000  Uiso   1.00
H571   H     0.76939   0.89983   0.36193   0.00000  Uiso   1.00
H572   H     0.88142   0.95651   0.29742   0.00000  Uiso   1.00
H573   H     0.74893   0.84090   0.35974   0.00000  Uiso   1.00
H574   H     0.73639   0.87887   0.40522   0.00000  Uiso   1.00
H575   H     0.74893   0.82587   0.13972   0.00000  Uiso   1.00
H576   H     0.73626   0.78816   0.09400   0.00000  Uiso   1.00
H577   H     0.76926   0.76690   0.13738   0.00000  Uiso   1.00
H578   H     0.88147   0.71014   0.29735   0.00000  Uiso   1.00
H579   H     0.78524   0.95651   0.20258   0.00000  Uiso   1.00
H580   H     0.89372   0.86406   0.02954   0.00000  Uiso   1.00
H581   H     0.89375   0.80289   0.47095   0.00000  Uiso   1.00
H582   H     0.77295   0.86407   0.47046   0.00000  Uiso   1.00
H583   H     0.77291   0.80290   0.02905   0.00000  Uiso   1.00
H584   H     0.70397   0.75753   0.24991   0.00000  Uiso   1.00
N585   N     0.83333   0.95069   0.25000   0.00000  Uiso   1.00
N586   N     0.83333   0.71598   0.25000   0.00000  Uiso   1.00
O587   O     0.77321   0.87291   0.25000   0.00000  Uiso   1.00
O588   O     0.89345   0.79375   0.25001   0.00000  Uiso   1.00
O589   O     0.89345   0.87291   0.25001   0.00000  Uiso   1.00
O590   O     0.77321   0.79375   0.25000   0.00000  Uiso   1.00
O591   O     0.83333   0.87293   0.18573   0.00000  Uiso   1.00
O592   O     0.83334   0.79374   0.31427   0.00000  Uiso   1.00
O593   O     0.83334   0.87293   0.31427   0.00000  Uiso   1.00
O594   O     0.83333   0.79374   0.18573   0.00000  Uiso   1.00
C595   C     0.08736   0.16667   0.74996   0.00000  Uiso   1.00
C596   C     0.31204   0.20921   0.75001   0.00000  Uiso   1.00
C597   C     0.31204   0.12412   0.75004   0.00000  Uiso   1.00
C598   C     0.02129   0.20921   0.74999   0.00000  Uiso   1.00
C599   C     0.20083   0.18385   0.54758   0.00000  Uiso   1.00
C600   C     0.20087   0.14974   0.95269   0.00000  Uiso   1.00
C601   C     0.13250   0.18385   0.95242   0.00000  Uiso   1.00
C602   C     0.13247   0.14974   0.54731   0.00000  Uiso   1.00
C603   C     0.20121   0.18405   0.59385   0.00000  Uiso   1.00
C604   C     0.20126   0.14944   0.90643   0.00000  Uiso   1.00
C605   C     0.13213   0.18405   0.90615   0.00000  Uiso   1.00
C606   C     0.24598   0.16667   0.75004   0.00000  Uiso   1.00
C607   C     0.13208   0.14944   0.59357   0.00000  Uiso   1.00
C608   C     0.16665   0.16670   0.61690   0.00000  Uiso   1.00
C609   C     0.16669   0.16670   0.88310   0.00000  Uiso   1.00
C610   C     0.16666   0.16680   0.52430   0.00000  Uiso   1.00
C611   C     0.16668   0.16680   0.97570   0.00000  Uiso   1.00
C612   C     0.29059   0.16667   0.75004   0.00000  Uiso   1.00
C613   C     0.04274   0.16667   0.74996   0.00000  Uiso   1.00
C614   C     0.23877   0.20194   0.61805   0.00000  Uiso   1.00
C615   C     0.23885   0.13157   0.88254   0.00000  Uiso   1.00
C616   C     0.09456   0.20194   0.88195   0.00000  Uiso   1.00
C617   C     0.16664   0.16667   0.66513   0.00000  Uiso   1.00
C618   C     0.09448   0.13157   0.61746   0.00000  Uiso   1.00
C619   C     0.16669   0.16667   0.83487   0.00000  Uiso   1.00
C620   C     0.13995   0.02480   0.72370   0.00000  Uiso   1.00
C621   C     0.19337   0.30853   0.77632   0.00000  Uiso   1.00
C622   C     0.19338   0.02480   0.77630   0.00000  Uiso   1.00
C623   C     0.13996   0.30853   0.72368   0.00000  Uiso   1.00
C624   C     0.02129   0.12412   0.74996   0.00000  Uiso   1.00
Cu625  Cu    0.16667   0.21355   0.75000   0.00000  Uiso   1.00
Cu626  Cu    0.16667   0.11978   0.75000   0.00000  Uiso   1.00
H627   H     0.11853   0.04347   0.70265   0.00000  Uiso   1.00
H628   H     0.29603   0.24247   0.75001   0.00000  Uiso   1.00
H629   H     0.29603   0.09086   0.75009   0.00000  Uiso   1.00
H630   H     0.03731   0.24247   0.74999   0.00000  Uiso   1.00
H631   H     0.23061   0.23316   0.63807   0.00000  Uiso   1.00
H632   H     0.25107   0.17423   0.64026   0.00000  Uiso   1.00
H633   H     0.26362   0.21220   0.59478   0.00000  Uiso   1.00
H634   H     0.25107   0.15920   0.86028   0.00000  Uiso   1.00
H635   H     0.26373   0.12149   0.90600   0.00000  Uiso   1.00
H636   H     0.23074   0.10023   0.86262   0.00000  Uiso   1.00
H637   H     0.10273   0.23317   0.86193   0.00000  Uiso   1.00
H638   H     0.21476   0.28984   0.79742   0.00000  Uiso   1.00
H639   H     0.08226   0.17424   0.85974   0.00000  Uiso   1.00
H640   H     0.06972   0.21220   0.90522   0.00000  Uiso   1.00
H641   H     0.08226   0.15921   0.63972   0.00000  Uiso   1.00
H642   H     0.06960   0.12150   0.59400   0.00000  Uiso   1.00
H643   H     0.10259   0.10023   0.63738   0.00000  Uiso   1.00
H644   H     0.21481   0.04347   0.79735   0.00000  Uiso   1.00
H645   H     0.11858   0.28984   0.70258   0.00000  Uiso   1.00
H646   H     0.22705   0.19740   0.52954   0.00000  Uiso   1.00
H647   H     0.22708   0.13623   0.97095   0.00000  Uiso   1.00
H648   H     0.10628   0.19740   0.97046   0.00000  Uiso   1.00
H649   H     0.10625   0.13623   0.52905   0.00000  Uiso   1.00
H650   H     0.03731   0.09086   0.74991   0.00000  Uiso   1.00
N651   N     0.16667   0.28402   0.75000   0.00000  Uiso   1.00
N652   N     0.16667   0.04931   0.75000   0.00000  Uiso   1.00
O653   O     0.10655   0.20625   0.75000   0.00000  Uiso   1.00
O654   O     0.22679   0.12709   0.75001   0.00000  Uiso   1.00
O655   O     0.22679   0.20625   0.75001   0.00000  Uiso   1.00
O656   O     0.10655   0.12709   0.75000   0.00000  Uiso   1.00
O657   O     0.16666   0.20626   0.68573   0.00000  Uiso   1.00
O658   O     0.16667   0.12707   0.81427   0.00000  Uiso   1.00
O659   O     0.16667   0.20626   0.81427   0.00000  Uiso   1.00
O660   O     0.16666   0.12707   0.68573   0.00000  Uiso   1.00
C661   C     0.42069   0.16667   0.74996   0.00000  Uiso   1.00
C662   C     0.64538   0.20921   0.75001   0.00000  Uiso   1.00
C663   C     0.64538   0.12412   0.75004   0.00000  Uiso   1.00
C664   C     0.35462   0.20921   0.74999   0.00000  Uiso   1.00
C665   C     0.53416   0.18385   0.54758   0.00000  Uiso   1.00
C666   C     0.53420   0.14974   0.95269   0.00000  Uiso   1.00
C667   C     0.46584   0.18385   0.95242   0.00000  Uiso   1.00
C668   C     0.46580   0.14974   0.54731   0.00000  Uiso   1.00
C669   C     0.53454   0.18405   0.59385   0.00000  Uiso   1.00
C670   C     0.53459   0.14944   0.90643   0.00000  Uiso   1.00
C671   C     0.46546   0.18405   0.90615   0.00000  Uiso   1.00
C672   C     0.57931   0.16667   0.75004   0.00000  Uiso   1.00
C673   C     0.46541   0.14944   0.59357   0.00000  Uiso   1.00
C674   C     0.49998   0.16670   0.61690   0.00000  Uiso   1.00
C675   C     0.50002   0.16670   0.88310   0.00000  Uiso   1.00
C676   C     0.49999   0.16680   0.52430   0.00000  Uiso   1.00
C677   C     0.50001   0.16680   0.97570   0.00000  Uiso   1.00
C678   C     0.62392   0.16667   0.75004   0.00000  Uiso   1.00
C679   C     0.37608   0.16667   0.74996   0.00000  Uiso   1.00
C680   C     0.57211   0.20194   0.61805   0.00000  Uiso   1.00
C681   C     0.57218   0.13157   0.88254   0.00000  Uiso   1.00
C682   C     0.42789   0.20194   0.88195   0.00000  Uiso   1.00
C683   C     0.49997   0.16667   0.66513   0.00000  Uiso   1.00
C684   C     0.42781   0.13157   0.61746   0.00000  Uiso   1.00
C685   C     0.50003   0.16667   0.83487   0.00000  Uiso   1.00
C686   C     0.47328   0.02480   0.72370   0.00000  Uiso   1.00
C687   C     0.52670   0.30853   0.77632   0.00000  Uiso   1.00
C688   C     0.52672   0.02480   0.77630   0.00000  Uiso   1.00
C689   C     0.47330   0.30853   0.72368   0.00000  Uiso   1.00
C690   C     0.35462   0.12412   0.74996   0.00000  Uiso   1.00
Cu691  Cu    0.50000   0.21355   0.75000   0.00000  Uiso   1.00
Cu692  Cu    0.50000   0.11978   0.75000   0.00000  Uiso   1.00
H693   H     0.45186   0.04347   0.70265   0.00000  Uiso   1.00
H694   H     0.62936   0.24247   0.75001   0.00000  Uiso   1.00
H695   H     0.62936   0.09086   0.75009   0.00000  Uiso   1.00
H696   H     0.37064   0.24247   0.74999   0.00000  Uiso   1.00
H697   H     0.56394   0.23316   0.63807   0.00000  Uiso   1.00
H698   H     0.58441   0.17423   0.64026   0.00000  Uiso   1.00
H699   H     0.59695   0.21220   0.59478   0.00000  Uiso   1.00
H700   H     0.58440   0.15920   0.86028   0.00000  Uiso   1.00
H701   H     0.59707   0.12149   0.90600   0.00000  Uiso   1.00
H702   H     0.56407   0.10023   0.86262   0.00000  Uiso   1.00
H703   H     0.43606   0.23317   0.86193   0.00000  Uiso   1.00
H704   H     0.54809   0.28984   0.79742   0.00000  Uiso   1.00
H705   H     0.41559   0.17424   0.85974   0.00000  Uiso   1.00
H706   H     0.40305   0.21220   0.90522   0.00000  Uiso   1.00
H707   H     0.41560   0.15921   0.63972   0.00000  Uiso   1.00
H708   H     0.40293   0.12150   0.59400   0.00000  Uiso   1.00
H709   H     0.43592   0.10023   0.63738   0.00000  Uiso   1.00
H710   H     0.54814   0.04347   0.79735   0.00000  Uiso   1.00
H711   H     0.45191   0.28984   0.70258   0.00000  Uiso   1.00
H712   H     0.56039   0.19740   0.52954   0.00000  Uiso   1.00
H713   H     0.56042   0.13623   0.97095   0.00000  Uiso   1.00
H714   H     0.43961   0.19740   0.97046   0.00000  Uiso   1.00
H715   H     0.43958   0.13623   0.52905   0.00000  Uiso   1.00
H716   H     0.37064   0.09086   0.74991   0.00000  Uiso   1.00
N717   N     0.50000   0.28402   0.75000   0.00000  Uiso   1.00
N718   N     0.50000   0.04931   0.75000   0.00000  Uiso   1.00
O719   O     0.43988   0.20625   0.75000   0.00000  Uiso   1.00
O720   O     0.56012   0.12709   0.75001   0.00000  Uiso   1.00
O721   O     0.56012   0.20625   0.75001   0.00000  Uiso   1.00
O722   O     0.43988   0.12709   0.75000   0.00000  Uiso   1.00
O723   O     0.50000   0.20626   0.68573   0.00000  Uiso   1.00
O724   O     0.50000   0.12707   0.81427   0.00000  Uiso   1.00
O725   O     0.50000   0.20626   0.81427   0.00000  Uiso   1.00
O726   O     0.50000   0.12707   0.68573   0.00000  Uiso   1.00
C727   C     0.75402   0.16667   0.74996   0.00000  Uiso   1.00
C728   C     0.97871   0.20921   0.75001   0.00000  Uiso   1.00
C729   C     0.97871   0.12412   0.75004   0.00000  Uiso   1.00
C730   C     0.68796   0.20921   0.74999   0.00000  Uiso   1.00
C731   C     0.86750   0.18385   0.54758   0.00000  Uiso   1.00
C732   C     0.86753   0.14974   0.95269   0.00000  Uiso   1.00
C733   C     0.79917   0.18385   0.95242   0.00000  Uiso   1.00
C734   C     0.79913   0.14974   0.54731   0.00000  Uiso   1.00
C735   C     0.86787   0.18405   0.59385   0.00000  Uiso   1.00
C736   C     0.86792   0.14944   0.90643   0.00000  Uiso   1.00
C737   C     0.79879   0.18405   0.90615   0.00000  Uiso   1.00
C738   C     0.91264   0.16667   0.75004   0.00000  Uiso   1.00
C739   C     0.79874   0.14944   0.59357   0.00000  Uiso   1.00
C740   C     0.83331   0.16670   0.61690   0.00000  Uiso   1.00
C741   C     0.83335   0.16670   0.88310   0.00000  Uiso   1.00
C742   C     0.83332   0.16680   0.52430   0.00000  Uiso   1.00
C743   C     0.83334   0.16680   0.97570   0.00000  Uiso   1.00
C744   C     0.95726   0.16667   0.75004   0.00000  Uiso   1.00
C745   C     0.70941   0.16667   0.74996   0.00000  Uiso   1.00
C746   C     0.90544   0.20194   0.61805   0.00000  Uiso   1.00
C747   C     0.90552   0.13157   0.88254   0.00000  Uiso   1.00
C748   C     0.76123   0.20194   0.88195   0.00000  Uiso   1.00
C749   C     0.83331   0.16667   0.66513   0.00000  Uiso   1.00
C750   C     0.76115   0.13157   0.61746   0.00000  Uiso   1.00
C751   C     0.83336   0.16667   0.83487   0.00000  Uiso   1.00
C752   C     0.80662   0.02480   0.72370   0.00000  Uiso   1.00
C753   C     0.86004   0.30853   0.77632   0.00000  Uiso   1.00
C754   C     0.86005   0.02480   0.77630   0.00000  Uiso   1.00
C755   C     0.80663   0.30853   0.72368   0.00000  Uiso   1.00
C756   C     0.68796   0.12412   0.74996   0.00000  Uiso   1.00
Cu757  Cu    0.83333   0.21355   0.75000   0.00000  Uiso   1.00
Cu758  Cu    0.83333   0.11978   0.75000   0.00000  Uiso   1.00
H759   H     0.78519   0.04347   0.70265   0.00000  Uiso   1.00
H760   H     0.96269   0.24247   0.75001   0.00000  Uiso   1.00
H761   H     0.96269   0.09086   0.75009   0.00000  Uiso   1.00
H762   H     0.70397   0.24247   0.74999   0.00000  Uiso   1.00
H763   H     0.89728   0.23316   0.63807   0.00000  Uiso   1.00
H764   H     0.91774   0.17423   0.64026   0.00000  Uiso   1.00
H765   H     0.93028   0.21220   0.59478   0.00000  Uiso   1.00
H766   H     0.91774   0.15920   0.86028   0.00000  Uiso   1.00
H767   H     0.93040   0.12149   0.90600   0.00000  Uiso   1.00
H768   H     0.89741   0.10023   0.86262   0.00000  Uiso   1.00
H769   H     0.76939   0.23317   0.86193   0.00000  Uiso   1.00
H770   H     0.88142   0.28984   0.79742   0.00000  Uiso   1.00
H771   H     0.74893   0.17424   0.85974   0.00000  Uiso   1.00
H772   H     0.73639   0.21220   0.90522   0.00000  Uiso   1.00
H773   H     0.74893   0.15921   0.63972   0.00000  Uiso   1.00
H774   H     0.73626   0.12150   0.59400   0.00000  Uiso   1.00
H775   H     0.76926   0.10023   0.63738   0.00000  Uiso   1.00
H776   H     0.88147   0.04347   0.79735   0.00000  Uiso   1.00
H777   H     0.78524   0.28984   0.70258   0.00000  Uiso   1.00
H778   H     0.89372   0.19740   0.52954   0.00000  Uiso   1.00
H779   H     0.89375   0.13623   0.97095   0.00000  Uiso   1.00
H780   H     0.77295   0.19740   0.97046   0.00000  Uiso   1.00
H781   H     0.77291   0.13623   0.52905   0.00000  Uiso   1.00
H782   H     0.70397   0.09086   0.74991   0.00000  Uiso   1.00
N783   N     0.83333   0.28402   0.75000   0.00000  Uiso   1.00
N784   N     0.83333   0.04931   0.75000   0.00000  Uiso   1.00
O785   O     0.77321   0.20625   0.75000   0.00000  Uiso   1.00
O786   O     0.89345   0.12709   0.75001   0.00000  Uiso   1.00
O787   O     0.89345   0.20625   0.75001   0.00000  Uiso   1.00
O788   O     0.77321   0.12709   0.75000   0.00000  Uiso   1.00
O789   O     0.83333   0.20626   0.68573   0.00000  Uiso   1.00
O790   O     0.83334   0.12707   0.81427   0.00000  Uiso   1.00
O791   O     0.83334   0.20626   0.81427   0.00000  Uiso   1.00
O792   O     0.83333   0.12707   0.68573   0.00000  Uiso   1.00
C793   C     0.08736   0.50000   0.74996   0.00000  Uiso   1.00
C794   C     0.31204   0.54254   0.75001   0.00000  Uiso   1.00
C795   C     0.31204   0.45746   0.75004   0.00000  Uiso   1.00
C796   C     0.02129   0.54254   0.74999   0.00000  Uiso   1.00
C797   C     0.20083   0.51718   0.54758   0.00000  Uiso   1.00
C798   C     0.20087   0.48307   0.95269   0.00000  Uiso   1.00
C799   C     0.13250   0.51718   0.95242   0.00000  Uiso   1.00
C800   C     0.13247   0.48307   0.54731   0.00000  Uiso   1.00
C801   C     0.20121   0.51739   0.59385   0.00000  Uiso   1.00
C802   C     0.20126   0.48277   0.90643   0.00000  Uiso   1.00
C803   C     0.13213   0.51739   0.90615   0.00000  Uiso   1.00
C804   C     0.24598   0.50000   0.75004   0.00000  Uiso   1.00
C805   C     0.13208   0.48277   0.59357   0.00000  Uiso   1.00
C806   C     0.16665   0.50003   0.61690   0.00000  Uiso   1.00
C807   C     0.16669   0.50003   0.88310   0.00000  Uiso   1.00
C808   C     0.16666   0.50014   0.52430   0.00000  Uiso   1.00
C809   C     0.16668   0.50014   0.97570   0.00000  Uiso   1.00
C810   C     0.29059   0.50000   0.75004   0.00000  Uiso   1.00
C811   C     0.04274   0.50000   0.74996   0.00000  Uiso   1.00
C812   C     0.23877   0.53527   0.61805   0.00000  Uiso   1.00
C813   C     0.23885   0.46490   0.88254   0.00000  Uiso   1.00
C814   C     0.09456   0.53528   0.88195   0.00000  Uiso   1.00
C815   C     0.16664   0.50000   0.66513   0.00000  Uiso   1.00
C816   C     0.09448   0.46490   0.61746   0.00000  Uiso   1.00
C817   C     0.16669   0.50000   0.83487   0.00000  Uiso   1.00
C818   C     0.13995   0.35813   0.72370   0.00000  Uiso   1.00
C819   C     0.19337   0.64186   0.77632   0.00000  Uiso   1.00
C820   C     0.19338   0.35813   0.77630   0.00000  Uiso   1.00
C821   C     0.13996   0.64186   0.72368   0.00000  Uiso   1.00
C822   C     0.02129   0.45746   0.74996   0.00000  Uiso   1.00
Cu823  Cu    0.16667   0.54689   0.75000   0.00000  Uiso   1.00
Cu824  Cu    0.16667   0.45311   0.75000   0.00000  Uiso   1.00
H825   H     0.11853   0.37681   0.70265   0.00000  Uiso   1.00
H826   H     0.29603   0.57581   0.75001   0.00000  Uiso   1.00
H827   H     0.29603   0.42419   0.75009   0.00000  Uiso   1.00
H828   H     0.03731   0.57581   0.74999   0.00000  Uiso   1.00
H829   H     0.23061   0.56650   0.63807   0.00000  Uiso   1.00
H830   H     0.25107   0.50757   0.64026   0.00000  Uiso   1.00
H831   H     0.26362   0.54553   0.59478   0.00000  Uiso   1.00
H832   H     0.25107   0.49254   0.86028   0.00000  Uiso   1.00
H833   H     0.26373   0.45483   0.90600   0.00000  Uiso   1.00
H834   H     0.23074   0.43356   0.86262   0.00000  Uiso   1.00
H835   H     0.10273   0.56650   0.86193   0.00000  Uiso   1.00
H836   H     0.21476   0.62317   0.79742   0.00000  Uiso   1.00
H837   H     0.08226   0.50757   0.85974   0.00000  Uiso   1.00
H838   H     0.06972   0.54554   0.90522   0.00000  Uiso   1.00
H839   H     0.08226   0.49254   0.63972   0.00000  Uiso   1.00
H840   H     0.06960   0.45483   0.59400   0.00000  Uiso   1.00
H841   H     0.10259   0.43357   0.63738   0.00000  Uiso   1.00
H842   H     0.21481   0.37681   0.79735   0.00000  Uiso   1.00
H843   H     0.11858   0.62317   0.70258   0.00000  Uiso   1.00
H844   H     0.22705   0.53073   0.52954   0.00000  Uiso   1.00
H845   H     0.22708   0.46956   0.97095   0.00000  Uiso   1.00
H846   H     0.10628   0.53073   0.97046   0.00000  Uiso   1.00
H847   H     0.10625   0.46956   0.52905   0.00000  Uiso   1.00
H848   H     0.03731   0.42419   0.74991   0.00000  Uiso   1.00
N849   N     0.16667   0.61736   0.75000   0.00000  Uiso   1.00
N850   N     0.16667   0.38264   0.75000   0.00000  Uiso   1.00
O851   O     0.10655   0.53958   0.75000   0.00000  Uiso   1.00
O852   O     0.22679   0.46042   0.75001   0.00000  Uiso   1.00
O853   O     0.22679   0.53958   0.75001   0.00000  Uiso   1.00
O854   O     0.10655   0.46042   0.75000   0.00000  Uiso   1.00
O855   O     0.16666   0.53959   0.68573   0.00000  Uiso   1.00
O856   O     0.16667   0.46041   0.81427   0.00000  Uiso   1.00
O857   O     0.16667   0.53959   0.81427   0.00000  Uiso   1.00
O858   O     0.16666   0.46041   0.68573   0.00000  Uiso   1.00
C859   C     0.42069   0.50000   0.74996   0.00000  Uiso   1.00
C860   C     0.64538   0.54254   0.75001   0.00000  Uiso   1.00
C861   C     0.64538   0.45746   0.75004   0.00000  Uiso   1.00
C862   C     0.35462   0.54254   0.74999   0.00000  Uiso   1.00
C863   C     0.53416   0.51718   0.54758   0.00000  Uiso   1.00
C864   C     0.53420   0.48307   0.95269   0.00000  Uiso   1.00
C865   C     0.46584   0.51718   0.95242   0.00000  Uiso   1.00
C866   C     0.46580   0.48307   0.54731   0.00000  Uiso   1.00
C867   C     0.53454   0.51739   0.59385   0.00000  Uiso   1.00
C868   C     0.53459   0.48277   0.90643   0.00000  Uiso   1.00
C869   C     0.46546   0.51739   0.90615   0.00000  Uiso   1.00
C870   C     0.57931   0.50000   0.75004   0.00000  Uiso   1.00
C871   C     0.46541   0.48277   0.59357   0.00000  Uiso   1.00
C872   C     0.49998   0.50003   0.61690   0.00000  Uiso   1.00
C873   C     0.50002   0.50003   0.88310   0.00000  Uiso   1.00
C874   C     0.49999   0.50014   0.52430   0.00000  Uiso   1.00
C875   C     0.50001   0.50014   0.97570   0.00000  Uiso   1.00
C876   C     0.62392   0.50000   0.75004   0.00000  Uiso   1.00
C877   C     0.37608   0.50000   0.74996   0.00000  Uiso   1.00
C878   C     0.57211   0.53527   0.61805   0.00000  Uiso   1.00
C879   C     0.57218   0.46490   0.88254   0.00000  Uiso   1.00
C880   C     0.42789   0.53528   0.88195   0.00000  Uiso   1.00
C881   C     0.49997   0.50000   0.66513   0.00000  Uiso   1.00
C882   C     0.42781   0.46490   0.61746   0.00000  Uiso   1.00
C883   C     0.50003   0.50000   0.83487   0.00000  Uiso   1.00
C884   C     0.47328   0.35813   0.72370   0.00000  Uiso   1.00
C885   C     0.52670   0.64186   0.77632   0.00000  Uiso   1.00
C886   C     0.52672   0.35813   0.77630   0.00000  Uiso   1.00
C887   C     0.47330   0.64186   0.72368   0.00000  Uiso   1.00
C888   C     0.35462   0.45746   0.74996   0.00000  Uiso   1.00
Cu889  Cu    0.50000   0.54689   0.75000   0.00000  Uiso   1.00
Cu890  Cu    0.50000   0.45311   0.75000   0.00000  Uiso   1.00
H891   H     0.45186   0.37681   0.70265   0.00000  Uiso   1.00
H892   H     0.62936   0.57581   0.75001   0.00000  Uiso   1.00
H893   H     0.62936   0.42419   0.75009   0.00000  Uiso   1.00
H894   H     0.37064   0.57581   0.74999   0.00000  Uiso   1.00
H895   H     0.56394   0.56650   0.63807   0.00000  Uiso   1.00
H896   H     0.58441   0.50757   0.64026   0.00000  Uiso   1.00
H897   H     0.59695   0.54553   0.59478   0.00000  Uiso   1.00
H898   H     0.58440   0.49254   0.86028   0.00000  Uiso   1.00
H899   H     0.59707   0.45483   0.90600   0.00000  Uiso   1.00
H900   H     0.56407   0.43356   0.86262   0.00000  Uiso   1.00
H901   H     0.43606   0.56650   0.86193   0.00000  Uiso   1.00
H902   H     0.54809   0.62317   0.79742   0.00000  Uiso   1.00
H903   H     0.41559   0.50757   0.85974   0.00000  Uiso   1.00
H904   H     0.40305   0.54554   0.90522   0.00000  Uiso   1.00
H905   H     0.41560   0.49254   0.63972   0.00000  Uiso   1.00
H906   H     0.40293   0.45483   0.59400   0.00000  Uiso   1.00
H907   H     0.43592   0.43357   0.63738   0.00000  Uiso   1.00
H908   H     0.54814   0.37681   0.79735   0.00000  Uiso   1.00
H909   H     0.45191   0.62317   0.70258   0.00000  Uiso   1.00
H910   H     0.56039   0.53073   0.52954   0.00000  Uiso   1.00
H911   H     0.56042   0.46956   0.97095   0.00000  Uiso   1.00
H912   H     0.43961   0.53073   0.97046   0.00000  Uiso   1.00
H913   H     0.43958   0.46956   0.52905   0.00000  Uiso   1.00
H914   H     0.37064   0.42419   0.74991   0.00000  Uiso   1.00
N915   N     0.50000   0.61736   0.75000   0.00000  Uiso   1.00
N916   N     0.50000   0.38264   0.75000   0.00000  Uiso   1.00
O917   O     0.43988   0.53958   0.75000   0.00000  Uiso   1.00
O918   O     0.56012   0.46042   0.75001   0.00000  Uiso   1.00
O919   O     0.56012   0.53958   0.75001   0.00000  Uiso   1.00
O920   O     0.43988   0.46042   0.75000   0.00000  Uiso   1.00
O921   O     0.50000   0.53959   0.68573   0.00000  Uiso   1.00
O922   O     0.50000   0.46041   0.81427   0.00000  Uiso   1.00
O923   O     0.50000   0.53959   0.81427   0.00000  Uiso   1.00
O924   O     0.50000   0.46041   0.68573   0.00000  Uiso   1.00
C925   C     0.75402   0.50000   0.74996   0.00000  Uiso   1.00
C926   C     0.97871   0.54254   0.75001   0.00000  Uiso   1.00
C927   C     0.97871   0.45746   0.75004   0.00000  Uiso   1.00
C928   C     0.68796   0.54254   0.74999   0.00000  Uiso   1.00
C929   C     0.86750   0.51718   0.54758   0.00000  Uiso   1.00
C930   C     0.86753   0.48307   0.95269   0.00000  Uiso   1.00
C931   C     0.79917   0.51718   0.95242   0.00000  Uiso   1.00
C932   C     0.79913   0.48307   0.54731   0.00000  Uiso   1.00
C933   C     0.86787   0.51739   0.59385   0.00000  Uiso   1.00
C934   C     0.86792   0.48277   0.90643   0.00000  Uiso   1.00
C935   C     0.79879   0.51739   0.90615   0.00000  Uiso   1.00
C936   C     0.91264   0.50000   0.75004   0.00000  Uiso   1.00
C937   C     0.79874   0.48277   0.59357   0.00000  Uiso   1.00
C938   C     0.83331   0.50003   0.61690   0.00000  Uiso   1.00
C939   C     0.83335   0.50003   0.88310   0.00000  Uiso   1.00
C940   C     0.83332   0.50014   0.52430   0.00000  Uiso   1.00
C941   C     0.83334   0.50014   0.97570   0.00000  Uiso   1.00
C942   C     0.95726   0.50000   0.75004   0.00000  Uiso   1.00
C943   C     0.70941   0.50000   0.74996   0.00000  Uiso   1.00
C944   C     0.90544   0.53527   0.61805   0.00000  Uiso   1.00
C945   C     0.90552   0.46490   0.88254   0.00000  Uiso   1.00
C946   C     0.76123   0.53528   0.88195   0.00000  Uiso   1.00
C947   C     0.83331   0.50000   0.66513   0.00000  Uiso   1.00
C948   C     0.76115   0.46490   0.61746   0.00000  Uiso   1.00
C949   C     0.83336   0.50000   0.83487   0.00000  Uiso   1.00
C950   C     0.80662   0.35813   0.72370   0.00000  Uiso   1.00
C951   C     0.86004   0.64186   0.77632   0.00000  Uiso   1.00
C952   C     0.86005   0.35813   0.77630   0.00000  Uiso   1.00
C953   C     0.80663   0.64186   0.72368   0.00000  Uiso   1.00
C954   C     0.68796   0.45746   0.74996   0.00000  Uiso   1.00
Cu955  Cu    0.83333   0.54689   0.75000   0.00000  Uiso   1.00
Cu956  Cu    0.83333   0.45311   0.75000   0.00000  Uiso   1.00
H957   H     0.78519   0.37681   0.70265   0.00000  Uiso   1.00
H958   H     0.96269   0.57581   0.75001   0.00000  Uiso   1.00
H959   H     0.96269   0.42419   0.75009   0.00000  Uiso   1.00
H960   H     0.70397   0.57581   0.74999   0.00000  Uiso   1.00
H961   H     0.89728   0.56650   0.63807   0.00000  Uiso   1.00
H962   H     0.91774   0.50757   0.64026   0.00000  Uiso   1.00
H963   H     0.93028   0.54553   0.59478   0.00000  Uiso   1.00
H964   H     0.91774   0.49254   0.86028   0.00000  Uiso   1.00
H965   H     0.93040   0.45483   0.90600   0.00000  Uiso   1.00
H966   H     0.89741   0.43356   0.86262   0.00000  Uiso   1.00
H967   H     0.76939   0.56650   0.86193   0.00000  Uiso   1.00
H968   H     0.88142   0.62317   0.79742   0.00000  Uiso   1.00
H969   H     0.74893   0.50757   0.85974   0.00000  Uiso   1.00
H970   H     0.73639   0.54554   0.90522   0.00000  Uiso   1.00
H971   H     0.74893   0.49254   0.63972   0.00000  Uiso   1.00
H972   H     0.73626   0.45483   0.59400   0.00000  Uiso   1.00
H973   H     0.76926   0.43357   0.63738   0.00000  Uiso   1.00
H974   H     0.88147   0.37681   0.79735   0.00000  Uiso   1.00
H975   H     0.78524   0.62317   0.70258   0.00000  Uiso   1.00
H976   H     0.89372   0.53073   0.52954   0.00000  Uiso   1.00
H977   H     0.89375   0.46956   0.97095   0.00000  Uiso   1.00
H978   H     0.77295   0.53073   0.97046   0.00000  Uiso   1.00
H979   H     0.77291   0.46956   0.52905   0.00000  Uiso   1.00
H980   H     0.70397   0.42419   0.74991   0.00000  Uiso   1.00
N981   N     0.83333   0.61736   0.75000   0.00000  Uiso   1.00
N982   N     0.83333   0.38264   0.75000   0.00000  Uiso   1.00
O983   O     0.77321   0.53958   0.75000   0.00000  Uiso   1.00
O984   O     0.89345   0.46042   0.75001   0.00000  Uiso   1.00
O985   O     0.89345   0.53958   0.75001   0.00000  Uiso   1.00
O986   O     0.77321   0.46042   0.75000   0.00000  Uiso   1.00
O987   O     0.83333   0.53959   0.68573   0.00000  Uiso   1.00
O988   O     0.83334   0.46041   0.81427   0.00000  Uiso   1.00
O989   O     0.83334   0.53959   0.81427   0.00000  Uiso   1.00
O990   O     0.83333   0.46041   0.68573   0.00000  Uiso   1.00
C991   C     0.08736   0.83333   0.74996   0.00000  Uiso   1.00
C992   C     0.31204   0.87588   0.75001   0.00000  Uiso   1.00
C993   C     0.31204   0.79079   0.75004   0.00000  Uiso   1.00
C994   C     0.02129   0.87588   0.74999   0.00000  Uiso   1.00
C995   C     0.20083   0.85051   0.54758   0.00000  Uiso   1.00
C996   C     0.20087   0.81640   0.95269   0.00000  Uiso   1.00
C997   C     0.13250   0.85051   0.95242   0.00000  Uiso   1.00
C998   C     0.13247   0.81641   0.54731   0.00000  Uiso   1.00
C999   C     0.20121   0.85072   0.59385   0.00000  Uiso   1.00
C1000  C     0.20126   0.81610   0.90643   0.00000  Uiso   1.00
C1001  C     0.13213   0.85072   0.90615   0.00000  Uiso   1.00
C1002  C     0.24598   0.83333   0.75004   0.00000  Uiso   1.00
C1003  C     0.13208   0.81611   0.59357   0.00000  Uiso   1.00
C1004  C     0.16665   0.83336   0.61690   0.00000  Uiso   1.00
C1005  C     0.16669   0.83336   0.88310   0.00000  Uiso   1.00
C1006  C     0.16666   0.83347   0.52430   0.00000  Uiso   1.00
C1007  C     0.16668   0.83347   0.97570   0.00000  Uiso   1.00
C1008  C     0.29059   0.83333   0.75004   0.00000  Uiso   1.00
C1009  C     0.04274   0.83333   0.74996   0.00000  Uiso   1.00
C1010  C     0.23877   0.86861   0.61805   0.00000  Uiso   1.00
C1011  C     0.23885   0.79823   0.88254   0.00000  Uiso   1.00
C1012  C     0.09456   0.86861   0.88195   0.00000  Uiso   1.00
C1013  C     0.16664   0.83334   0.66513   0.00000  Uiso   1.00
C1014  C     0.09448   0.79824   0.61746   0.00000  Uiso   1.00
C1015  C     0.16669   0.83334   0.83487   0.00000  Uiso   1.00
C1016  C     0.13995   0.69147   0.72370   0.00000  Uiso   1.00
C1017  C     0.19337   0.97520   0.77632   0.00000  Uiso   1.00
C1018  C     0.19338   0.69147   0.77630   0.00000  Uiso   1.00
C1019  C     0.13996   0.97520   0.72368   0.00000  Uiso   1.00
C1020  C     0.02129   0.79079   0.74996   0.00000  Uiso   1.00
Cu1021 Cu    0.16667   0.88022   0.75000   0.00000  Uiso   1.00
Cu1022 Cu    0.16667   0.78645   0.75000   0.00000  Uiso   1.00
H1023  H     0.11853   0.71014   0.70265   0.00000  Uiso   1.00
H1024  H     0.29603   0.90914   0.75001   0.00000  Uiso   1.00
H1025  H     0.29603   0.75753   0.75009   0.00000  Uiso   1.00
H1026  H     0.03731   0.90914   0.74999   0.00000  Uiso   1.00
H1027  H     0.23061   0.89983   0.63807   0.00000  Uiso   1.00
H1028  H     0.25107   0.84090   0.64026   0.00000  Uiso   1.00
H1029  H     0.26362   0.87886   0.59478   0.00000  Uiso   1.00
H1030  H     0.25107   0.82587   0.86028   0.00000  Uiso   1.00
H1031  H     0.26373   0.78816   0.90600   0.00000  Uiso   1.00
H1032  H     0.23074   0.76690   0.86262   0.00000  Uiso   1.00
H1033  H     0.10273   0.89983   0.86193   0.00000  Uiso   1.00
H1034  H     0.21476   0.95651   0.79742   0.00000  Uiso   1.00
H1035  H     0.08226   0.84090   0.85974   0.00000  Uiso   1.00
H1036  H     0.06972   0.87887   0.90522   0.00000  Uiso   1.00
H1037  H     0.08226   0.82587   0.63972   0.00000  Uiso   1.00
H1038  H     0.06960   0.78816   0.59400   0.00000  Uiso   1.00
H1039  H     0.10259   0.76690   0.63738   0.00000  Uiso   1.00
H1040  H     0.21481   0.71014   0.79735   0.00000  Uiso   1.00
H1041  H     0.11858   0.95651   0.70258   0.00000  Uiso   1.00
H1042  H     0.22705   0.86406   0.52954   0.00000  Uiso   1.00
H1043  H     0.22708   0.80289   0.97095   0.00000  Uiso   1.00
H1044  H     0.10628   0.86407   0.97046   0.00000  Uiso   1.00
H1045  H     0.10625   0.80290   0.52905   0.00000  Uiso   1.00
H1046  H     0.03731   0.75753   0.74991   0.00000  Uiso   1.00
N1047  N     0.16667   0.95069   0.75000   0.00000  Uiso   1.00
N1048  N     0.16667   0.71598   0.75000   0.00000  Uiso   1.00
O1049  O     0.10655   0.87291   0.75000   0.00000  Uiso   1.00
O1050  O     0.22679   0.79375   0.75001   0.00000  Uiso   1.00
O1051  O     0.22679   0.87291   0.75001   0.00000  Uiso   1.00
O1052  O     0.10655   0.79375   0.75000   0.00000  Uiso   1.00
O1053  O     0.16666   0.87293   0.68573   0.00000  Uiso   1.00
O1054  O     0.16667   0.79374   0.81427   0.00000  Uiso   1.00
O1055  O     0.16667   0.87293   0.81427   0.00000  Uiso   1.00
O1056  O     0.16666   0.79374   0.68573   0.00000  Uiso   1.00
C1057  C     0.42069   0.83333   0.74996   0.00000  Uiso   1.00
C1058  C     0.64538   0.87588   0.75001   0.00000  Uiso   1.00
C1059  C     0.64538   0.79079   0.75004   0.00000  Uiso   1.00
C1060  C     0.35462   0.87588   0.74999   0.00000  Uiso   1.00
C1061  C     0.53416   0.85051   0.54758   0.00000  Uiso   1.00
C1062  C     0.53420   0.81640   0.95269   0.00000  Uiso   1.00
C1063  C     0.46584   0.85051   0.95242   0.00000  Uiso   1.00
C1064  C     0.46580   0.81641   0.54731   0.00000  Uiso   1.00
C1065  C     0.53454   0.85072   0.59385   0.00000  Uiso   1.00
C1066  C     0.53459   0.81610   0.90643   0.00000  Uiso   1.00
C1067  C     0.46546   0.85072   0.90615   0.00000  Uiso   1.00
C1068  C     0.57931   0.83333   0.75004   0.00000  Uiso   1.00
C1069  C     0.46541   0.81611   0.59357   0.00000  Uiso   1.00
C1070  C     0.49998   0.83336   0.61690   0.00000  Uiso   1.00
C1071  C     0.50002   0.83336   0.88310   0.00000  Uiso   1.00
C1072  C     0.49999   0.83347   0.52430   0.00000  Uiso   1.00
C1073  C     0.50001   0.83347   0.97570   0.00000  Uiso   1.00
C1074  C     0.62392   0.83333   0.75004   0.00000  Uiso   1.00
C1075  C     0.37608   0.83333   0.74996   0.00000  Uiso   1.00
C1076  C     0.57211   0.86861   0.61805   0.00000  Uiso   1.00
C1077  C     0.57218   0.79823   0.88254   0.00000  Uiso   1.00
C1078  C     0.42789   0.86861   0.88195   0.00000  Uiso   1.00
C1079  C     0.49997   0.83334   0.66513   0.00000  Uiso   1.00
C1080  C     0.42781   0.79824   0.61746   0.00000  Uiso   1.00
C1081  C     0.50003   0.83334   0.83487   0.00000  Uiso   1.00
C1082  C     0.47328   0.69147   0.72370   0.00000  Uiso   1.00
C1083  C     0.52670   0.97520   0.77632   0.00000  Uiso   1.00
C1084  C     0.52672   0.69147   0.77630   0.00000  Uiso   1.00
C1085  C     0.47330   0.97520   0.72368   0.00000  Uiso   1.00
C1086  C     0.35462   0.79079   0.74996   0.00000  Uiso   1.00
Cu1087 Cu    0.50000   0.88022   0.75000   0.00000  Uiso   1.00
Cu1088 Cu    0.50000   0.78645   0.75000   0.00000  Uiso   1.00
H1089  H     0.45186   0.71014   0.70265   0.00000  Uiso   1.00
H1090  H     0.62936   0.90914   0.75001   0.00000  Uiso   1.00
H1091  H     0.62936   0.75753   0.75009   0.00000  Uiso   1.00
H1092  H     0.37064   0.90914   0.74999   0.00000  Uiso   1.00
H1093  H     0.56394   0.89983   0.63807   0.00000  Uiso   1.00
H1094  H     0.58441   0.84090   0.64026   0.00000  Uiso   1.00
H1095  H     0.59695   0.87886   0.59478   0.00000  Uiso   1.00
H1096  H     0.58440   0.82587   0.86028   0.00000  Uiso   1.00
H1097  H     0.59707   0.78816   0.90600   0.00000  Uiso   1.00
H1098  H     0.56407   0.76690   0.86262   0.00000  Uiso   1.00
H1099  H     0.43606   0.89983   0.86193   0.00000  Uiso   1.00
H1100  H     0.54809   0.95651   0.79742   0.00000  Uiso   1.00
H1101  H     0.41559   0.84090   0.85974   0.00000  Uiso   1.00
H1102  H     0.40305   0.87887   0.90522   0.00000  Uiso   1.00
H1103  H     0.41560   0.82587   0.63972   0.00000  Uiso   1.00
H1104  H     0.40293   0.78816   0.59400   0.00000  Uiso   1.00
H1105  H     0.43592   0.76690   0.63738   0.00000  Uiso   1.00
H1106  H     0.54814   0.71014   0.79735   0.00000  Uiso   1.00
H1107  H     0.45191   0.95651   0.70258   0.00000  Uiso   1.00
H1108  H     0.56039   0.86406   0.52954   0.00000  Uiso   1.00
H1109  H     0.56042   0.80289   0.97095   0.00000  Uiso   1.00
H1110  H     0.43961   0.86407   0.97046   0.00000  Uiso   1.00
H1111  H     0.43958   0.80290   0.52905   0.00000  Uiso   1.00
H1112  H     0.37064   0.75753   0.74991   0.00000  Uiso   1.00
N1113  N     0.50000   0.95069   0.75000   0.00000  Uiso   1.00
N1114  N     0.50000   0.71598   0.75000   0.00000  Uiso   1.00
O1115  O     0.43988   0.87291   0.75000   0.00000  Uiso   1.00
O1116  O     0.56012   0.79375   0.75001   0.00000  Uiso   1.00
O1117  O     0.56012   0.87291   0.75001   0.00000  Uiso   1.00
O1118  O     0.43988   0.79375   0.75000   0.00000  Uiso   1.00
O1119  O     0.50000   0.87293   0.68573   0.00000  Uiso   1.00
O1120  O     0.50000   0.79374   0.81427   0.00000  Uiso   1.00
O1121  O     0.50000   0.87293   0.81427   0.00000  Uiso   1.00
O1122  O     0.50000   0.79374   0.68573   0.00000  Uiso   1.00
C1123  C     0.75402   0.83333   0.74996   0.00000  Uiso   1.00
C1124  C     0.97871   0.87588   0.75001   0.00000  Uiso   1.00
C1125  C     0.97871   0.79079   0.75004   0.00000  Uiso   1.00
C1126  C     0.68796   0.87588   0.74999   0.00000  Uiso   1.00
C1127  C     0.86750   0.85051   0.54758   0.00000  Uiso   1.00
C1128  C     0.86753   0.81640   0.95269   0.00000  Uiso   1.00
C1129  C     0.79917   0.85051   0.95242   0.00000  Uiso   1.00
C1130  C     0.79913   0.81641   0.54731   0.00000  Uiso   1.00
C1131  C     0.86787   0.85072   0.59385   0.00000  Uiso   1.00
C1132  C     0.86792   0.81610   0.90643   0.00000  Uiso   1.00
C1133  C     0.79879   0.85072   0.90615   0.00000  Uiso   1.00
C1134  C     0.91264   0.83333   0.75004   0.00000  Uiso   1.00
C1135  C     0.79874   0.81611   0.59357   0.00000  Uiso   1.00
C1136  C     0.83331   0.83336   0.61690   0.00000  Uiso   1.00
C1137  C     0.83335   0.83336   0.88310   0.00000  Uiso   1.00
C1138  C     0.83332   0.83347   0.52430   0.00000  Uiso   1.00
C1139  C     0.83334   0.83347   0.97570   0.00000  Uiso   1.00
C1140  C     0.95726   0.83333   0.75004   0.00000  Uiso   1.00
C1141  C     0.70941   0.83333   0.74996   0.00000  Uiso   1.00
C1142  C     0.90544   0.86861   0.61805   0.00000  Uiso   1.00
C1143  C     0.90552   0.79823   0.88254   0.00000  Uiso   1.00
C1144  C     0.76123   0.86861   0.88195   0.00000  Uiso   1.00
C1145  C     0.83331   0.83334   0.66513   0.00000  Uiso   1.00
C1146  C     0.76115   0.79824   0.61746   0.00000  Uiso   1.00
C1147  C     0.83336   0.83334   0.83487   0.00000  Uiso   1.00
C1148  C     0.80662   0.69147   0.72370   0.00000  Uiso   1.00
C1149  C     0.86004   0.97520   0.77632   0.00000  Uiso   1.00
C1150  C     0.86005   0.69147   0.77630   0.00000  Uiso   1.00
C1151  C     0.80663   0.97520   0.72368   0.00000  Uiso   1.00
C1152  C     0.68796   0.79079   0.74996   0.00000  Uiso   1.00
Cu1153 Cu    0.83333   0.88022   0.75000   0.00000  Uiso   1.00
Cu1154 Cu    0.83333   0.78645   0.75000   0.00000  Uiso   1.00
H1155  H     0.78519   0.71014   0.70265   0.00000  Uiso   1.00
H1156  H     0.96269   0.90914   0.75001   0.00000  Uiso   1.00
H1157  H     0.96269   0.75753   0.75009   0.00000  Uiso   1.00
H1158  H     0.70397   0.90914   0.74999   0.00000  Uiso   1.00
H1159  H     0.89728   0.89983   0.63807   0.00000  Uiso   1.00
H1160  H     0.91774   0.84090   0.64026   0.00000  Uiso   1.00
H1161  H     0.93028   0.87886   0.59478   0.00000  Uiso   1.00
H1162  H     0.91774   0.82587   0.86028   0.00000  Uiso   1.00
H1163  H     0.93040   0.78816   0.90600   0.00000  Uiso   1.00
H1164  H     0.89741   0.76690   0.86262   0.00000  Uiso   1.00
H1165  H     0.76939   0.89983   0.86193   0.00000  Uiso   1.00
H1166  H     0.88142   0.95651   0.79742   0.00000  Uiso   1.00
H1167  H     0.74893   0.84090   0.85974   0.00000  Uiso   1.00
H1168  H     0.73639   0.87887   0.90522   0.00000  Uiso   1.00
H1169  H     0.74893   0.82587   0.63972   0.00000  Uiso   1.00
H1170  H     0.73626   0.78816   0.59400   0.00000  Uiso   1.00
H1171  H     0.76926   0.76690   0.63738   0.00000  Uiso   1.00
H1172  H     0.88147   0.71014   0.79735   0.00000  Uiso   1.00
H1173  H     0.78524   0.95651   0.70258   0.00000  Uiso   1.00
H1174  H     0.89372   0.86406   0.52954   0.00000  Uiso   1.00
H1175  H     0.89375   0.80289   0.97095   0.00000  Uiso   1.00
H1176  H     0.77295   0.86407   0.97046   0.00000  Uiso   1.00
H1177  H     0.77291   0.80290   0.52905   0.00000  Uiso   1.00
H1178  H     0.70397   0.75753   0.74991   0.00000  Uiso   1.00
N1179  N     0.83333   0.95069   0.75000   0.00000  Uiso   1.00
N1180  N     0.83333   0.71598   0.75000   0.00000  Uiso   1.00
O1181  O     0.77321   0.87291   0.75000   0.00000  Uiso   1.00
O1182  O     0.89345   0.79375   0.75001   0.00000  Uiso   1.00
O1183  O     0.89345   0.87291   0.75001   0.00000  Uiso   1.00
O1184  O     0.77321   0.79375   0.75000   0.00000  Uiso   1.00
O1185  O     0.83333   0.87293   0.68573   0.00000  Uiso   1.00
O1186  O     0.83334   0.79374   0.81427   0.00000  Uiso   1.00
O1187  O     0.83334   0.87293   0.81427   0.00000  Uiso   1.00
O1188  O     0.83333   0.79374   0.68573   0.00000  Uiso   1.00
loop_
_geom_bond_atom_site_label_1
_geom_bond_atom_site_label_2
_geom_bond_distance
_geom_bond_site_symmetry_2
_ccdc_geom_bond_type
C1     O62     1.291   .     A
C1     O59     1.291   .     A
C1     C19     1.449   .     S
C2     C18     1.401   .     A
C2     H34     1.083   .     S
C2     C70     1.383   .     S
C3     H35     1.083   .     S
C3     C18     1.401   .     A
C3     C96     1.383   .     S
C4     H36     1.083   .     S
C4     C19     1.401   .     A
C4     C134    1.383   1_455 S
C5     H52     1.084   .     S
C5     C9      1.396   .     A
C5     C16     1.399   .     A
C6     C10     1.396   .     A
C6     C17     1.399   .     A
C6     H53     1.084   .     S
C7     C11     1.396   .     A
C7     H54     1.084   .     S
C7     C17     1.399   .     A
C8     C13     1.396   .     A
C8     C16     1.399   .     A
C8     H55     1.084   .     S
C9     C14     1.412   .     A
C9     C20     1.509   .     S
C10    C15     1.412   .     A
C10    C21     1.509   .     S
C11    C22     1.509   .     S
C11    C15     1.412   .     A
C12    O61     1.291   .     A
C12    C18     1.449   .     S
C12    O60     1.291   .     A
C13    C14     1.412   .     A
C13    C24     1.509   .     S
C14    C23     1.455   .     S
C15    C25     1.455   .     S
C16    C611    1.466   1_554 S
C17    C610    1.466   .     S
C19    C30     1.401   .     A
C20    H37     1.110   .     S
C20    H38     1.111   .     S
C20    H39     1.111   .     S
C21    H40     1.111   .     S
C21    H41     1.111   .     S
C21    H42     1.109   .     S
C22    H43     1.110   .     S
C22    H46     1.111   .     S
C22    H45     1.111   .     S
C23    O63     1.290   .     A
C23    O66     1.291   .     A
C24    H47     1.111   .     S
C24    H48     1.111   .     S
C24    H49     1.109   .     S
C25    O65     1.290   .     A
C25    O64     1.291   .     A
C26    H33     1.081   .     S
C26    N58     1.367   .     A
C26    C425    1.417   1_545 S
C27    N57     1.367   .     A
C27    H44     1.082   .     S
C27    C226    1.417   .     S
C28    N58     1.367   .     A
C28    H50     1.081   .     S
C28    C423    1.417   1_545 S
C29    N57     1.367   .     A
C29    H51     1.082   .     S
C29    C224    1.417   .     S
C30    H56     1.083   .     S
C30    C135    1.383   1_455 S
Cu31   O61     1.964   .     S
Cu31   N57     2.013   .     S
Cu31   O59     1.964   .     S
Cu31   O63     1.951   .     S
Cu31   O65     1.951   .     S
Cu31   Cu32    2.679   .     S
Cu32   N58     2.013   .     S
Cu32   O62     1.964   .     S
Cu32   O60     1.964   .     S
Cu32   O64     1.951   .     S
Cu32   O66     1.951   .     S
C67    O128    1.291   .     A
C67    O125    1.291   .     A
C67    C85     1.449   .     S
C68    C84     1.401   .     A
C68    H100    1.083   .     S
C68    C136    1.383   .     S
C69    H101    1.083   .     S
C69    C84     1.401   .     A
C69    C162    1.383   .     S
C70    H102    1.083   .     S
C70    C85     1.401   .     A
C71    H118    1.084   .     S
C71    C75     1.396   .     A
C71    C82     1.399   .     A
C72    C76     1.396   .     A
C72    C83     1.399   .     A
C72    H119    1.084   .     S
C73    C77     1.396   .     A
C73    H120    1.084   .     S
C73    C83     1.399   .     A
C74    C79     1.396   .     A
C74    C82     1.399   .     A
C74    H121    1.084   .     S
C75    C80     1.412   .     A
C75    C86     1.509   .     S
C76    C81     1.412   .     A
C76    C87     1.509   .     S
C77    C88     1.509   .     S
C77    C81     1.412   .     A
C78    O127    1.291   .     A
C78    C84     1.449   .     S
C78    O126    1.291   .     A
C79    C80     1.412   .     A
C79    C90     1.509   .     S
C80    C89     1.455   .     S
C81    C91     1.455   .     S
C82    C677    1.466   1_554 S
C83    C676    1.466   .     S
C85    C96     1.401   .     A
C86    H103    1.110   .     S
C86    H104    1.111   .     S
C86    H105    1.111   .     S
C87    H106    1.111   .     S
C87    H107    1.111   .     S
C87    H108    1.109   .     S
C88    H109    1.110   .     S
C88    H112    1.111   .     S
C88    H111    1.111   .     S
C89    O129    1.290   .     A
C89    O132    1.291   .     A
C90    H113    1.111   .     S
C90    H114    1.111   .     S
C90    H115    1.109   .     S
C91    O131    1.290   .     A
C91    O130    1.291   .     A
C92    H99     1.081   .     S
C92    N124    1.367   .     A
C92    C491    1.417   1_545 S
C93    N123    1.367   .     A
C93    H110    1.082   .     S
C93    C292    1.417   .     S
C94    N124    1.367   .     A
C94    H116    1.081   .     S
C94    C489    1.417   1_545 S
C95    N123    1.367   .     A
C95    H117    1.082   .     S
C95    C290    1.417   .     S
C96    H122    1.083   .     S
Cu97   O127    1.964   .     S
Cu97   N123    2.013   .     S
Cu97   O125    1.964   .     S
Cu97   O129    1.951   .     S
Cu97   O131    1.951   .     S
Cu97   Cu98    2.679   .     S
Cu98   N124    2.013   .     S
Cu98   O128    1.964   .     S
Cu98   O126    1.964   .     S
Cu98   O130    1.951   .     S
Cu98   O132    1.951   .     S
C133   O194    1.291   .     A
C133   O191    1.291   .     A
C133   C151    1.449   .     S
C134   C150    1.401   .     A
C134   H166    1.083   .     S
C134   C4      1.383   1_655 S
C135   H167    1.083   .     S
C135   C150    1.401   .     A
C135   C30     1.383   1_655 S
C136   H168    1.083   .     S
C136   C151    1.401   .     A
C137   H184    1.084   .     S
C137   C141    1.396   .     A
C137   C148    1.399   .     A
C138   C142    1.396   .     A
C138   C149    1.399   .     A
C138   H185    1.084   .     S
C139   C143    1.396   .     A
C139   H186    1.084   .     S
C139   C149    1.399   .     A
C140   C145    1.396   .     A
C140   C148    1.399   .     A
C140   H187    1.084   .     S
C141   C146    1.412   .     A
C141   C152    1.509   .     S
C142   C147    1.412   .     A
C142   C153    1.509   .     S
C143   C154    1.509   .     S
C143   C147    1.412   .     A
C144   O193    1.291   .     A
C144   C150    1.449   .     S
C144   O192    1.291   .     A
C145   C146    1.412   .     A
C145   C156    1.509   .     S
C146   C155    1.455   .     S
C147   C157    1.455   .     S
C148   C743    1.466   1_554 S
C149   C742    1.466   .     S
C151   C162    1.401   .     A
C152   H169    1.110   .     S
C152   H170    1.111   .     S
C152   H171    1.111   .     S
C153   H172    1.111   .     S
C153   H173    1.111   .     S
C153   H174    1.109   .     S
C154   H175    1.110   .     S
C154   H178    1.111   .     S
C154   H177    1.111   .     S
C155   O195    1.290   .     A
C155   O198    1.291   .     A
C156   H179    1.111   .     S
C156   H180    1.111   .     S
C156   H181    1.109   .     S
C157   O197    1.290   .     A
C157   O196    1.291   .     A
C158   H165    1.081   .     S
C158   N190    1.367   .     A
C158   C557    1.417   1_545 S
C159   N189    1.367   .     A
C159   H176    1.082   .     S
C159   C358    1.417   .     S
C160   N190    1.367   .     A
C160   H182    1.081   .     S
C160   C555    1.417   1_545 S
C161   N189    1.367   .     A
C161   H183    1.082   .     S
C161   C356    1.417   .     S
C162   H188    1.083   .     S
Cu163  O193    1.964   .     S
Cu163  N189    2.013   .     S
Cu163  O191    1.964   .     S
Cu163  O195    1.951   .     S
Cu163  O197    1.951   .     S
Cu163  Cu164   2.679   .     S
Cu164  N190    2.013   .     S
Cu164  O194    1.964   .     S
Cu164  O192    1.964   .     S
Cu164  O196    1.951   .     S
Cu164  O198    1.951   .     S
C199   O260    1.291   .     A
C199   O257    1.291   .     A
C199   C217    1.449   .     S
C200   C216    1.401   .     A
C200   H232    1.083   .     S
C200   C268    1.383   .     S
C201   H233    1.083   .     S
C201   C216    1.401   .     A
C201   C294    1.383   .     S
C202   H234    1.083   .     S
C202   C217    1.401   .     A
C202   C332    1.383   1_455 S
C203   H250    1.084   .     S
C203   C207    1.396   .     A
C203   C214    1.399   .     A
C204   C208    1.396   .     A
C204   C215    1.399   .     A
C204   H251    1.084   .     S
C205   C209    1.396   .     A
C205   H252    1.084   .     S
C205   C215    1.399   .     A
C206   C211    1.396   .     A
C206   C214    1.399   .     A
C206   H253    1.084   .     S
C207   C212    1.412   .     A
C207   C218    1.509   .     S
C208   C213    1.412   .     A
C208   C219    1.509   .     S
C209   C220    1.509   .     S
C209   C213    1.412   .     A
C210   O259    1.291   .     A
C210   C216    1.449   .     S
C210   O258    1.291   .     A
C211   C212    1.412   .     A
C211   C222    1.509   .     S
C212   C221    1.455   .     S
C213   C223    1.455   .     S
C214   C809    1.466   1_554 S
C215   C808    1.466   .     S
C217   C228    1.401   .     A
C218   H235    1.110   .     S
C218   H236    1.111   .     S
C218   H237    1.111   .     S
C219   H238    1.111   .     S
C219   H239    1.111   .     S
C219   H240    1.109   .     S
C220   H241    1.110   .     S
C220   H244    1.111   .     S
C220   H243    1.111   .     S
C221   O261    1.290   .     A
C221   O264    1.291   .     A
C222   H245    1.111   .     S
C222   H246    1.111   .     S
C222   H247    1.109   .     S
C223   O263    1.290   .     A
C223   O262    1.291   .     A
C224   H231    1.081   .     S
C224   N256    1.367   .     A
C225   N255    1.367   .     A
C225   H242    1.082   .     S
C225   C424    1.417   .     S
C226   N256    1.367   .     A
C226   H248    1.081   .     S
C227   N255    1.367   .     A
C227   H249    1.082   .     S
C227   C422    1.417   .     S
C228   H254    1.083   .     S
C228   C333    1.383   1_455 S
Cu229  O259    1.964   .     S
Cu229  N255    2.013   .     S
Cu229  O257    1.964   .     S
Cu229  O261    1.951   .     S
Cu229  O263    1.951   .     S
Cu229  Cu230   2.679   .     S
Cu230  N256    2.013   .     S
Cu230  O260    1.964   .     S
Cu230  O258    1.964   .     S
Cu230  O262    1.951   .     S
Cu230  O264    1.951   .     S
C265   O326    1.291   .     A
C265   O323    1.291   .     A
C265   C283    1.449   .     S
C266   C282    1.401   .     A
C266   H298    1.083   .     S
C266   C334    1.383   .     S
C267   H299    1.083   .     S
C267   C282    1.401   .     A
C267   C360    1.383   .     S
C268   H300    1.083   .     S
C268   C283    1.401   .     A
C269   H316    1.084   .     S
C269   C273    1.396   .     A
C269   C280    1.399   .     A
C270   C274    1.396   .     A
C270   C281    1.399   .     A
C270   H317    1.084   .     S
C271   C275    1.396   .     A
C271   H318    1.084   .     S
C271   C281    1.399   .     A
C272   C277    1.396   .     A
C272   C280    1.399   .     A
C272   H319    1.084   .     S
C273   C278    1.412   .     A
C273   C284    1.509   .     S
C274   C279    1.412   .     A
C274   C285    1.509   .     S
C275   C286    1.509   .     S
C275   C279    1.412   .     A
C276   O325    1.291   .     A
C276   C282    1.449   .     S
C276   O324    1.291   .     A
C277   C278    1.412   .     A
C277   C288    1.509   .     S
C278   C287    1.455   .     S
C279   C289    1.455   .     S
C280   C875    1.466   1_554 S
C281   C874    1.466   .     S
C283   C294    1.401   .     A
C284   H301    1.110   .     S
C284   H302    1.111   .     S
C284   H303    1.111   .     S
C285   H304    1.111   .     S
C285   H305    1.111   .     S
C285   H306    1.109   .     S
C286   H307    1.110   .     S
C286   H310    1.111   .     S
C286   H309    1.111   .     S
C287   O327    1.290   .     A
C287   O330    1.291   .     A
C288   H311    1.111   .     S
C288   H312    1.111   .     S
C288   H313    1.109   .     S
C289   O329    1.290   .     A
C289   O328    1.291   .     A
C290   H297    1.081   .     S
C290   N322    1.367   .     A
C291   N321    1.367   .     A
C291   H308    1.082   .     S
C291   C490    1.417   .     S
C292   N322    1.367   .     A
C292   H314    1.081   .     S
C293   N321    1.367   .     A
C293   H315    1.082   .     S
C293   C488    1.417   .     S
C294   H320    1.083   .     S
Cu295  O325    1.964   .     S
Cu295  N321    2.013   .     S
Cu295  O323    1.964   .     S
Cu295  O327    1.951   .     S
Cu295  O329    1.951   .     S
Cu295  Cu296   2.679   .     S
Cu296  N322    2.013   .     S
Cu296  O326    1.964   .     S
Cu296  O324    1.964   .     S
Cu296  O328    1.951   .     S
Cu296  O330    1.951   .     S
C331   O392    1.291   .     A
C331   O389    1.291   .     A
C331   C349    1.449   .     S
C332   C348    1.401   .     A
C332   H364    1.083   .     S
C332   C202    1.383   1_655 S
C333   H365    1.083   .     S
C333   C348    1.401   .     A
C333   C228    1.383   1_655 S
C334   H366    1.083   .     S
C334   C349    1.401   .     A
C335   H382    1.084   .     S
C335   C339    1.396   .     A
C335   C346    1.399   .     A
C336   C340    1.396   .     A
C336   C347    1.399   .     A
C336   H383    1.084   .     S
C337   C341    1.396   .     A
C337   H384    1.084   .     S
C337   C347    1.399   .     A
C338   C343    1.396   .     A
C338   C346    1.399   .     A
C338   H385    1.084   .     S
C339   C344    1.412   .     A
C339   C350    1.509   .     S
C340   C345    1.412   .     A
C340   C351    1.509   .     S
C341   C352    1.509   .     S
C341   C345    1.412   .     A
C342   O391    1.291   .     A
C342   C348    1.449   .     S
C342   O390    1.291   .     A
C343   C344    1.412   .     A
C343   C354    1.509   .     S
C344   C353    1.455   .     S
C345   C355    1.455   .     S
C346   C941    1.466   1_554 S
C347   C940    1.466   .     S
C349   C360    1.401   .     A
C350   H367    1.110   .     S
C350   H368    1.111   .     S
C350   H369    1.111   .     S
C351   H370    1.111   .     S
C351   H371    1.111   .     S
C351   H372    1.109   .     S
C352   H373    1.110   .     S
C352   H376    1.111   .     S
C352   H375    1.111   .     S
C353   O393    1.290   .     A
C353   O396    1.291   .     A
C354   H377    1.111   .     S
C354   H378    1.111   .     S
C354   H379    1.109   .     S
C355   O395    1.290   .     A
C355   O394    1.291   .     A
C356   H363    1.081   .     S
C356   N388    1.367   .     A
C357   N387    1.367   .     A
C357   H374    1.082   .     S
C357   C556    1.417   .     S
C358   N388    1.367   .     A
C358   H380    1.081   .     S
C359   N387    1.367   .     A
C359   H381    1.082   .     S
C359   C554    1.417   .     S
C360   H386    1.083   .     S
Cu361  O391    1.964   .     S
Cu361  N387    2.013   .     S
Cu361  O389    1.964   .     S
Cu361  O393    1.951   .     S
Cu361  O395    1.951   .     S
Cu361  Cu362   2.679   .     S
Cu362  N388    2.013   .     S
Cu362  O392    1.964   .     S
Cu362  O390    1.964   .     S
Cu362  O394    1.951   .     S
Cu362  O396    1.951   .     S
C397   O458    1.291   .     A
C397   O455    1.291   .     A
C397   C415    1.449   .     S
C398   C414    1.401   .     A
C398   H430    1.083   .     S
C398   C466    1.383   .     S
C399   H431    1.083   .     S
C399   C414    1.401   .     A
C399   C492    1.383   .     S
C400   H432    1.083   .     S
C400   C415    1.401   .     A
C400   C530    1.383   1_455 S
C401   H448    1.084   .     S
C401   C405    1.396   .     A
C401   C412    1.399   .     A
C402   C406    1.396   .     A
C402   C413    1.399   .     A
C402   H449    1.084   .     S
C403   C407    1.396   .     A
C403   H450    1.084   .     S
C403   C413    1.399   .     A
C404   C409    1.396   .     A
C404   C412    1.399   .     A
C404   H451    1.084   .     S
C405   C410    1.412   .     A
C405   C416    1.509   .     S
C406   C411    1.412   .     A
C406   C417    1.509   .     S
C407   C418    1.509   .     S
C407   C411    1.412   .     A
C408   O457    1.291   .     A
C408   C414    1.449   .     S
C408   O456    1.291   .     A
C409   C410    1.412   .     A
C409   C420    1.509   .     S
C410   C419    1.455   .     S
C411   C421    1.455   .     S
C412   C1007   1.466   1_554 S
C413   C1006   1.466   .     S
C415   C426    1.401   .     A
C416   H433    1.110   .     S
C416   H434    1.111   .     S
C416   H435    1.111   .     S
C417   H436    1.111   .     S
C417   H437    1.111   .     S
C417   H438    1.109   .     S
C418   H439    1.110   .     S
C418   H442    1.111   .     S
C418   H441    1.111   .     S
C419   O459    1.290   .     A
C419   O462    1.291   .     A
C420   H443    1.111   .     S
C420   H444    1.111   .     S
C420   H445    1.109   .     S
C421   O461    1.290   .     A
C421   O460    1.291   .     A
C422   H429    1.081   .     S
C422   N454    1.367   .     A
C423   N453    1.367   .     A
C423   H440    1.082   .     S
C423   C28     1.417   1_565 S
C424   N454    1.367   .     A
C424   H446    1.081   .     S
C425   N453    1.367   .     A
C425   H447    1.082   .     S
C425   C26     1.417   1_565 S
C426   H452    1.083   .     S
C426   C531    1.383   1_455 S
Cu427  O457    1.964   .     S
Cu427  N453    2.013   .     S
Cu427  O455    1.964   .     S
Cu427  O459    1.951   .     S
Cu427  O461    1.951   .     S
Cu427  Cu428   2.679   .     S
Cu428  N454    2.013   .     S
Cu428  O458    1.964   .     S
Cu428  O456    1.964   .     S
Cu428  O460    1.951   .     S
Cu428  O462    1.951   .     S
C463   O524    1.291   .     A
C463   O521    1.291   .     A
C463   C481    1.449   .     S
C464   C480    1.401   .     A
C464   H496    1.083   .     S
C464   C532    1.383   .     S
C465   H497    1.083   .     S
C465   C480    1.401   .     A
C465   C558    1.383   .     S
C466   H498    1.083   .     S
C466   C481    1.401   .     A
C467   H514    1.084   .     S
C467   C471    1.396   .     A
C467   C478    1.399   .     A
C468   C472    1.396   .     A
C468   C479    1.399   .     A
C468   H515    1.084   .     S
C469   C473    1.396   .     A
C469   H516    1.084   .     S
C469   C479    1.399   .     A
C470   C475    1.396   .     A
C470   C478    1.399   .     A
C470   H517    1.084   .     S
C471   C476    1.412   .     A
C471   C482    1.509   .     S
C472   C477    1.412   .     A
C472   C483    1.509   .     S
C473   C484    1.509   .     S
C473   C477    1.412   .     A
C474   O523    1.291   .     A
C474   C480    1.449   .     S
C474   O522    1.291   .     A
C475   C476    1.412   .     A
C475   C486    1.509   .     S
C476   C485    1.455   .     S
C477   C487    1.455   .     S
C478   C1073   1.466   1_554 S
C479   C1072   1.466   .     S
C481   C492    1.401   .     A
C482   H499    1.110   .     S
C482   H500    1.111   .     S
C482   H501    1.111   .     S
C483   H502    1.111   .     S
C483   H503    1.111   .     S
C483   H504    1.109   .     S
C484   H505    1.110   .     S
C484   H508    1.111   .     S
C484   H507    1.111   .     S
C485   O525    1.290   .     A
C485   O528    1.291   .     A
C486   H509    1.111   .     S
C486   H510    1.111   .     S
C486   H511    1.109   .     S
C487   O527    1.290   .     A
C487   O526    1.291   .     A
C488   H495    1.081   .     S
C488   N520    1.367   .     A
C489   N519    1.367   .     A
C489   H506    1.082   .     S
C489   C94     1.417   1_565 S
C490   N520    1.367   .     A
C490   H512    1.081   .     S
C491   N519    1.367   .     A
C491   H513    1.082   .     S
C491   C92     1.417   1_565 S
C492   H518    1.083   .     S
Cu493  O523    1.964   .     S
Cu493  N519    2.013   .     S
Cu493  O521    1.964   .     S
Cu493  O525    1.951   .     S
Cu493  O527    1.951   .     S
Cu493  Cu494   2.679   .     S
Cu494  N520    2.013   .     S
Cu494  O524    1.964   .     S
Cu494  O522    1.964   .     S
Cu494  O526    1.951   .     S
Cu494  O528    1.951   .     S
C529   O590    1.291   .     A
C529   O587    1.291   .     A
C529   C547    1.449   .     S
C530   C546    1.401   .     A
C530   H562    1.083   .     S
C530   C400    1.383   1_655 S
C531   H563    1.083   .     S
C531   C546    1.401   .     A
C531   C426    1.383   1_655 S
C532   H564    1.083   .     S
C532   C547    1.401   .     A
C533   H580    1.084   .     S
C533   C537    1.396   .     A
C533   C544    1.399   .     A
C534   C538    1.396   .     A
C534   C545    1.399   .     A
C534   H581    1.084   .     S
C535   C539    1.396   .     A
C535   H582    1.084   .     S
C535   C545    1.399   .     A
C536   C541    1.396   .     A
C536   C544    1.399   .     A
C536   H583    1.084   .     S
C537   C542    1.412   .     A
C537   C548    1.509   .     S
C538   C543    1.412   .     A
C538   C549    1.509   .     S
C539   C550    1.509   .     S
C539   C543    1.412   .     A
C540   O589    1.291   .     A
C540   C546    1.449   .     S
C540   O588    1.291   .     A
C541   C542    1.412   .     A
C541   C552    1.509   .     S
C542   C551    1.455   .     S
C543   C553    1.455   .     S
C544   C1139   1.466   1_554 S
C545   C1138   1.466   .     S
C547   C558    1.401   .     A
C548   H565    1.110   .     S
C548   H566    1.111   .     S
C548   H567    1.111   .     S
C549   H568    1.111   .     S
C549   H569    1.111   .     S
C549   H570    1.109   .     S
C550   H571    1.110   .     S
C550   H574    1.111   .     S
C550   H573    1.111   .     S
C551   O591    1.290   .     A
C551   O594    1.291   .     A
C552   H575    1.111   .     S
C552   H576    1.111   .     S
C552   H577    1.109   .     S
C553   O593    1.290   .     A
C553   O592    1.291   .     A
C554   H561    1.081   .     S
C554   N586    1.367   .     A
C555   N585    1.367   .     A
C555   H572    1.082   .     S
C555   C160    1.417   1_565 S
C556   N586    1.367   .     A
C556   H578    1.081   .     S
C557   N585    1.367   .     A
C557   H579    1.082   .     S
C557   C158    1.417   1_565 S
C558   H584    1.083   .     S
Cu559  O589    1.964   .     S
Cu559  N585    2.013   .     S
Cu559  O587    1.964   .     S
Cu559  O591    1.951   .     S
Cu559  O593    1.951   .     S
Cu559  Cu560   2.679   .     S
Cu560  N586    2.013   .     S
Cu560  O590    1.964   .     S
Cu560  O588    1.964   .     S
Cu560  O592    1.951   .     S
Cu560  O594    1.951   .     S
C595   O656    1.291   .     A
C595   O653    1.291   .     A
C595   C613    1.449   .     S
C596   C612    1.401   .     A
C596   H628    1.083   .     S
C596   C664    1.383   .     S
C597   H629    1.083   .     S
C597   C612    1.401   .     A
C597   C690    1.383   .     S
C598   H630    1.083   .     S
C598   C613    1.401   .     A
C598   C728    1.383   1_455 S
C599   H646    1.084   .     S
C599   C603    1.396   .     A
C599   C610    1.399   .     A
C600   C604    1.396   .     A
C600   C611    1.399   .     A
C600   H647    1.084   .     S
C601   C605    1.396   .     A
C601   H648    1.084   .     S
C601   C611    1.399   .     A
C602   C607    1.396   .     A
C602   C610    1.399   .     A
C602   H649    1.084   .     S
C603   C608    1.412   .     A
C603   C614    1.509   .     S
C604   C609    1.412   .     A
C604   C615    1.509   .     S
C605   C616    1.509   .     S
C605   C609    1.412   .     A
C606   O655    1.291   .     A
C606   C612    1.449   .     S
C606   O654    1.291   .     A
C607   C608    1.412   .     A
C607   C618    1.509   .     S
C608   C617    1.455   .     S
C609   C619    1.455   .     S
C611   C16     1.466   1_556 S
C613   C624    1.401   .     A
C614   H631    1.110   .     S
C614   H632    1.111   .     S
C614   H633    1.111   .     S
C615   H634    1.111   .     S
C615   H635    1.111   .     S
C615   H636    1.109   .     S
C616   H637    1.110   .     S
C616   H640    1.111   .     S
C616   H639    1.111   .     S
C617   O657    1.290   .     A
C617   O660    1.291   .     A
C618   H641    1.111   .     S
C618   H642    1.111   .     S
C618   H643    1.109   .     S
C619   O659    1.290   .     A
C619   O658    1.291   .     A
C620   H627    1.081   .     S
C620   N652    1.367   .     A
C620   C1019   1.417   1_545 S
C621   N651    1.367   .     A
C621   H638    1.082   .     S
C621   C820    1.417   .     S
C622   N652    1.367   .     A
C622   H644    1.081   .     S
C622   C1017   1.417   1_545 S
C623   N651    1.367   .     A
C623   H645    1.082   .     S
C623   C818    1.417   .     S
C624   H650    1.083   .     S
C624   C729    1.383   1_455 S
Cu625  O655    1.964   .     S
Cu625  N651    2.013   .     S
Cu625  O653    1.964   .     S
Cu625  O657    1.951   .     S
Cu625  O659    1.951   .     S
Cu625  Cu626   2.679   .     S
Cu626  N652    2.013   .     S
Cu626  O656    1.964   .     S
Cu626  O654    1.964   .     S
Cu626  O658    1.951   .     S
Cu626  O660    1.951   .     S
C661   O722    1.291   .     A
C661   O719    1.291   .     A
C661   C679    1.449   .     S
C662   C678    1.401   .     A
C662   H694    1.083   .     S
C662   C730    1.383   .     S
C663   H695    1.083   .     S
C663   C678    1.401   .     A
C663   C756    1.383   .     S
C664   H696    1.083   .     S
C664   C679    1.401   .     A
C665   H712    1.084   .     S
C665   C669    1.396   .     A
C665   C676    1.399   .     A
C666   C670    1.396   .     A
C666   C677    1.399   .     A
C666   H713    1.084   .     S
C667   C671    1.396   .     A
C667   H714    1.084   .     S
C667   C677    1.399   .     A
C668   C673    1.396   .     A
C668   C676    1.399   .     A
C668   H715    1.084   .     S
C669   C674    1.412   .     A
C669   C680    1.509   .     S
C670   C675    1.412   .     A
C670   C681    1.509   .     S
C671   C682    1.509   .     S
C671   C675    1.412   .     A
C672   O721    1.291   .     A
C672   C678    1.449   .     S
C672   O720    1.291   .     A
C673   C674    1.412   .     A
C673   C684    1.509   .     S
C674   C683    1.455   .     S
C675   C685    1.455   .     S
C677   C82     1.466   1_556 S
C679   C690    1.401   .     A
C680   H697    1.110   .     S
C680   H698    1.111   .     S
C680   H699    1.111   .     S
C681   H700    1.111   .     S
C681   H701    1.111   .     S
C681   H702    1.109   .     S
C682   H703    1.110   .     S
C682   H706    1.111   .     S
C682   H705    1.111   .     S
C683   O723    1.290   .     A
C683   O726    1.291   .     A
C684   H707    1.111   .     S
C684   H708    1.111   .     S
C684   H709    1.109   .     S
C685   O725    1.290   .     A
C685   O724    1.291   .     A
C686   H693    1.081   .     S
C686   N718    1.367   .     A
C686   C1085   1.417   1_545 S
C687   N717    1.367   .     A
C687   H704    1.082   .     S
C687   C886    1.417   .     S
C688   N718    1.367   .     A
C688   H710    1.081   .     S
C688   C1083   1.417   1_545 S
C689   N717    1.367   .     A
C689   H711    1.082   .     S
C689   C884    1.417   .     S
C690   H716    1.083   .     S
Cu691  O721    1.964   .     S
Cu691  N717    2.013   .     S
Cu691  O719    1.964   .     S
Cu691  O723    1.951   .     S
Cu691  O725    1.951   .     S
Cu691  Cu692   2.679   .     S
Cu692  N718    2.013   .     S
Cu692  O722    1.964   .     S
Cu692  O720    1.964   .     S
Cu692  O724    1.951   .     S
Cu692  O726    1.951   .     S
C727   O788    1.291   .     A
C727   O785    1.291   .     A
C727   C745    1.449   .     S
C728   C744    1.401   .     A
C728   H760    1.083   .     S
C728   C598    1.383   1_655 S
C729   H761    1.083   .     S
C729   C744    1.401   .     A
C729   C624    1.383   1_655 S
C730   H762    1.083   .     S
C730   C745    1.401   .     A
C731   H778    1.084   .     S
C731   C735    1.396   .     A
C731   C742    1.399   .     A
C732   C736    1.396   .     A
C732   C743    1.399   .     A
C732   H779    1.084   .     S
C733   C737    1.396   .     A
C733   H780    1.084   .     S
C733   C743    1.399   .     A
C734   C739    1.396   .     A
C734   C742    1.399   .     A
C734   H781    1.084   .     S
C735   C740    1.412   .     A
C735   C746    1.509   .     S
C736   C741    1.412   .     A
C736   C747    1.509   .     S
C737   C748    1.509   .     S
C737   C741    1.412   .     A
C738   O787    1.291   .     A
C738   C744    1.449   .     S
C738   O786    1.291   .     A
C739   C740    1.412   .     A
C739   C750    1.509   .     S
C740   C749    1.455   .     S
C741   C751    1.455   .     S
C743   C148    1.466   1_556 S
C745   C756    1.401   .     A
C746   H763    1.110   .     S
C746   H764    1.111   .     S
C746   H765    1.111   .     S
C747   H766    1.111   .     S
C747   H767    1.111   .     S
C747   H768    1.109   .     S
C748   H769    1.110   .     S
C748   H772    1.111   .     S
C748   H771    1.111   .     S
C749   O789    1.290   .     A
C749   O792    1.291   .     A
C750   H773    1.111   .     S
C750   H774    1.111   .     S
C750   H775    1.109   .     S
C751   O791    1.290   .     A
C751   O790    1.291   .     A
C752   H759    1.081   .     S
C752   N784    1.367   .     A
C752   C1151   1.417   1_545 S
C753   N783    1.367   .     A
C753   H770    1.082   .     S
C753   C952    1.417   .     S
C754   N784    1.367   .     A
C754   H776    1.081   .     S
C754   C1149   1.417   1_545 S
C755   N783    1.367   .     A
C755   H777    1.082   .     S
C755   C950    1.417   .     S
C756   H782    1.083   .     S
Cu757  O787    1.964   .     S
Cu757  N783    2.013   .     S
Cu757  O785    1.964   .     S
Cu757  O789    1.951   .     S
Cu757  O791    1.951   .     S
Cu757  Cu758   2.679   .     S
Cu758  N784    2.013   .     S
Cu758  O788    1.964   .     S
Cu758  O786    1.964   .     S
Cu758  O790    1.951   .     S
Cu758  O792    1.951   .     S
C793   O854    1.291   .     A
C793   O851    1.291   .     A
C793   C811    1.449   .     S
C794   C810    1.401   .     A
C794   H826    1.083   .     S
C794   C862    1.383   .     S
C795   H827    1.083   .     S
C795   C810    1.401   .     A
C795   C888    1.383   .     S
C796   H828    1.083   .     S
C796   C811    1.401   .     A
C796   C926    1.383   1_455 S
C797   H844    1.084   .     S
C797   C801    1.396   .     A
C797   C808    1.399   .     A
C798   C802    1.396   .     A
C798   C809    1.399   .     A
C798   H845    1.084   .     S
C799   C803    1.396   .     A
C799   H846    1.084   .     S
C799   C809    1.399   .     A
C800   C805    1.396   .     A
C800   C808    1.399   .     A
C800   H847    1.084   .     S
C801   C806    1.412   .     A
C801   C812    1.509   .     S
C802   C807    1.412   .     A
C802   C813    1.509   .     S
C803   C814    1.509   .     S
C803   C807    1.412   .     A
C804   O853    1.291   .     A
C804   C810    1.449   .     S
C804   O852    1.291   .     A
C805   C806    1.412   .     A
C805   C816    1.509   .     S
C806   C815    1.455   .     S
C807   C817    1.455   .     S
C809   C214    1.466   1_556 S
C811   C822    1.401   .     A
C812   H829    1.110   .     S
C812   H830    1.111   .     S
C812   H831    1.111   .     S
C813   H832    1.111   .     S
C813   H833    1.111   .     S
C813   H834    1.109   .     S
C814   H835    1.110   .     S
C814   H838    1.111   .     S
C814   H837    1.111   .     S
C815   O855    1.290   .     A
C815   O858    1.291   .     A
C816   H839    1.111   .     S
C816   H840    1.111   .     S
C816   H841    1.109   .     S
C817   O857    1.290   .     A
C817   O856    1.291   .     A
C818   H825    1.081   .     S
C818   N850    1.367   .     A
C819   N849    1.367   .     A
C819   H836    1.082   .     S
C819   C1018   1.417   .     S
C820   N850    1.367   .     A
C820   H842    1.081   .     S
C821   N849    1.367   .     A
C821   H843    1.082   .     S
C821   C1016   1.417   .     S
C822   H848    1.083   .     S
C822   C927    1.383   1_455 S
Cu823  O853    1.964   .     S
Cu823  N849    2.013   .     S
Cu823  O851    1.964   .     S
Cu823  O855    1.951   .     S
Cu823  O857    1.951   .     S
Cu823  Cu824   2.679   .     S
Cu824  N850    2.013   .     S
Cu824  O854    1.964   .     S
Cu824  O852    1.964   .     S
Cu824  O856    1.951   .     S
Cu824  O858    1.951   .     S
C859   O920    1.291   .     A
C859   O917    1.291   .     A
C859   C877    1.449   .     S
C860   C876    1.401   .     A
C860   H892    1.083   .     S
C860   C928    1.383   .     S
C861   H893    1.083   .     S
C861   C876    1.401   .     A
C861   C954    1.383   .     S
C862   H894    1.083   .     S
C862   C877    1.401   .     A
C863   H910    1.084   .     S
C863   C867    1.396   .     A
C863   C874    1.399   .     A
C864   C868    1.396   .     A
C864   C875    1.399   .     A
C864   H911    1.084   .     S
C865   C869    1.396   .     A
C865   H912    1.084   .     S
C865   C875    1.399   .     A
C866   C871    1.396   .     A
C866   C874    1.399   .     A
C866   H913    1.084   .     S
C867   C872    1.412   .     A
C867   C878    1.509   .     S
C868   C873    1.412   .     A
C868   C879    1.509   .     S
C869   C880    1.509   .     S
C869   C873    1.412   .     A
C870   O919    1.291   .     A
C870   C876    1.449   .     S
C870   O918    1.291   .     A
C871   C872    1.412   .     A
C871   C882    1.509   .     S
C872   C881    1.455   .     S
C873   C883    1.455   .     S
C875   C280    1.466   1_556 S
C877   C888    1.401   .     A
C878   H895    1.110   .     S
C878   H896    1.111   .     S
C878   H897    1.111   .     S
C879   H898    1.111   .     S
C879   H899    1.111   .     S
C879   H900    1.109   .     S
C880   H901    1.110   .     S
C880   H904    1.111   .     S
C880   H903    1.111   .     S
C881   O921    1.290   .     A
C881   O924    1.291   .     A
C882   H905    1.111   .     S
C882   H906    1.111   .     S
C882   H907    1.109   .     S
C883   O923    1.290   .     A
C883   O922    1.291   .     A
C884   H891    1.081   .     S
C884   N916    1.367   .     A
C885   N915    1.367   .     A
C885   H902    1.082   .     S
C885   C1084   1.417   .     S
C886   N916    1.367   .     A
C886   H908    1.081   .     S
C887   N915    1.367   .     A
C887   H909    1.082   .     S
C887   C1082   1.417   .     S
C888   H914    1.083   .     S
Cu889  O919    1.964   .     S
Cu889  N915    2.013   .     S
Cu889  O917    1.964   .     S
Cu889  O921    1.951   .     S
Cu889  O923    1.951   .     S
Cu889  Cu890   2.679   .     S
Cu890  N916    2.013   .     S
Cu890  O920    1.964   .     S
Cu890  O918    1.964   .     S
Cu890  O922    1.951   .     S
Cu890  O924    1.951   .     S
C925   O986    1.291   .     A
C925   O983    1.291   .     A
C925   C943    1.449   .     S
C926   C942    1.401   .     A
C926   H958    1.083   .     S
C926   C796    1.383   1_655 S
C927   H959    1.083   .     S
C927   C942    1.401   .     A
C927   C822    1.383   1_655 S
C928   H960    1.083   .     S
C928   C943    1.401   .     A
C929   H976    1.084   .     S
C929   C933    1.396   .     A
C929   C940    1.399   .     A
C930   C934    1.396   .     A
C930   C941    1.399   .     A
C930   H977    1.084   .     S
C931   C935    1.396   .     A
C931   H978    1.084   .     S
C931   C941    1.399   .     A
C932   C937    1.396   .     A
C932   C940    1.399   .     A
C932   H979    1.084   .     S
C933   C938    1.412   .     A
C933   C944    1.509   .     S
C934   C939    1.412   .     A
C934   C945    1.509   .     S
C935   C946    1.509   .     S
C935   C939    1.412   .     A
C936   O985    1.291   .     A
C936   C942    1.449   .     S
C936   O984    1.291   .     A
C937   C938    1.412   .     A
C937   C948    1.509   .     S
C938   C947    1.455   .     S
C939   C949    1.455   .     S
C941   C346    1.466   1_556 S
C943   C954    1.401   .     A
C944   H961    1.110   .     S
C944   H962    1.111   .     S
C944   H963    1.111   .     S
C945   H964    1.111   .     S
C945   H965    1.111   .     S
C945   H966    1.109   .     S
C946   H967    1.110   .     S
C946   H970    1.111   .     S
C946   H969    1.111   .     S
C947   O987    1.290   .     A
C947   O990    1.291   .     A
C948   H971    1.111   .     S
C948   H972    1.111   .     S
C948   H973    1.109   .     S
C949   O989    1.290   .     A
C949   O988    1.291   .     A
C950   H957    1.081   .     S
C950   N982    1.367   .     A
C951   N981    1.367   .     A
C951   H968    1.082   .     S
C951   C1150   1.417   .     S
C952   N982    1.367   .     A
C952   H974    1.081   .     S
C953   N981    1.367   .     A
C953   H975    1.082   .     S
C953   C1148   1.417   .     S
C954   H980    1.083   .     S
Cu955  O985    1.964   .     S
Cu955  N981    2.013   .     S
Cu955  O983    1.964   .     S
Cu955  O987    1.951   .     S
Cu955  O989    1.951   .     S
Cu955  Cu956   2.679   .     S
Cu956  N982    2.013   .     S
Cu956  O986    1.964   .     S
Cu956  O984    1.964   .     S
Cu956  O988    1.951   .     S
Cu956  O990    1.951   .     S
C991   O1052   1.291   .     A
C991   O1049   1.291   .     A
C991   C1009   1.449   .     S
C992   C1008   1.401   .     A
C992   H1024   1.083   .     S
C992   C1060   1.383   .     S
C993   H1025   1.083   .     S
C993   C1008   1.401   .     A
C993   C1086   1.383   .     S
C994   H1026   1.083   .     S
C994   C1009   1.401   .     A
C994   C1124   1.383   1_455 S
C995   H1042   1.084   .     S
C995   C999    1.396   .     A
C995   C1006   1.399   .     A
C996   C1000   1.396   .     A
C996   C1007   1.399   .     A
C996   H1043   1.084   .     S
C997   C1001   1.396   .     A
C997   H1044   1.084   .     S
C997   C1007   1.399   .     A
C998   C1003   1.396   .     A
C998   C1006   1.399   .     A
C998   H1045   1.084   .     S
C999   C1004   1.412   .     A
C999   C1010   1.509   .     S
C1000  C1005   1.412   .     A
C1000  C1011   1.509   .     S
C1001  C1012   1.509   .     S
C1001  C1005   1.412   .     A
C1002  O1051   1.291   .     A
C1002  C1008   1.449   .     S
C1002  O1050   1.291   .     A
C1003  C1004   1.412   .     A
C1003  C1014   1.509   .     S
C1004  C1013   1.455   .     S
C1005  C1015   1.455   .     S
C1007  C412    1.466   1_556 S
C1009  C1020   1.401   .     A
C1010  H1027   1.110   .     S
C1010  H1028   1.111   .     S
C1010  H1029   1.111   .     S
C1011  H1030   1.111   .     S
C1011  H1031   1.111   .     S
C1011  H1032   1.109   .     S
C1012  H1033   1.110   .     S
C1012  H1036   1.111   .     S
C1012  H1035   1.111   .     S
C1013  O1053   1.290   .     A
C1013  O1056   1.291   .     A
C1014  H1037   1.111   .     S
C1014  H1038   1.111   .     S
C1014  H1039   1.109   .     S
C1015  O1055   1.290   .     A
C1015  O1054   1.291   .     A
C1016  H1023   1.081   .     S
C1016  N1048   1.367   .     A
C1017  N1047   1.367   .     A
C1017  H1034   1.082   .     S
C1017  C622    1.417   1_565 S
C1018  N1048   1.367   .     A
C1018  H1040   1.081   .     S
C1019  N1047   1.367   .     A
C1019  H1041   1.082   .     S
C1019  C620    1.417   1_565 S
C1020  H1046   1.083   .     S
C1020  C1125   1.383   1_455 S
Cu1021 O1051   1.964   .     S
Cu1021 N1047   2.013   .     S
Cu1021 O1049   1.964   .     S
Cu1021 O1053   1.951   .     S
Cu1021 O1055   1.951   .     S
Cu1021 Cu1022  2.679   .     S
Cu1022 N1048   2.013   .     S
Cu1022 O1052   1.964   .     S
Cu1022 O1050   1.964   .     S
Cu1022 O1054   1.951   .     S
Cu1022 O1056   1.951   .     S
C1057  O1118   1.291   .     A
C1057  O1115   1.291   .     A
C1057  C1075   1.449   .     S
C1058  C1074   1.401   .     A
C1058  H1090   1.083   .     S
C1058  C1126   1.383   .     S
C1059  H1091   1.083   .     S
C1059  C1074   1.401   .     A
C1059  C1152   1.383   .     S
C1060  H1092   1.083   .     S
C1060  C1075   1.401   .     A
C1061  H1108   1.084   .     S
C1061  C1065   1.396   .     A
C1061  C1072   1.399   .     A
C1062  C1066   1.396   .     A
C1062  C1073   1.399   .     A
C1062  H1109   1.084   .     S
C1063  C1067   1.396   .     A
C1063  H1110   1.084   .     S
C1063  C1073   1.399   .     A
C1064  C1069   1.396   .     A
C1064  C1072   1.399   .     A
C1064  H1111   1.084   .     S
C1065  C1070   1.412   .     A
C1065  C1076   1.509   .     S
C1066  C1071   1.412   .     A
C1066  C1077   1.509   .     S
C1067  C1078   1.509   .     S
C1067  C1071   1.412   .     A
C1068  O1117   1.291   .     A
C1068  C1074   1.449   .     S
C1068  O1116   1.291   .     A
C1069  C1070   1.412   .     A
C1069  C1080   1.509   .     S
C1070  C1079   1.455   .     S
C1071  C1081   1.455   .     S
C1073  C478    1.466   1_556 S
C1075  C1086   1.401   .     A
C1076  H1093   1.110   .     S
C1076  H1094   1.111   .     S
C1076  H1095   1.111   .     S
C1077  H1096   1.111   .     S
C1077  H1097   1.111   .     S
C1077  H1098   1.109   .     S
C1078  H1099   1.110   .     S
C1078  H1102   1.111   .     S
C1078  H1101   1.111   .     S
C1079  O1119   1.290   .     A
C1079  O1122   1.291   .     A
C1080  H1103   1.111   .     S
C1080  H1104   1.111   .     S
C1080  H1105   1.109   .     S
C1081  O1121   1.290   .     A
C1081  O1120   1.291   .     A
C1082  H1089   1.081   .     S
C1082  N1114   1.367   .     A
C1083  N1113   1.367   .     A
C1083  H1100   1.082   .     S
C1083  C688    1.417   1_565 S
C1084  N1114   1.367   .     A
C1084  H1106   1.081   .     S
C1085  N1113   1.367   .     A
C1085  H1107   1.082   .     S
C1085  C686    1.417   1_565 S
C1086  H1112   1.083   .     S
Cu1087 O1117   1.964   .     S
Cu1087 N1113   2.013   .     S
Cu1087 O1115   1.964   .     S
Cu1087 O1119   1.951   .     S
Cu1087 O1121   1.951   .     S
Cu1087 Cu1088  2.679   .     S
Cu1088 N1114   2.013   .     S
Cu1088 O1118   1.964   .     S
Cu1088 O1116   1.964   .     S
Cu1088 O1120   1.951   .     S
Cu1088 O1122   1.951   .     S
C1123  O1184   1.291   .     A
C1123  O1181   1.291   .     A
C1123  C1141   1.449   .     S
C1124  C1140   1.401   .     A
C1124  H1156   1.083   .     S
C1124  C994    1.383   1_655 S
C1125  H1157   1.083   .     S
C1125  C1140   1.401   .     A
C1125  C1020   1.383   1_655 S
C1126  H1158   1.083   .     S
C1126  C1141   1.401   .     A
C1127  H1174   1.084   .     S
C1127  C1131   1.396   .     A
C1127  C1138   1.399   .     A
C1128  C1132   1.396   .     A
C1128  C1139   1.399   .     A
C1128  H1175   1.084   .     S
C1129  C1133   1.396   .     A
C1129  H1176   1.084   .     S
C1129  C1139   1.399   .     A
C1130  C1135   1.396   .     A
C1130  C1138   1.399   .     A
C1130  H1177   1.084   .     S
C1131  C1136   1.412   .     A
C1131  C1142   1.509   .     S
C1132  C1137   1.412   .     A
C1132  C1143   1.509   .     S
C1133  C1144   1.509   .     S
C1133  C1137   1.412   .     A
C1134  O1183   1.291   .     A
C1134  C1140   1.449   .     S
C1134  O1182   1.291   .     A
C1135  C1136   1.412   .     A
C1135  C1146   1.509   .     S
C1136  C1145   1.455   .     S
C1137  C1147   1.455   .     S
C1139  C544    1.466   1_556 S
C1141  C1152   1.401   .     A
C1142  H1159   1.110   .     S
C1142  H1160   1.111   .     S
C1142  H1161   1.111   .     S
C1143  H1162   1.111   .     S
C1143  H1163   1.111   .     S
C1143  H1164   1.109   .     S
C1144  H1165   1.110   .     S
C1144  H1168   1.111   .     S
C1144  H1167   1.111   .     S
C1145  O1185   1.290   .     A
C1145  O1188   1.291   .     A
C1146  H1169   1.111   .     S
C1146  H1170   1.111   .     S
C1146  H1171   1.109   .     S
C1147  O1187   1.290   .     A
C1147  O1186   1.291   .     A
C1148  H1155   1.081   .     S
C1148  N1180   1.367   .     A
C1149  N1179   1.367   .     A
C1149  H1166   1.082   .     S
C1149  C754    1.417   1_565 S
C1150  N1180   1.367   .     A
C1150  H1172   1.081   .     S
C1151  N1179   1.367   .     A
C1151  H1173   1.082   .     S
C1151  C752    1.417   1_565 S
C1152  H1178   1.083   .     S
Cu1153 O1183   1.964   .     S
Cu1153 N1179   2.013   .     S
Cu1153 O1181   1.964   .     S
Cu1153 O1185   1.951   .     S
Cu1153 O1187   1.951   .     S
Cu1153 Cu1154  2.679   .     S
Cu1154 N1180   2.013   .     S
Cu1154 O1184   1.964   .     S
Cu1154 O1182   1.964   .     S
Cu1154 O1186   1.951   .     S
Cu1154 O1188   1.951   .     S
