data_str_m2_o2_o10_pcu_sym.80
_audit_creation_date              2020-01-03
_audit_creation_method            'Materials Studio'
_symmetry_space_group_name_H-M    'P1'
_symmetry_Int_Tables_number       1
_symmetry_cell_setting            triclinic
loop_
_symmetry_equiv_pos_as_xyz
  x,y,z
_cell_length_a                    26.3465
_cell_length_b                    30.2747
_cell_length_c                    27.7081
_cell_angle_alpha                 90.0225
_cell_angle_beta                  97.8704
_cell_angle_gamma                 90.2431
loop_
_atom_site_label
_atom_site_type_symbol
_atom_site_fract_x
_atom_site_fract_y
_atom_site_fract_z
_atom_site_U_iso_or_equiv
_atom_site_adp_type
_atom_site_occupancy
C1     C     0.16663   0.16496   0.24998   0.00000  Uiso   1.00
C2     C     0.20416   0.27323   0.45089   0.00000  Uiso   1.00
C3     C     0.16653   0.25008   0.02725   0.00000  Uiso   1.00
C4     C     0.16652   0.25012   0.47258   0.00000  Uiso   1.00
C5     C     0.06817   0.25292   0.23774   0.00000  Uiso   1.00
C6     C     0.26524   0.25257   0.26242   0.00000  Uiso   1.00
C7     C     0.01330   0.25969   0.23118   0.00000  Uiso   1.00
C8     C     0.32045   0.25726   0.26997   0.00000  Uiso   1.00
C9     C     0.18586   0.04780   0.29228   0.00000  Uiso   1.00
C10    C     0.17748   0.45247   0.20877   0.00000  Uiso   1.00
C11    C     0.18543   0.09371   0.29241   0.00000  Uiso   1.00
C12    C     0.16670   0.33508   0.25000   0.00000  Uiso   1.00
C13    C     0.17704   0.40658   0.20862   0.00000  Uiso   1.00
C14    C     0.16660   0.11679   0.24995   0.00000  Uiso   1.00
C15    C     0.16671   0.38333   0.24995   0.00000  Uiso   1.00
C16    C     0.14774   0.09357   0.20748   0.00000  Uiso   1.00
C17    C     0.15637   0.40651   0.29125   0.00000  Uiso   1.00
C18    C     0.14728   0.04766   0.20758   0.00000  Uiso   1.00
C19    C     0.15575   0.45240   0.29107   0.00000  Uiso   1.00
C20    C     0.16656   0.02437   0.24992   0.00000  Uiso   1.00
C21    C     0.16657   0.47579   0.24991   0.00000  Uiso   1.00
C22    C     0.33207   0.31087   0.16937   0.00000  Uiso   1.00
C23    C     0.18741   0.28555   0.05659   0.00000  Uiso   1.00
C24    C     0.30486   0.34605   0.19651   0.00000  Uiso   1.00
C25    C     0.31020   0.39186   0.17483   0.00000  Uiso   1.00
C26    C     0.00404   0.29643   0.34188   0.00000  Uiso   1.00
C27    C     0.05027   0.32730   0.34217   0.00000  Uiso   1.00
C28    C     0.04209   0.37049   0.36840   0.00000  Uiso   1.00
C29    C     0.12892   0.22700   0.44106   0.00000  Uiso   1.00
C30    C     0.18737   0.28472   0.10732   0.00000  Uiso   1.00
C31    C     0.12999   0.22701   0.39047   0.00000  Uiso   1.00
C32    C     0.14573   0.21538   0.10190   0.00000  Uiso   1.00
C33    C     0.20327   0.27302   0.40003   0.00000  Uiso   1.00
C34    C     0.14564   0.21459   0.05113   0.00000  Uiso   1.00
Cu35   Cu    0.16667   0.25000   0.29822   0.00000  Uiso   1.00
Cu36   Cu    0.16667   0.25001   0.20179   0.00000  Uiso   1.00
H37    H     0.20186   0.03070   0.32515   0.00000  Uiso   1.00
H38    H     0.09828   0.20934   0.45504   0.00000  Uiso   1.00
H39    H     0.20372   0.31227   0.12888   0.00000  Uiso   1.00
H40    H     0.10103   0.20883   0.36697   0.00000  Uiso   1.00
H41    H     0.12981   0.18593   0.03106   0.00000  Uiso   1.00
H42    H     0.23471   0.29098   0.47287   0.00000  Uiso   1.00
H43    H     0.31758   0.31321   0.12987   0.00000  Uiso   1.00
H44    H     0.04055   0.31809   0.17307   0.00000  Uiso   1.00
H45    H     0.26367   0.33765   0.19454   0.00000  Uiso   1.00
H46    H     0.32165   0.34703   0.23548   0.00000  Uiso   1.00
H47    H     0.01797   0.40099   0.17661   0.00000  Uiso   1.00
H48    H     0.18694   0.46966   0.17690   0.00000  Uiso   1.00
H49    H     0.29115   0.41656   0.19584   0.00000  Uiso   1.00
H50    H     0.29176   0.39259   0.13630   0.00000  Uiso   1.00
H51    H     0.33296   0.28825   0.38017   0.00000  Uiso   1.00
H52    H     0.30190   0.31440   0.32648   0.00000  Uiso   1.00
H53    H     0.08511   0.31094   0.36093   0.00000  Uiso   1.00
H54    H     0.05649   0.33480   0.30418   0.00000  Uiso   1.00
H55    H     0.00840   0.38826   0.34924   0.00000  Uiso   1.00
H56    H     0.07637   0.39199   0.36902   0.00000  Uiso   1.00
H57    H     0.03586   0.36384   0.40658   0.00000  Uiso   1.00
H58    H     0.12901   0.18799   0.11926   0.00000  Uiso   1.00
H59    H     0.20060   0.11114   0.32545   0.00000  Uiso   1.00
H60    H     0.23218   0.29125   0.38408   0.00000  Uiso   1.00
H61    H     0.18545   0.38937   0.17639   0.00000  Uiso   1.00
H62    H     0.13259   0.11089   0.17445   0.00000  Uiso   1.00
H63    H     0.14833   0.38919   0.32353   0.00000  Uiso   1.00
H64    H     0.13127   0.03043   0.17470   0.00000  Uiso   1.00
H65    H     0.14634   0.46951   0.32298   0.00000  Uiso   1.00
H66    H     0.20311   0.31428   0.04068   0.00000  Uiso   1.00
N67    N     0.16667   0.25001   0.12935   0.00000  Uiso   1.00
N68    N     0.16667   0.24999   0.37066   0.00000  Uiso   1.00
O69    O     0.16667   0.18573   0.29072   0.00000  Uiso   1.00
O70    O     0.01203   0.25625   0.31761   0.00000  Uiso   1.00
O71    O     0.16666   0.31428   0.20929   0.00000  Uiso   1.00
O72    O     0.16667   0.18573   0.20928   0.00000  Uiso   1.00
O73    O     0.16666   0.31427   0.29072   0.00000  Uiso   1.00
O74    O     0.09161   0.25000   0.28132   0.00000  Uiso   1.00
O75    O     0.24172   0.25001   0.21868   0.00000  Uiso   1.00
O76    O     0.09161   0.25000   0.19989   0.00000  Uiso   1.00
O77    O     0.24172   0.25000   0.30012   0.00000  Uiso   1.00
O78    O     0.32160   0.26736   0.18442   0.00000  Uiso   1.00
C79    C     0.49997   0.16496   0.24998   0.00000  Uiso   1.00
C80    C     0.53749   0.27323   0.45089   0.00000  Uiso   1.00
C81    C     0.49986   0.25008   0.02725   0.00000  Uiso   1.00
C82    C     0.49986   0.25012   0.47258   0.00000  Uiso   1.00
C83    C     0.40150   0.25292   0.23774   0.00000  Uiso   1.00
C84    C     0.59858   0.25257   0.26242   0.00000  Uiso   1.00
C85    C     0.34663   0.25969   0.23118   0.00000  Uiso   1.00
C86    C     0.65378   0.25726   0.26997   0.00000  Uiso   1.00
C87    C     0.51919   0.04780   0.29228   0.00000  Uiso   1.00
C88    C     0.51081   0.45247   0.20877   0.00000  Uiso   1.00
C89    C     0.51877   0.09371   0.29241   0.00000  Uiso   1.00
C90    C     0.50003   0.33508   0.25000   0.00000  Uiso   1.00
C91    C     0.51037   0.40658   0.20862   0.00000  Uiso   1.00
C92    C     0.49993   0.11679   0.24995   0.00000  Uiso   1.00
C93    C     0.50004   0.38333   0.24995   0.00000  Uiso   1.00
C94    C     0.48107   0.09357   0.20748   0.00000  Uiso   1.00
C95    C     0.48970   0.40651   0.29125   0.00000  Uiso   1.00
C96    C     0.48061   0.04766   0.20758   0.00000  Uiso   1.00
C97    C     0.48909   0.45240   0.29107   0.00000  Uiso   1.00
C98    C     0.49989   0.02437   0.24992   0.00000  Uiso   1.00
C99    C     0.49990   0.47579   0.24991   0.00000  Uiso   1.00
C100   C     0.66540   0.31087   0.16937   0.00000  Uiso   1.00
C101   C     0.52074   0.28555   0.05659   0.00000  Uiso   1.00
C102   C     0.63819   0.34605   0.19651   0.00000  Uiso   1.00
C103   C     0.64353   0.39186   0.17483   0.00000  Uiso   1.00
C104   C     0.33737   0.29643   0.34188   0.00000  Uiso   1.00
C105   C     0.38361   0.32730   0.34217   0.00000  Uiso   1.00
C106   C     0.37542   0.37049   0.36840   0.00000  Uiso   1.00
C107   C     0.46225   0.22700   0.44106   0.00000  Uiso   1.00
C108   C     0.52070   0.28472   0.10732   0.00000  Uiso   1.00
C109   C     0.46333   0.22701   0.39047   0.00000  Uiso   1.00
C110   C     0.47906   0.21538   0.10190   0.00000  Uiso   1.00
C111   C     0.53660   0.27302   0.40003   0.00000  Uiso   1.00
C112   C     0.47897   0.21459   0.05113   0.00000  Uiso   1.00
Cu113  Cu    0.50000   0.25000   0.29822   0.00000  Uiso   1.00
Cu114  Cu    0.50000   0.25001   0.20179   0.00000  Uiso   1.00
H115   H     0.53520   0.03070   0.32515   0.00000  Uiso   1.00
H116   H     0.43161   0.20934   0.45504   0.00000  Uiso   1.00
H117   H     0.53706   0.31227   0.12888   0.00000  Uiso   1.00
H118   H     0.43436   0.20883   0.36697   0.00000  Uiso   1.00
H119   H     0.46314   0.18593   0.03106   0.00000  Uiso   1.00
H120   H     0.56805   0.29098   0.47287   0.00000  Uiso   1.00
H121   H     0.65091   0.31321   0.12987   0.00000  Uiso   1.00
H122   H     0.37388   0.31809   0.17307   0.00000  Uiso   1.00
H123   H     0.59700   0.33765   0.19454   0.00000  Uiso   1.00
H124   H     0.65498   0.34703   0.23548   0.00000  Uiso   1.00
H125   H     0.35130   0.40099   0.17661   0.00000  Uiso   1.00
H126   H     0.52028   0.46966   0.17690   0.00000  Uiso   1.00
H127   H     0.62448   0.41656   0.19584   0.00000  Uiso   1.00
H128   H     0.62510   0.39259   0.13630   0.00000  Uiso   1.00
H129   H     0.66629   0.28825   0.38017   0.00000  Uiso   1.00
H130   H     0.63524   0.31440   0.32648   0.00000  Uiso   1.00
H131   H     0.41844   0.31094   0.36093   0.00000  Uiso   1.00
H132   H     0.38983   0.33480   0.30418   0.00000  Uiso   1.00
H133   H     0.34173   0.38826   0.34924   0.00000  Uiso   1.00
H134   H     0.40970   0.39199   0.36902   0.00000  Uiso   1.00
H135   H     0.36919   0.36384   0.40658   0.00000  Uiso   1.00
H136   H     0.46234   0.18799   0.11926   0.00000  Uiso   1.00
H137   H     0.53393   0.11114   0.32545   0.00000  Uiso   1.00
H138   H     0.56551   0.29125   0.38408   0.00000  Uiso   1.00
H139   H     0.51878   0.38937   0.17639   0.00000  Uiso   1.00
H140   H     0.46592   0.11089   0.17445   0.00000  Uiso   1.00
H141   H     0.48166   0.38919   0.32353   0.00000  Uiso   1.00
H142   H     0.46461   0.03043   0.17470   0.00000  Uiso   1.00
H143   H     0.47967   0.46951   0.32298   0.00000  Uiso   1.00
H144   H     0.53645   0.31428   0.04068   0.00000  Uiso   1.00
N145   N     0.50000   0.25001   0.12935   0.00000  Uiso   1.00
N146   N     0.50000   0.24999   0.37066   0.00000  Uiso   1.00
O147   O     0.50000   0.18573   0.29072   0.00000  Uiso   1.00
O148   O     0.34536   0.25625   0.31761   0.00000  Uiso   1.00
O149   O     0.50000   0.31428   0.20929   0.00000  Uiso   1.00
O150   O     0.50000   0.18573   0.20928   0.00000  Uiso   1.00
O151   O     0.50000   0.31427   0.29072   0.00000  Uiso   1.00
O152   O     0.42495   0.25000   0.28132   0.00000  Uiso   1.00
O153   O     0.57505   0.25001   0.21868   0.00000  Uiso   1.00
O154   O     0.42495   0.25000   0.19989   0.00000  Uiso   1.00
O155   O     0.57505   0.25000   0.30012   0.00000  Uiso   1.00
O156   O     0.65493   0.26736   0.18442   0.00000  Uiso   1.00
C157   C     0.83330   0.16496   0.24998   0.00000  Uiso   1.00
C158   C     0.87083   0.27323   0.45089   0.00000  Uiso   1.00
C159   C     0.83320   0.25008   0.02725   0.00000  Uiso   1.00
C160   C     0.83319   0.25012   0.47258   0.00000  Uiso   1.00
C161   C     0.73483   0.25292   0.23774   0.00000  Uiso   1.00
C162   C     0.93191   0.25257   0.26242   0.00000  Uiso   1.00
C163   C     0.67996   0.25969   0.23118   0.00000  Uiso   1.00
C164   C     0.98712   0.25726   0.26997   0.00000  Uiso   1.00
C165   C     0.85252   0.04780   0.29228   0.00000  Uiso   1.00
C166   C     0.84414   0.45247   0.20877   0.00000  Uiso   1.00
C167   C     0.85210   0.09371   0.29241   0.00000  Uiso   1.00
C168   C     0.83337   0.33508   0.25000   0.00000  Uiso   1.00
C169   C     0.84370   0.40658   0.20862   0.00000  Uiso   1.00
C170   C     0.83327   0.11679   0.24995   0.00000  Uiso   1.00
C171   C     0.83337   0.38333   0.24995   0.00000  Uiso   1.00
C172   C     0.81441   0.09357   0.20748   0.00000  Uiso   1.00
C173   C     0.82303   0.40651   0.29125   0.00000  Uiso   1.00
C174   C     0.81395   0.04766   0.20758   0.00000  Uiso   1.00
C175   C     0.82242   0.45240   0.29107   0.00000  Uiso   1.00
C176   C     0.83323   0.02437   0.24992   0.00000  Uiso   1.00
C177   C     0.83323   0.47579   0.24991   0.00000  Uiso   1.00
C178   C     0.99873   0.31087   0.16937   0.00000  Uiso   1.00
C179   C     0.85407   0.28555   0.05659   0.00000  Uiso   1.00
C180   C     0.97153   0.34605   0.19651   0.00000  Uiso   1.00
C181   C     0.97686   0.39186   0.17483   0.00000  Uiso   1.00
C182   C     0.67070   0.29643   0.34188   0.00000  Uiso   1.00
C183   C     0.71694   0.32730   0.34217   0.00000  Uiso   1.00
C184   C     0.70875   0.37049   0.36840   0.00000  Uiso   1.00
C185   C     0.79558   0.22700   0.44106   0.00000  Uiso   1.00
C186   C     0.85403   0.28472   0.10732   0.00000  Uiso   1.00
C187   C     0.79666   0.22701   0.39047   0.00000  Uiso   1.00
C188   C     0.81240   0.21538   0.10190   0.00000  Uiso   1.00
C189   C     0.86994   0.27302   0.40003   0.00000  Uiso   1.00
C190   C     0.81231   0.21459   0.05113   0.00000  Uiso   1.00
Cu191  Cu    0.83333   0.25000   0.29822   0.00000  Uiso   1.00
Cu192  Cu    0.83333   0.25001   0.20179   0.00000  Uiso   1.00
H193   H     0.86853   0.03070   0.32515   0.00000  Uiso   1.00
H194   H     0.76495   0.20934   0.45504   0.00000  Uiso   1.00
H195   H     0.87039   0.31227   0.12888   0.00000  Uiso   1.00
H196   H     0.76769   0.20883   0.36697   0.00000  Uiso   1.00
H197   H     0.79648   0.18593   0.03106   0.00000  Uiso   1.00
H198   H     0.90138   0.29098   0.47287   0.00000  Uiso   1.00
H199   H     0.98425   0.31321   0.12987   0.00000  Uiso   1.00
H200   H     0.70721   0.31809   0.17307   0.00000  Uiso   1.00
H201   H     0.93033   0.33765   0.19454   0.00000  Uiso   1.00
H202   H     0.98832   0.34703   0.23548   0.00000  Uiso   1.00
H203   H     0.68464   0.40099   0.17661   0.00000  Uiso   1.00
H204   H     0.85361   0.46966   0.17690   0.00000  Uiso   1.00
H205   H     0.95782   0.41656   0.19584   0.00000  Uiso   1.00
H206   H     0.95843   0.39259   0.13630   0.00000  Uiso   1.00
H207   H     0.99962   0.28825   0.38017   0.00000  Uiso   1.00
H208   H     0.96857   0.31440   0.32648   0.00000  Uiso   1.00
H209   H     0.75177   0.31094   0.36093   0.00000  Uiso   1.00
H210   H     0.72316   0.33480   0.30418   0.00000  Uiso   1.00
H211   H     0.67506   0.38826   0.34924   0.00000  Uiso   1.00
H212   H     0.74303   0.39199   0.36902   0.00000  Uiso   1.00
H213   H     0.70253   0.36384   0.40658   0.00000  Uiso   1.00
H214   H     0.79567   0.18799   0.11926   0.00000  Uiso   1.00
H215   H     0.86727   0.11114   0.32545   0.00000  Uiso   1.00
H216   H     0.89885   0.29125   0.38408   0.00000  Uiso   1.00
H217   H     0.85212   0.38937   0.17639   0.00000  Uiso   1.00
H218   H     0.79925   0.11089   0.17445   0.00000  Uiso   1.00
H219   H     0.81499   0.38919   0.32353   0.00000  Uiso   1.00
H220   H     0.79794   0.03043   0.17470   0.00000  Uiso   1.00
H221   H     0.81300   0.46951   0.32298   0.00000  Uiso   1.00
H222   H     0.86978   0.31428   0.04068   0.00000  Uiso   1.00
N223   N     0.83333   0.25001   0.12935   0.00000  Uiso   1.00
N224   N     0.83333   0.24999   0.37066   0.00000  Uiso   1.00
O225   O     0.83334   0.18573   0.29072   0.00000  Uiso   1.00
O226   O     0.67869   0.25625   0.31761   0.00000  Uiso   1.00
O227   O     0.83333   0.31428   0.20929   0.00000  Uiso   1.00
O228   O     0.83334   0.18573   0.20928   0.00000  Uiso   1.00
O229   O     0.83333   0.31427   0.29072   0.00000  Uiso   1.00
O230   O     0.75828   0.25000   0.28132   0.00000  Uiso   1.00
O231   O     0.90839   0.25001   0.21868   0.00000  Uiso   1.00
O232   O     0.75828   0.25000   0.19989   0.00000  Uiso   1.00
O233   O     0.90839   0.25000   0.30012   0.00000  Uiso   1.00
O234   O     0.98827   0.26736   0.18442   0.00000  Uiso   1.00
C235   C     0.16663   0.66496   0.24998   0.00000  Uiso   1.00
C236   C     0.20416   0.77323   0.45089   0.00000  Uiso   1.00
C237   C     0.16653   0.75008   0.02725   0.00000  Uiso   1.00
C238   C     0.16652   0.75012   0.47258   0.00000  Uiso   1.00
C239   C     0.06817   0.75292   0.23774   0.00000  Uiso   1.00
C240   C     0.26524   0.75257   0.26242   0.00000  Uiso   1.00
C241   C     0.01330   0.75969   0.23118   0.00000  Uiso   1.00
C242   C     0.32045   0.75726   0.26997   0.00000  Uiso   1.00
C243   C     0.18586   0.54780   0.29228   0.00000  Uiso   1.00
C244   C     0.17748   0.95247   0.20877   0.00000  Uiso   1.00
C245   C     0.18543   0.59371   0.29241   0.00000  Uiso   1.00
C246   C     0.16670   0.83508   0.25000   0.00000  Uiso   1.00
C247   C     0.17704   0.90658   0.20862   0.00000  Uiso   1.00
C248   C     0.16660   0.61679   0.24995   0.00000  Uiso   1.00
C249   C     0.16671   0.88333   0.24995   0.00000  Uiso   1.00
C250   C     0.14774   0.59357   0.20748   0.00000  Uiso   1.00
C251   C     0.15637   0.90651   0.29125   0.00000  Uiso   1.00
C252   C     0.14728   0.54766   0.20758   0.00000  Uiso   1.00
C253   C     0.15575   0.95240   0.29107   0.00000  Uiso   1.00
C254   C     0.16656   0.52437   0.24992   0.00000  Uiso   1.00
C255   C     0.16657   0.97579   0.24991   0.00000  Uiso   1.00
C256   C     0.33207   0.81087   0.16937   0.00000  Uiso   1.00
C257   C     0.18741   0.78555   0.05659   0.00000  Uiso   1.00
C258   C     0.30486   0.84605   0.19651   0.00000  Uiso   1.00
C259   C     0.31020   0.89186   0.17483   0.00000  Uiso   1.00
C260   C     0.00404   0.79643   0.34188   0.00000  Uiso   1.00
C261   C     0.05027   0.82730   0.34217   0.00000  Uiso   1.00
C262   C     0.04209   0.87049   0.36840   0.00000  Uiso   1.00
C263   C     0.12892   0.72700   0.44106   0.00000  Uiso   1.00
C264   C     0.18737   0.78472   0.10732   0.00000  Uiso   1.00
C265   C     0.12999   0.72701   0.39047   0.00000  Uiso   1.00
C266   C     0.14573   0.71538   0.10190   0.00000  Uiso   1.00
C267   C     0.20327   0.77302   0.40003   0.00000  Uiso   1.00
C268   C     0.14564   0.71459   0.05113   0.00000  Uiso   1.00
Cu269  Cu    0.16667   0.75000   0.29822   0.00000  Uiso   1.00
Cu270  Cu    0.16667   0.75001   0.20179   0.00000  Uiso   1.00
H271   H     0.20186   0.53070   0.32515   0.00000  Uiso   1.00
H272   H     0.09828   0.70934   0.45504   0.00000  Uiso   1.00
H273   H     0.20372   0.81227   0.12888   0.00000  Uiso   1.00
H274   H     0.10103   0.70883   0.36697   0.00000  Uiso   1.00
H275   H     0.12981   0.68593   0.03106   0.00000  Uiso   1.00
H276   H     0.23471   0.79098   0.47287   0.00000  Uiso   1.00
H277   H     0.31758   0.81321   0.12987   0.00000  Uiso   1.00
H278   H     0.04055   0.81809   0.17307   0.00000  Uiso   1.00
H279   H     0.26367   0.83765   0.19454   0.00000  Uiso   1.00
H280   H     0.32165   0.84703   0.23548   0.00000  Uiso   1.00
H281   H     0.01797   0.90099   0.17661   0.00000  Uiso   1.00
H282   H     0.18694   0.96966   0.17690   0.00000  Uiso   1.00
H283   H     0.29115   0.91656   0.19584   0.00000  Uiso   1.00
H284   H     0.29176   0.89259   0.13630   0.00000  Uiso   1.00
H285   H     0.33296   0.78825   0.38017   0.00000  Uiso   1.00
H286   H     0.30190   0.81440   0.32648   0.00000  Uiso   1.00
H287   H     0.08511   0.81094   0.36093   0.00000  Uiso   1.00
H288   H     0.05649   0.83480   0.30418   0.00000  Uiso   1.00
H289   H     0.00840   0.88826   0.34924   0.00000  Uiso   1.00
H290   H     0.07637   0.89199   0.36902   0.00000  Uiso   1.00
H291   H     0.03586   0.86384   0.40658   0.00000  Uiso   1.00
H292   H     0.12901   0.68799   0.11926   0.00000  Uiso   1.00
H293   H     0.20060   0.61114   0.32545   0.00000  Uiso   1.00
H294   H     0.23218   0.79125   0.38408   0.00000  Uiso   1.00
H295   H     0.18545   0.88937   0.17639   0.00000  Uiso   1.00
H296   H     0.13259   0.61089   0.17445   0.00000  Uiso   1.00
H297   H     0.14833   0.88919   0.32353   0.00000  Uiso   1.00
H298   H     0.13127   0.53043   0.17470   0.00000  Uiso   1.00
H299   H     0.14634   0.96951   0.32298   0.00000  Uiso   1.00
H300   H     0.20311   0.81428   0.04068   0.00000  Uiso   1.00
N301   N     0.16667   0.75001   0.12935   0.00000  Uiso   1.00
N302   N     0.16667   0.74999   0.37066   0.00000  Uiso   1.00
O303   O     0.16667   0.68573   0.29072   0.00000  Uiso   1.00
O304   O     0.01203   0.75625   0.31761   0.00000  Uiso   1.00
O305   O     0.16666   0.81428   0.20929   0.00000  Uiso   1.00
O306   O     0.16667   0.68573   0.20928   0.00000  Uiso   1.00
O307   O     0.16666   0.81427   0.29072   0.00000  Uiso   1.00
O308   O     0.09161   0.75000   0.28132   0.00000  Uiso   1.00
O309   O     0.24172   0.75001   0.21868   0.00000  Uiso   1.00
O310   O     0.09161   0.75000   0.19989   0.00000  Uiso   1.00
O311   O     0.24172   0.75000   0.30012   0.00000  Uiso   1.00
O312   O     0.32160   0.76736   0.18442   0.00000  Uiso   1.00
C313   C     0.49997   0.66496   0.24998   0.00000  Uiso   1.00
C314   C     0.53749   0.77323   0.45089   0.00000  Uiso   1.00
C315   C     0.49986   0.75008   0.02725   0.00000  Uiso   1.00
C316   C     0.49986   0.75012   0.47258   0.00000  Uiso   1.00
C317   C     0.40150   0.75292   0.23774   0.00000  Uiso   1.00
C318   C     0.59858   0.75257   0.26242   0.00000  Uiso   1.00
C319   C     0.34663   0.75969   0.23118   0.00000  Uiso   1.00
C320   C     0.65378   0.75726   0.26997   0.00000  Uiso   1.00
C321   C     0.51919   0.54780   0.29228   0.00000  Uiso   1.00
C322   C     0.51081   0.95247   0.20877   0.00000  Uiso   1.00
C323   C     0.51877   0.59371   0.29241   0.00000  Uiso   1.00
C324   C     0.50003   0.83508   0.25000   0.00000  Uiso   1.00
C325   C     0.51037   0.90658   0.20862   0.00000  Uiso   1.00
C326   C     0.49993   0.61679   0.24995   0.00000  Uiso   1.00
C327   C     0.50004   0.88333   0.24995   0.00000  Uiso   1.00
C328   C     0.48107   0.59357   0.20748   0.00000  Uiso   1.00
C329   C     0.48970   0.90651   0.29125   0.00000  Uiso   1.00
C330   C     0.48061   0.54766   0.20758   0.00000  Uiso   1.00
C331   C     0.48909   0.95240   0.29107   0.00000  Uiso   1.00
C332   C     0.49989   0.52437   0.24992   0.00000  Uiso   1.00
C333   C     0.49990   0.97579   0.24991   0.00000  Uiso   1.00
C334   C     0.66540   0.81087   0.16937   0.00000  Uiso   1.00
C335   C     0.52074   0.78555   0.05659   0.00000  Uiso   1.00
C336   C     0.63819   0.84605   0.19651   0.00000  Uiso   1.00
C337   C     0.64353   0.89186   0.17483   0.00000  Uiso   1.00
C338   C     0.33737   0.79643   0.34188   0.00000  Uiso   1.00
C339   C     0.38361   0.82730   0.34217   0.00000  Uiso   1.00
C340   C     0.37542   0.87049   0.36840   0.00000  Uiso   1.00
C341   C     0.46225   0.72700   0.44106   0.00000  Uiso   1.00
C342   C     0.52070   0.78472   0.10732   0.00000  Uiso   1.00
C343   C     0.46333   0.72701   0.39047   0.00000  Uiso   1.00
C344   C     0.47906   0.71538   0.10190   0.00000  Uiso   1.00
C345   C     0.53660   0.77302   0.40003   0.00000  Uiso   1.00
C346   C     0.47897   0.71459   0.05113   0.00000  Uiso   1.00
Cu347  Cu    0.50000   0.75000   0.29822   0.00000  Uiso   1.00
Cu348  Cu    0.50000   0.75001   0.20179   0.00000  Uiso   1.00
H349   H     0.53520   0.53070   0.32515   0.00000  Uiso   1.00
H350   H     0.43161   0.70934   0.45504   0.00000  Uiso   1.00
H351   H     0.53706   0.81227   0.12888   0.00000  Uiso   1.00
H352   H     0.43436   0.70883   0.36697   0.00000  Uiso   1.00
H353   H     0.46314   0.68593   0.03106   0.00000  Uiso   1.00
H354   H     0.56805   0.79098   0.47287   0.00000  Uiso   1.00
H355   H     0.65091   0.81321   0.12987   0.00000  Uiso   1.00
H356   H     0.37388   0.81809   0.17307   0.00000  Uiso   1.00
H357   H     0.59700   0.83765   0.19454   0.00000  Uiso   1.00
H358   H     0.65498   0.84703   0.23548   0.00000  Uiso   1.00
H359   H     0.35130   0.90099   0.17661   0.00000  Uiso   1.00
H360   H     0.52028   0.96966   0.17690   0.00000  Uiso   1.00
H361   H     0.62448   0.91656   0.19584   0.00000  Uiso   1.00
H362   H     0.62510   0.89259   0.13630   0.00000  Uiso   1.00
H363   H     0.66629   0.78825   0.38017   0.00000  Uiso   1.00
H364   H     0.63524   0.81440   0.32648   0.00000  Uiso   1.00
H365   H     0.41844   0.81094   0.36093   0.00000  Uiso   1.00
H366   H     0.38983   0.83480   0.30418   0.00000  Uiso   1.00
H367   H     0.34173   0.88826   0.34924   0.00000  Uiso   1.00
H368   H     0.40970   0.89199   0.36902   0.00000  Uiso   1.00
H369   H     0.36919   0.86384   0.40658   0.00000  Uiso   1.00
H370   H     0.46234   0.68799   0.11926   0.00000  Uiso   1.00
H371   H     0.53393   0.61114   0.32545   0.00000  Uiso   1.00
H372   H     0.56551   0.79125   0.38408   0.00000  Uiso   1.00
H373   H     0.51878   0.88937   0.17639   0.00000  Uiso   1.00
H374   H     0.46592   0.61089   0.17445   0.00000  Uiso   1.00
H375   H     0.48166   0.88919   0.32353   0.00000  Uiso   1.00
H376   H     0.46461   0.53043   0.17470   0.00000  Uiso   1.00
H377   H     0.47967   0.96951   0.32298   0.00000  Uiso   1.00
H378   H     0.53645   0.81428   0.04068   0.00000  Uiso   1.00
N379   N     0.50000   0.75001   0.12935   0.00000  Uiso   1.00
N380   N     0.50000   0.74999   0.37066   0.00000  Uiso   1.00
O381   O     0.50000   0.68573   0.29072   0.00000  Uiso   1.00
O382   O     0.34536   0.75625   0.31761   0.00000  Uiso   1.00
O383   O     0.50000   0.81428   0.20929   0.00000  Uiso   1.00
O384   O     0.50000   0.68573   0.20928   0.00000  Uiso   1.00
O385   O     0.50000   0.81427   0.29072   0.00000  Uiso   1.00
O386   O     0.42495   0.75000   0.28132   0.00000  Uiso   1.00
O387   O     0.57505   0.75001   0.21868   0.00000  Uiso   1.00
O388   O     0.42495   0.75000   0.19989   0.00000  Uiso   1.00
O389   O     0.57505   0.75000   0.30012   0.00000  Uiso   1.00
O390   O     0.65493   0.76736   0.18442   0.00000  Uiso   1.00
C391   C     0.83330   0.66496   0.24998   0.00000  Uiso   1.00
C392   C     0.87083   0.77323   0.45089   0.00000  Uiso   1.00
C393   C     0.83320   0.75008   0.02725   0.00000  Uiso   1.00
C394   C     0.83319   0.75012   0.47258   0.00000  Uiso   1.00
C395   C     0.73483   0.75292   0.23774   0.00000  Uiso   1.00
C396   C     0.93191   0.75257   0.26242   0.00000  Uiso   1.00
C397   C     0.67996   0.75969   0.23118   0.00000  Uiso   1.00
C398   C     0.98712   0.75726   0.26997   0.00000  Uiso   1.00
C399   C     0.85252   0.54780   0.29228   0.00000  Uiso   1.00
C400   C     0.84414   0.95247   0.20877   0.00000  Uiso   1.00
C401   C     0.85210   0.59371   0.29241   0.00000  Uiso   1.00
C402   C     0.83337   0.83508   0.25000   0.00000  Uiso   1.00
C403   C     0.84370   0.90658   0.20862   0.00000  Uiso   1.00
C404   C     0.83327   0.61679   0.24995   0.00000  Uiso   1.00
C405   C     0.83337   0.88333   0.24995   0.00000  Uiso   1.00
C406   C     0.81441   0.59357   0.20748   0.00000  Uiso   1.00
C407   C     0.82303   0.90651   0.29125   0.00000  Uiso   1.00
C408   C     0.81395   0.54766   0.20758   0.00000  Uiso   1.00
C409   C     0.82242   0.95240   0.29107   0.00000  Uiso   1.00
C410   C     0.83323   0.52437   0.24992   0.00000  Uiso   1.00
C411   C     0.83323   0.97579   0.24991   0.00000  Uiso   1.00
C412   C     0.99873   0.81087   0.16937   0.00000  Uiso   1.00
C413   C     0.85407   0.78555   0.05659   0.00000  Uiso   1.00
C414   C     0.97153   0.84605   0.19651   0.00000  Uiso   1.00
C415   C     0.97686   0.89186   0.17483   0.00000  Uiso   1.00
C416   C     0.67070   0.79643   0.34188   0.00000  Uiso   1.00
C417   C     0.71694   0.82730   0.34217   0.00000  Uiso   1.00
C418   C     0.70875   0.87049   0.36840   0.00000  Uiso   1.00
C419   C     0.79558   0.72700   0.44106   0.00000  Uiso   1.00
C420   C     0.85403   0.78472   0.10732   0.00000  Uiso   1.00
C421   C     0.79666   0.72701   0.39047   0.00000  Uiso   1.00
C422   C     0.81240   0.71538   0.10190   0.00000  Uiso   1.00
C423   C     0.86994   0.77302   0.40003   0.00000  Uiso   1.00
C424   C     0.81231   0.71459   0.05113   0.00000  Uiso   1.00
Cu425  Cu    0.83333   0.75000   0.29822   0.00000  Uiso   1.00
Cu426  Cu    0.83333   0.75001   0.20179   0.00000  Uiso   1.00
H427   H     0.86853   0.53070   0.32515   0.00000  Uiso   1.00
H428   H     0.76495   0.70934   0.45504   0.00000  Uiso   1.00
H429   H     0.87039   0.81227   0.12888   0.00000  Uiso   1.00
H430   H     0.76769   0.70883   0.36697   0.00000  Uiso   1.00
H431   H     0.79648   0.68593   0.03106   0.00000  Uiso   1.00
H432   H     0.90138   0.79098   0.47287   0.00000  Uiso   1.00
H433   H     0.98425   0.81321   0.12987   0.00000  Uiso   1.00
H434   H     0.70721   0.81809   0.17307   0.00000  Uiso   1.00
H435   H     0.93033   0.83765   0.19454   0.00000  Uiso   1.00
H436   H     0.98832   0.84703   0.23548   0.00000  Uiso   1.00
H437   H     0.68464   0.90099   0.17661   0.00000  Uiso   1.00
H438   H     0.85361   0.96966   0.17690   0.00000  Uiso   1.00
H439   H     0.95782   0.91656   0.19584   0.00000  Uiso   1.00
H440   H     0.95843   0.89259   0.13630   0.00000  Uiso   1.00
H441   H     0.99962   0.78825   0.38017   0.00000  Uiso   1.00
H442   H     0.96857   0.81440   0.32648   0.00000  Uiso   1.00
H443   H     0.75177   0.81094   0.36093   0.00000  Uiso   1.00
H444   H     0.72316   0.83480   0.30418   0.00000  Uiso   1.00
H445   H     0.67506   0.88826   0.34924   0.00000  Uiso   1.00
H446   H     0.74303   0.89199   0.36902   0.00000  Uiso   1.00
H447   H     0.70253   0.86384   0.40658   0.00000  Uiso   1.00
H448   H     0.79567   0.68799   0.11926   0.00000  Uiso   1.00
H449   H     0.86727   0.61114   0.32545   0.00000  Uiso   1.00
H450   H     0.89885   0.79125   0.38408   0.00000  Uiso   1.00
H451   H     0.85212   0.88937   0.17639   0.00000  Uiso   1.00
H452   H     0.79925   0.61089   0.17445   0.00000  Uiso   1.00
H453   H     0.81499   0.88919   0.32353   0.00000  Uiso   1.00
H454   H     0.79794   0.53043   0.17470   0.00000  Uiso   1.00
H455   H     0.81300   0.96951   0.32298   0.00000  Uiso   1.00
H456   H     0.86978   0.81428   0.04068   0.00000  Uiso   1.00
N457   N     0.83333   0.75001   0.12935   0.00000  Uiso   1.00
N458   N     0.83333   0.74999   0.37066   0.00000  Uiso   1.00
O459   O     0.83334   0.68573   0.29072   0.00000  Uiso   1.00
O460   O     0.67869   0.75625   0.31761   0.00000  Uiso   1.00
O461   O     0.83333   0.81428   0.20929   0.00000  Uiso   1.00
O462   O     0.83334   0.68573   0.20928   0.00000  Uiso   1.00
O463   O     0.83333   0.81427   0.29072   0.00000  Uiso   1.00
O464   O     0.75828   0.75000   0.28132   0.00000  Uiso   1.00
O465   O     0.90839   0.75001   0.21868   0.00000  Uiso   1.00
O466   O     0.75828   0.75000   0.19989   0.00000  Uiso   1.00
O467   O     0.90839   0.75000   0.30012   0.00000  Uiso   1.00
O468   O     0.98827   0.76736   0.18442   0.00000  Uiso   1.00
C469   C     0.16663   0.16496   0.74998   0.00000  Uiso   1.00
C470   C     0.20416   0.27323   0.95089   0.00000  Uiso   1.00
C471   C     0.16653   0.25008   0.52725   0.00000  Uiso   1.00
C472   C     0.16652   0.25012   0.97258   0.00000  Uiso   1.00
C473   C     0.06817   0.25292   0.73774   0.00000  Uiso   1.00
C474   C     0.26524   0.25257   0.76242   0.00000  Uiso   1.00
C475   C     0.01330   0.25969   0.73118   0.00000  Uiso   1.00
C476   C     0.32045   0.25726   0.76997   0.00000  Uiso   1.00
C477   C     0.18586   0.04780   0.79228   0.00000  Uiso   1.00
C478   C     0.17748   0.45247   0.70877   0.00000  Uiso   1.00
C479   C     0.18543   0.09371   0.79241   0.00000  Uiso   1.00
C480   C     0.16670   0.33508   0.75000   0.00000  Uiso   1.00
C481   C     0.17704   0.40658   0.70862   0.00000  Uiso   1.00
C482   C     0.16660   0.11679   0.74995   0.00000  Uiso   1.00
C483   C     0.16671   0.38333   0.74995   0.00000  Uiso   1.00
C484   C     0.14774   0.09357   0.70748   0.00000  Uiso   1.00
C485   C     0.15637   0.40651   0.79125   0.00000  Uiso   1.00
C486   C     0.14728   0.04766   0.70758   0.00000  Uiso   1.00
C487   C     0.15575   0.45240   0.79107   0.00000  Uiso   1.00
C488   C     0.16656   0.02437   0.74992   0.00000  Uiso   1.00
C489   C     0.16657   0.47579   0.74991   0.00000  Uiso   1.00
C490   C     0.33207   0.31087   0.66937   0.00000  Uiso   1.00
C491   C     0.18741   0.28555   0.55659   0.00000  Uiso   1.00
C492   C     0.30486   0.34605   0.69651   0.00000  Uiso   1.00
C493   C     0.31020   0.39186   0.67483   0.00000  Uiso   1.00
C494   C     0.00404   0.29643   0.84188   0.00000  Uiso   1.00
C495   C     0.05027   0.32730   0.84217   0.00000  Uiso   1.00
C496   C     0.04209   0.37049   0.86840   0.00000  Uiso   1.00
C497   C     0.12892   0.22700   0.94106   0.00000  Uiso   1.00
C498   C     0.18737   0.28472   0.60732   0.00000  Uiso   1.00
C499   C     0.12999   0.22701   0.89047   0.00000  Uiso   1.00
C500   C     0.14573   0.21538   0.60190   0.00000  Uiso   1.00
C501   C     0.20327   0.27302   0.90003   0.00000  Uiso   1.00
C502   C     0.14564   0.21459   0.55113   0.00000  Uiso   1.00
Cu503  Cu    0.16667   0.25000   0.79822   0.00000  Uiso   1.00
Cu504  Cu    0.16667   0.25001   0.70179   0.00000  Uiso   1.00
H505   H     0.20186   0.03070   0.82515   0.00000  Uiso   1.00
H506   H     0.09828   0.20934   0.95504   0.00000  Uiso   1.00
H507   H     0.20372   0.31227   0.62888   0.00000  Uiso   1.00
H508   H     0.10103   0.20883   0.86697   0.00000  Uiso   1.00
H509   H     0.12981   0.18593   0.53106   0.00000  Uiso   1.00
H510   H     0.23471   0.29098   0.97287   0.00000  Uiso   1.00
H511   H     0.31758   0.31321   0.62987   0.00000  Uiso   1.00
H512   H     0.04055   0.31809   0.67307   0.00000  Uiso   1.00
H513   H     0.26367   0.33765   0.69454   0.00000  Uiso   1.00
H514   H     0.32165   0.34703   0.73548   0.00000  Uiso   1.00
H515   H     0.01797   0.40099   0.67661   0.00000  Uiso   1.00
H516   H     0.18694   0.46966   0.67690   0.00000  Uiso   1.00
H517   H     0.29115   0.41656   0.69584   0.00000  Uiso   1.00
H518   H     0.29176   0.39259   0.63630   0.00000  Uiso   1.00
H519   H     0.33296   0.28825   0.88017   0.00000  Uiso   1.00
H520   H     0.30190   0.31440   0.82648   0.00000  Uiso   1.00
H521   H     0.08511   0.31094   0.86093   0.00000  Uiso   1.00
H522   H     0.05649   0.33480   0.80418   0.00000  Uiso   1.00
H523   H     0.00840   0.38826   0.84924   0.00000  Uiso   1.00
H524   H     0.07637   0.39199   0.86902   0.00000  Uiso   1.00
H525   H     0.03586   0.36384   0.90658   0.00000  Uiso   1.00
H526   H     0.12901   0.18799   0.61926   0.00000  Uiso   1.00
H527   H     0.20060   0.11114   0.82545   0.00000  Uiso   1.00
H528   H     0.23218   0.29125   0.88408   0.00000  Uiso   1.00
H529   H     0.18545   0.38937   0.67639   0.00000  Uiso   1.00
H530   H     0.13259   0.11089   0.67445   0.00000  Uiso   1.00
H531   H     0.14833   0.38919   0.82353   0.00000  Uiso   1.00
H532   H     0.13127   0.03043   0.67470   0.00000  Uiso   1.00
H533   H     0.14634   0.46951   0.82298   0.00000  Uiso   1.00
H534   H     0.20311   0.31428   0.54068   0.00000  Uiso   1.00
N535   N     0.16667   0.25001   0.62935   0.00000  Uiso   1.00
N536   N     0.16667   0.24999   0.87066   0.00000  Uiso   1.00
O537   O     0.16667   0.18573   0.79072   0.00000  Uiso   1.00
O538   O     0.01203   0.25625   0.81761   0.00000  Uiso   1.00
O539   O     0.16666   0.31428   0.70929   0.00000  Uiso   1.00
O540   O     0.16667   0.18573   0.70928   0.00000  Uiso   1.00
O541   O     0.16666   0.31427   0.79072   0.00000  Uiso   1.00
O542   O     0.09161   0.25000   0.78132   0.00000  Uiso   1.00
O543   O     0.24172   0.25001   0.71868   0.00000  Uiso   1.00
O544   O     0.09161   0.25000   0.69989   0.00000  Uiso   1.00
O545   O     0.24172   0.25000   0.80012   0.00000  Uiso   1.00
O546   O     0.32160   0.26736   0.68442   0.00000  Uiso   1.00
C547   C     0.49997   0.16496   0.74998   0.00000  Uiso   1.00
C548   C     0.53749   0.27323   0.95089   0.00000  Uiso   1.00
C549   C     0.49986   0.25008   0.52725   0.00000  Uiso   1.00
C550   C     0.49986   0.25012   0.97258   0.00000  Uiso   1.00
C551   C     0.40150   0.25292   0.73774   0.00000  Uiso   1.00
C552   C     0.59858   0.25257   0.76242   0.00000  Uiso   1.00
C553   C     0.34663   0.25969   0.73118   0.00000  Uiso   1.00
C554   C     0.65378   0.25726   0.76997   0.00000  Uiso   1.00
C555   C     0.51919   0.04780   0.79228   0.00000  Uiso   1.00
C556   C     0.51081   0.45247   0.70877   0.00000  Uiso   1.00
C557   C     0.51877   0.09371   0.79241   0.00000  Uiso   1.00
C558   C     0.50003   0.33508   0.75000   0.00000  Uiso   1.00
C559   C     0.51037   0.40658   0.70862   0.00000  Uiso   1.00
C560   C     0.49993   0.11679   0.74995   0.00000  Uiso   1.00
C561   C     0.50004   0.38333   0.74995   0.00000  Uiso   1.00
C562   C     0.48107   0.09357   0.70748   0.00000  Uiso   1.00
C563   C     0.48970   0.40651   0.79125   0.00000  Uiso   1.00
C564   C     0.48061   0.04766   0.70758   0.00000  Uiso   1.00
C565   C     0.48909   0.45240   0.79107   0.00000  Uiso   1.00
C566   C     0.49989   0.02437   0.74992   0.00000  Uiso   1.00
C567   C     0.49990   0.47579   0.74991   0.00000  Uiso   1.00
C568   C     0.66540   0.31087   0.66937   0.00000  Uiso   1.00
C569   C     0.52074   0.28555   0.55659   0.00000  Uiso   1.00
C570   C     0.63819   0.34605   0.69651   0.00000  Uiso   1.00
C571   C     0.64353   0.39186   0.67483   0.00000  Uiso   1.00
C572   C     0.33737   0.29643   0.84188   0.00000  Uiso   1.00
C573   C     0.38361   0.32730   0.84217   0.00000  Uiso   1.00
C574   C     0.37542   0.37049   0.86840   0.00000  Uiso   1.00
C575   C     0.46225   0.22700   0.94106   0.00000  Uiso   1.00
C576   C     0.52070   0.28472   0.60732   0.00000  Uiso   1.00
C577   C     0.46333   0.22701   0.89047   0.00000  Uiso   1.00
C578   C     0.47906   0.21538   0.60190   0.00000  Uiso   1.00
C579   C     0.53660   0.27302   0.90003   0.00000  Uiso   1.00
C580   C     0.47897   0.21459   0.55113   0.00000  Uiso   1.00
Cu581  Cu    0.50000   0.25000   0.79822   0.00000  Uiso   1.00
Cu582  Cu    0.50000   0.25001   0.70179   0.00000  Uiso   1.00
H583   H     0.53520   0.03070   0.82515   0.00000  Uiso   1.00
H584   H     0.43161   0.20934   0.95504   0.00000  Uiso   1.00
H585   H     0.53706   0.31227   0.62888   0.00000  Uiso   1.00
H586   H     0.43436   0.20883   0.86697   0.00000  Uiso   1.00
H587   H     0.46314   0.18593   0.53106   0.00000  Uiso   1.00
H588   H     0.56805   0.29098   0.97287   0.00000  Uiso   1.00
H589   H     0.65091   0.31321   0.62987   0.00000  Uiso   1.00
H590   H     0.37388   0.31809   0.67307   0.00000  Uiso   1.00
H591   H     0.59700   0.33765   0.69454   0.00000  Uiso   1.00
H592   H     0.65498   0.34703   0.73548   0.00000  Uiso   1.00
H593   H     0.35130   0.40099   0.67661   0.00000  Uiso   1.00
H594   H     0.52028   0.46966   0.67690   0.00000  Uiso   1.00
H595   H     0.62448   0.41656   0.69584   0.00000  Uiso   1.00
H596   H     0.62510   0.39259   0.63630   0.00000  Uiso   1.00
H597   H     0.66629   0.28825   0.88017   0.00000  Uiso   1.00
H598   H     0.63524   0.31440   0.82648   0.00000  Uiso   1.00
H599   H     0.41844   0.31094   0.86093   0.00000  Uiso   1.00
H600   H     0.38983   0.33480   0.80418   0.00000  Uiso   1.00
H601   H     0.34173   0.38826   0.84924   0.00000  Uiso   1.00
H602   H     0.40970   0.39199   0.86902   0.00000  Uiso   1.00
H603   H     0.36919   0.36384   0.90658   0.00000  Uiso   1.00
H604   H     0.46234   0.18799   0.61926   0.00000  Uiso   1.00
H605   H     0.53393   0.11114   0.82545   0.00000  Uiso   1.00
H606   H     0.56551   0.29125   0.88408   0.00000  Uiso   1.00
H607   H     0.51878   0.38937   0.67639   0.00000  Uiso   1.00
H608   H     0.46592   0.11089   0.67445   0.00000  Uiso   1.00
H609   H     0.48166   0.38919   0.82353   0.00000  Uiso   1.00
H610   H     0.46461   0.03043   0.67470   0.00000  Uiso   1.00
H611   H     0.47967   0.46951   0.82298   0.00000  Uiso   1.00
H612   H     0.53645   0.31428   0.54068   0.00000  Uiso   1.00
N613   N     0.50000   0.25001   0.62935   0.00000  Uiso   1.00
N614   N     0.50000   0.24999   0.87066   0.00000  Uiso   1.00
O615   O     0.50000   0.18573   0.79072   0.00000  Uiso   1.00
O616   O     0.34536   0.25625   0.81761   0.00000  Uiso   1.00
O617   O     0.50000   0.31428   0.70929   0.00000  Uiso   1.00
O618   O     0.50000   0.18573   0.70928   0.00000  Uiso   1.00
O619   O     0.50000   0.31427   0.79072   0.00000  Uiso   1.00
O620   O     0.42495   0.25000   0.78132   0.00000  Uiso   1.00
O621   O     0.57505   0.25001   0.71868   0.00000  Uiso   1.00
O622   O     0.42495   0.25000   0.69989   0.00000  Uiso   1.00
O623   O     0.57505   0.25000   0.80012   0.00000  Uiso   1.00
O624   O     0.65493   0.26736   0.68442   0.00000  Uiso   1.00
C625   C     0.83330   0.16496   0.74998   0.00000  Uiso   1.00
C626   C     0.87083   0.27323   0.95089   0.00000  Uiso   1.00
C627   C     0.83320   0.25008   0.52725   0.00000  Uiso   1.00
C628   C     0.83319   0.25012   0.97258   0.00000  Uiso   1.00
C629   C     0.73483   0.25292   0.73774   0.00000  Uiso   1.00
C630   C     0.93191   0.25257   0.76242   0.00000  Uiso   1.00
C631   C     0.67996   0.25969   0.73118   0.00000  Uiso   1.00
C632   C     0.98712   0.25726   0.76997   0.00000  Uiso   1.00
C633   C     0.85252   0.04780   0.79228   0.00000  Uiso   1.00
C634   C     0.84414   0.45247   0.70877   0.00000  Uiso   1.00
C635   C     0.85210   0.09371   0.79241   0.00000  Uiso   1.00
C636   C     0.83337   0.33508   0.75000   0.00000  Uiso   1.00
C637   C     0.84370   0.40658   0.70862   0.00000  Uiso   1.00
C638   C     0.83327   0.11679   0.74995   0.00000  Uiso   1.00
C639   C     0.83337   0.38333   0.74995   0.00000  Uiso   1.00
C640   C     0.81441   0.09357   0.70748   0.00000  Uiso   1.00
C641   C     0.82303   0.40651   0.79125   0.00000  Uiso   1.00
C642   C     0.81395   0.04766   0.70758   0.00000  Uiso   1.00
C643   C     0.82242   0.45240   0.79107   0.00000  Uiso   1.00
C644   C     0.83323   0.02437   0.74992   0.00000  Uiso   1.00
C645   C     0.83323   0.47579   0.74991   0.00000  Uiso   1.00
C646   C     0.99873   0.31087   0.66937   0.00000  Uiso   1.00
C647   C     0.85407   0.28555   0.55659   0.00000  Uiso   1.00
C648   C     0.97153   0.34605   0.69651   0.00000  Uiso   1.00
C649   C     0.97686   0.39186   0.67483   0.00000  Uiso   1.00
C650   C     0.67070   0.29643   0.84188   0.00000  Uiso   1.00
C651   C     0.71694   0.32730   0.84217   0.00000  Uiso   1.00
C652   C     0.70875   0.37049   0.86840   0.00000  Uiso   1.00
C653   C     0.79558   0.22700   0.94106   0.00000  Uiso   1.00
C654   C     0.85403   0.28472   0.60732   0.00000  Uiso   1.00
C655   C     0.79666   0.22701   0.89047   0.00000  Uiso   1.00
C656   C     0.81240   0.21538   0.60190   0.00000  Uiso   1.00
C657   C     0.86994   0.27302   0.90003   0.00000  Uiso   1.00
C658   C     0.81231   0.21459   0.55113   0.00000  Uiso   1.00
Cu659  Cu    0.83333   0.25000   0.79822   0.00000  Uiso   1.00
Cu660  Cu    0.83333   0.25001   0.70179   0.00000  Uiso   1.00
H661   H     0.86853   0.03070   0.82515   0.00000  Uiso   1.00
H662   H     0.76495   0.20934   0.95504   0.00000  Uiso   1.00
H663   H     0.87039   0.31227   0.62888   0.00000  Uiso   1.00
H664   H     0.76769   0.20883   0.86697   0.00000  Uiso   1.00
H665   H     0.79648   0.18593   0.53106   0.00000  Uiso   1.00
H666   H     0.90138   0.29098   0.97287   0.00000  Uiso   1.00
H667   H     0.98425   0.31321   0.62987   0.00000  Uiso   1.00
H668   H     0.70721   0.31809   0.67307   0.00000  Uiso   1.00
H669   H     0.93033   0.33765   0.69454   0.00000  Uiso   1.00
H670   H     0.98832   0.34703   0.73548   0.00000  Uiso   1.00
H671   H     0.68464   0.40099   0.67661   0.00000  Uiso   1.00
H672   H     0.85361   0.46966   0.67690   0.00000  Uiso   1.00
H673   H     0.95782   0.41656   0.69584   0.00000  Uiso   1.00
H674   H     0.95843   0.39259   0.63630   0.00000  Uiso   1.00
H675   H     0.99962   0.28825   0.88017   0.00000  Uiso   1.00
H676   H     0.96857   0.31440   0.82648   0.00000  Uiso   1.00
H677   H     0.75177   0.31094   0.86093   0.00000  Uiso   1.00
H678   H     0.72316   0.33480   0.80418   0.00000  Uiso   1.00
H679   H     0.67506   0.38826   0.84924   0.00000  Uiso   1.00
H680   H     0.74303   0.39199   0.86902   0.00000  Uiso   1.00
H681   H     0.70253   0.36384   0.90658   0.00000  Uiso   1.00
H682   H     0.79567   0.18799   0.61926   0.00000  Uiso   1.00
H683   H     0.86727   0.11114   0.82545   0.00000  Uiso   1.00
H684   H     0.89885   0.29125   0.88408   0.00000  Uiso   1.00
H685   H     0.85212   0.38937   0.67639   0.00000  Uiso   1.00
H686   H     0.79925   0.11089   0.67445   0.00000  Uiso   1.00
H687   H     0.81499   0.38919   0.82353   0.00000  Uiso   1.00
H688   H     0.79794   0.03043   0.67470   0.00000  Uiso   1.00
H689   H     0.81300   0.46951   0.82298   0.00000  Uiso   1.00
H690   H     0.86978   0.31428   0.54068   0.00000  Uiso   1.00
N691   N     0.83333   0.25001   0.62935   0.00000  Uiso   1.00
N692   N     0.83333   0.24999   0.87066   0.00000  Uiso   1.00
O693   O     0.83334   0.18573   0.79072   0.00000  Uiso   1.00
O694   O     0.67869   0.25625   0.81761   0.00000  Uiso   1.00
O695   O     0.83333   0.31428   0.70929   0.00000  Uiso   1.00
O696   O     0.83334   0.18573   0.70928   0.00000  Uiso   1.00
O697   O     0.83333   0.31427   0.79072   0.00000  Uiso   1.00
O698   O     0.75828   0.25000   0.78132   0.00000  Uiso   1.00
O699   O     0.90839   0.25001   0.71868   0.00000  Uiso   1.00
O700   O     0.75828   0.25000   0.69989   0.00000  Uiso   1.00
O701   O     0.90839   0.25000   0.80012   0.00000  Uiso   1.00
O702   O     0.98827   0.26736   0.68442   0.00000  Uiso   1.00
C703   C     0.16663   0.66496   0.74998   0.00000  Uiso   1.00
C704   C     0.20416   0.77323   0.95089   0.00000  Uiso   1.00
C705   C     0.16653   0.75008   0.52725   0.00000  Uiso   1.00
C706   C     0.16652   0.75012   0.97258   0.00000  Uiso   1.00
C707   C     0.06817   0.75292   0.73774   0.00000  Uiso   1.00
C708   C     0.26524   0.75257   0.76242   0.00000  Uiso   1.00
C709   C     0.01330   0.75969   0.73118   0.00000  Uiso   1.00
C710   C     0.32045   0.75726   0.76997   0.00000  Uiso   1.00
C711   C     0.18586   0.54780   0.79228   0.00000  Uiso   1.00
C712   C     0.17748   0.95247   0.70877   0.00000  Uiso   1.00
C713   C     0.18543   0.59371   0.79241   0.00000  Uiso   1.00
C714   C     0.16670   0.83508   0.75000   0.00000  Uiso   1.00
C715   C     0.17704   0.90658   0.70862   0.00000  Uiso   1.00
C716   C     0.16660   0.61679   0.74995   0.00000  Uiso   1.00
C717   C     0.16671   0.88333   0.74995   0.00000  Uiso   1.00
C718   C     0.14774   0.59357   0.70748   0.00000  Uiso   1.00
C719   C     0.15637   0.90651   0.79125   0.00000  Uiso   1.00
C720   C     0.14728   0.54766   0.70758   0.00000  Uiso   1.00
C721   C     0.15575   0.95240   0.79107   0.00000  Uiso   1.00
C722   C     0.16656   0.52437   0.74992   0.00000  Uiso   1.00
C723   C     0.16657   0.97579   0.74991   0.00000  Uiso   1.00
C724   C     0.33207   0.81087   0.66937   0.00000  Uiso   1.00
C725   C     0.18741   0.78555   0.55659   0.00000  Uiso   1.00
C726   C     0.30486   0.84605   0.69651   0.00000  Uiso   1.00
C727   C     0.31020   0.89186   0.67483   0.00000  Uiso   1.00
C728   C     0.00404   0.79643   0.84188   0.00000  Uiso   1.00
C729   C     0.05027   0.82730   0.84217   0.00000  Uiso   1.00
C730   C     0.04209   0.87049   0.86840   0.00000  Uiso   1.00
C731   C     0.12892   0.72700   0.94106   0.00000  Uiso   1.00
C732   C     0.18737   0.78472   0.60732   0.00000  Uiso   1.00
C733   C     0.12999   0.72701   0.89047   0.00000  Uiso   1.00
C734   C     0.14573   0.71538   0.60190   0.00000  Uiso   1.00
C735   C     0.20327   0.77302   0.90003   0.00000  Uiso   1.00
C736   C     0.14564   0.71459   0.55113   0.00000  Uiso   1.00
Cu737  Cu    0.16667   0.75000   0.79822   0.00000  Uiso   1.00
Cu738  Cu    0.16667   0.75001   0.70179   0.00000  Uiso   1.00
H739   H     0.20186   0.53070   0.82515   0.00000  Uiso   1.00
H740   H     0.09828   0.70934   0.95504   0.00000  Uiso   1.00
H741   H     0.20372   0.81227   0.62888   0.00000  Uiso   1.00
H742   H     0.10103   0.70883   0.86697   0.00000  Uiso   1.00
H743   H     0.12981   0.68593   0.53106   0.00000  Uiso   1.00
H744   H     0.23471   0.79098   0.97287   0.00000  Uiso   1.00
H745   H     0.31758   0.81321   0.62987   0.00000  Uiso   1.00
H746   H     0.04055   0.81809   0.67307   0.00000  Uiso   1.00
H747   H     0.26367   0.83765   0.69454   0.00000  Uiso   1.00
H748   H     0.32165   0.84703   0.73548   0.00000  Uiso   1.00
H749   H     0.01797   0.90099   0.67661   0.00000  Uiso   1.00
H750   H     0.18694   0.96966   0.67690   0.00000  Uiso   1.00
H751   H     0.29115   0.91656   0.69584   0.00000  Uiso   1.00
H752   H     0.29176   0.89259   0.63630   0.00000  Uiso   1.00
H753   H     0.33296   0.78825   0.88017   0.00000  Uiso   1.00
H754   H     0.30190   0.81440   0.82648   0.00000  Uiso   1.00
H755   H     0.08511   0.81094   0.86093   0.00000  Uiso   1.00
H756   H     0.05649   0.83480   0.80418   0.00000  Uiso   1.00
H757   H     0.00840   0.88826   0.84924   0.00000  Uiso   1.00
H758   H     0.07637   0.89199   0.86902   0.00000  Uiso   1.00
H759   H     0.03586   0.86384   0.90658   0.00000  Uiso   1.00
H760   H     0.12901   0.68799   0.61926   0.00000  Uiso   1.00
H761   H     0.20060   0.61114   0.82545   0.00000  Uiso   1.00
H762   H     0.23218   0.79125   0.88408   0.00000  Uiso   1.00
H763   H     0.18545   0.88937   0.67639   0.00000  Uiso   1.00
H764   H     0.13259   0.61089   0.67445   0.00000  Uiso   1.00
H765   H     0.14833   0.88919   0.82353   0.00000  Uiso   1.00
H766   H     0.13127   0.53043   0.67470   0.00000  Uiso   1.00
H767   H     0.14634   0.96951   0.82298   0.00000  Uiso   1.00
H768   H     0.20311   0.81428   0.54068   0.00000  Uiso   1.00
N769   N     0.16667   0.75001   0.62935   0.00000  Uiso   1.00
N770   N     0.16667   0.74999   0.87066   0.00000  Uiso   1.00
O771   O     0.16667   0.68573   0.79072   0.00000  Uiso   1.00
O772   O     0.01203   0.75625   0.81761   0.00000  Uiso   1.00
O773   O     0.16666   0.81428   0.70929   0.00000  Uiso   1.00
O774   O     0.16667   0.68573   0.70928   0.00000  Uiso   1.00
O775   O     0.16666   0.81427   0.79072   0.00000  Uiso   1.00
O776   O     0.09161   0.75000   0.78132   0.00000  Uiso   1.00
O777   O     0.24172   0.75001   0.71868   0.00000  Uiso   1.00
O778   O     0.09161   0.75000   0.69989   0.00000  Uiso   1.00
O779   O     0.24172   0.75000   0.80012   0.00000  Uiso   1.00
O780   O     0.32160   0.76736   0.68442   0.00000  Uiso   1.00
C781   C     0.49997   0.66496   0.74998   0.00000  Uiso   1.00
C782   C     0.53749   0.77323   0.95089   0.00000  Uiso   1.00
C783   C     0.49986   0.75008   0.52725   0.00000  Uiso   1.00
C784   C     0.49986   0.75012   0.97258   0.00000  Uiso   1.00
C785   C     0.40150   0.75292   0.73774   0.00000  Uiso   1.00
C786   C     0.59858   0.75257   0.76242   0.00000  Uiso   1.00
C787   C     0.34663   0.75969   0.73118   0.00000  Uiso   1.00
C788   C     0.65378   0.75726   0.76997   0.00000  Uiso   1.00
C789   C     0.51919   0.54780   0.79228   0.00000  Uiso   1.00
C790   C     0.51081   0.95247   0.70877   0.00000  Uiso   1.00
C791   C     0.51877   0.59371   0.79241   0.00000  Uiso   1.00
C792   C     0.50003   0.83508   0.75000   0.00000  Uiso   1.00
C793   C     0.51037   0.90658   0.70862   0.00000  Uiso   1.00
C794   C     0.49993   0.61679   0.74995   0.00000  Uiso   1.00
C795   C     0.50004   0.88333   0.74995   0.00000  Uiso   1.00
C796   C     0.48107   0.59357   0.70748   0.00000  Uiso   1.00
C797   C     0.48970   0.90651   0.79125   0.00000  Uiso   1.00
C798   C     0.48061   0.54766   0.70758   0.00000  Uiso   1.00
C799   C     0.48909   0.95240   0.79107   0.00000  Uiso   1.00
C800   C     0.49989   0.52437   0.74992   0.00000  Uiso   1.00
C801   C     0.49990   0.97579   0.74991   0.00000  Uiso   1.00
C802   C     0.66540   0.81087   0.66937   0.00000  Uiso   1.00
C803   C     0.52074   0.78555   0.55659   0.00000  Uiso   1.00
C804   C     0.63819   0.84605   0.69651   0.00000  Uiso   1.00
C805   C     0.64353   0.89186   0.67483   0.00000  Uiso   1.00
C806   C     0.33737   0.79643   0.84188   0.00000  Uiso   1.00
C807   C     0.38361   0.82730   0.84217   0.00000  Uiso   1.00
C808   C     0.37542   0.87049   0.86840   0.00000  Uiso   1.00
C809   C     0.46225   0.72700   0.94106   0.00000  Uiso   1.00
C810   C     0.52070   0.78472   0.60732   0.00000  Uiso   1.00
C811   C     0.46333   0.72701   0.89047   0.00000  Uiso   1.00
C812   C     0.47906   0.71538   0.60190   0.00000  Uiso   1.00
C813   C     0.53660   0.77302   0.90003   0.00000  Uiso   1.00
C814   C     0.47897   0.71459   0.55113   0.00000  Uiso   1.00
Cu815  Cu    0.50000   0.75000   0.79822   0.00000  Uiso   1.00
Cu816  Cu    0.50000   0.75001   0.70179   0.00000  Uiso   1.00
H817   H     0.53520   0.53070   0.82515   0.00000  Uiso   1.00
H818   H     0.43161   0.70934   0.95504   0.00000  Uiso   1.00
H819   H     0.53706   0.81227   0.62888   0.00000  Uiso   1.00
H820   H     0.43436   0.70883   0.86697   0.00000  Uiso   1.00
H821   H     0.46314   0.68593   0.53106   0.00000  Uiso   1.00
H822   H     0.56805   0.79098   0.97287   0.00000  Uiso   1.00
H823   H     0.65091   0.81321   0.62987   0.00000  Uiso   1.00
H824   H     0.37388   0.81809   0.67307   0.00000  Uiso   1.00
H825   H     0.59700   0.83765   0.69454   0.00000  Uiso   1.00
H826   H     0.65498   0.84703   0.73548   0.00000  Uiso   1.00
H827   H     0.35130   0.90099   0.67661   0.00000  Uiso   1.00
H828   H     0.52028   0.96966   0.67690   0.00000  Uiso   1.00
H829   H     0.62448   0.91656   0.69584   0.00000  Uiso   1.00
H830   H     0.62510   0.89259   0.63630   0.00000  Uiso   1.00
H831   H     0.66629   0.78825   0.88017   0.00000  Uiso   1.00
H832   H     0.63524   0.81440   0.82648   0.00000  Uiso   1.00
H833   H     0.41844   0.81094   0.86093   0.00000  Uiso   1.00
H834   H     0.38983   0.83480   0.80418   0.00000  Uiso   1.00
H835   H     0.34173   0.88826   0.84924   0.00000  Uiso   1.00
H836   H     0.40970   0.89199   0.86902   0.00000  Uiso   1.00
H837   H     0.36919   0.86384   0.90658   0.00000  Uiso   1.00
H838   H     0.46234   0.68799   0.61926   0.00000  Uiso   1.00
H839   H     0.53393   0.61114   0.82545   0.00000  Uiso   1.00
H840   H     0.56551   0.79125   0.88408   0.00000  Uiso   1.00
H841   H     0.51878   0.88937   0.67639   0.00000  Uiso   1.00
H842   H     0.46592   0.61089   0.67445   0.00000  Uiso   1.00
H843   H     0.48166   0.88919   0.82353   0.00000  Uiso   1.00
H844   H     0.46461   0.53043   0.67470   0.00000  Uiso   1.00
H845   H     0.47967   0.96951   0.82298   0.00000  Uiso   1.00
H846   H     0.53645   0.81428   0.54068   0.00000  Uiso   1.00
N847   N     0.50000   0.75001   0.62935   0.00000  Uiso   1.00
N848   N     0.50000   0.74999   0.87066   0.00000  Uiso   1.00
O849   O     0.50000   0.68573   0.79072   0.00000  Uiso   1.00
O850   O     0.34536   0.75625   0.81761   0.00000  Uiso   1.00
O851   O     0.50000   0.81428   0.70929   0.00000  Uiso   1.00
O852   O     0.50000   0.68573   0.70928   0.00000  Uiso   1.00
O853   O     0.50000   0.81427   0.79072   0.00000  Uiso   1.00
O854   O     0.42495   0.75000   0.78132   0.00000  Uiso   1.00
O855   O     0.57505   0.75001   0.71868   0.00000  Uiso   1.00
O856   O     0.42495   0.75000   0.69989   0.00000  Uiso   1.00
O857   O     0.57505   0.75000   0.80012   0.00000  Uiso   1.00
O858   O     0.65493   0.76736   0.68442   0.00000  Uiso   1.00
C859   C     0.83330   0.66496   0.74998   0.00000  Uiso   1.00
C860   C     0.87083   0.77323   0.95089   0.00000  Uiso   1.00
C861   C     0.83320   0.75008   0.52725   0.00000  Uiso   1.00
C862   C     0.83319   0.75012   0.97258   0.00000  Uiso   1.00
C863   C     0.73483   0.75292   0.73774   0.00000  Uiso   1.00
C864   C     0.93191   0.75257   0.76242   0.00000  Uiso   1.00
C865   C     0.67996   0.75969   0.73118   0.00000  Uiso   1.00
C866   C     0.98712   0.75726   0.76997   0.00000  Uiso   1.00
C867   C     0.85252   0.54780   0.79228   0.00000  Uiso   1.00
C868   C     0.84414   0.95247   0.70877   0.00000  Uiso   1.00
C869   C     0.85210   0.59371   0.79241   0.00000  Uiso   1.00
C870   C     0.83337   0.83508   0.75000   0.00000  Uiso   1.00
C871   C     0.84370   0.90658   0.70862   0.00000  Uiso   1.00
C872   C     0.83327   0.61679   0.74995   0.00000  Uiso   1.00
C873   C     0.83337   0.88333   0.74995   0.00000  Uiso   1.00
C874   C     0.81441   0.59357   0.70748   0.00000  Uiso   1.00
C875   C     0.82303   0.90651   0.79125   0.00000  Uiso   1.00
C876   C     0.81395   0.54766   0.70758   0.00000  Uiso   1.00
C877   C     0.82242   0.95240   0.79107   0.00000  Uiso   1.00
C878   C     0.83323   0.52437   0.74992   0.00000  Uiso   1.00
C879   C     0.83323   0.97579   0.74991   0.00000  Uiso   1.00
C880   C     0.99873   0.81087   0.66937   0.00000  Uiso   1.00
C881   C     0.85407   0.78555   0.55659   0.00000  Uiso   1.00
C882   C     0.97153   0.84605   0.69651   0.00000  Uiso   1.00
C883   C     0.97686   0.89186   0.67483   0.00000  Uiso   1.00
C884   C     0.67070   0.79643   0.84188   0.00000  Uiso   1.00
C885   C     0.71694   0.82730   0.84217   0.00000  Uiso   1.00
C886   C     0.70875   0.87049   0.86840   0.00000  Uiso   1.00
C887   C     0.79558   0.72700   0.94106   0.00000  Uiso   1.00
C888   C     0.85403   0.78472   0.60732   0.00000  Uiso   1.00
C889   C     0.79666   0.72701   0.89047   0.00000  Uiso   1.00
C890   C     0.81240   0.71538   0.60190   0.00000  Uiso   1.00
C891   C     0.86994   0.77302   0.90003   0.00000  Uiso   1.00
C892   C     0.81231   0.71459   0.55113   0.00000  Uiso   1.00
Cu893  Cu    0.83333   0.75000   0.79822   0.00000  Uiso   1.00
Cu894  Cu    0.83333   0.75001   0.70179   0.00000  Uiso   1.00
H895   H     0.86853   0.53070   0.82515   0.00000  Uiso   1.00
H896   H     0.76495   0.70934   0.95504   0.00000  Uiso   1.00
H897   H     0.87039   0.81227   0.62888   0.00000  Uiso   1.00
H898   H     0.76769   0.70883   0.86697   0.00000  Uiso   1.00
H899   H     0.79648   0.68593   0.53106   0.00000  Uiso   1.00
H900   H     0.90138   0.79098   0.97287   0.00000  Uiso   1.00
H901   H     0.98425   0.81321   0.62987   0.00000  Uiso   1.00
H902   H     0.70721   0.81809   0.67307   0.00000  Uiso   1.00
H903   H     0.93033   0.83765   0.69454   0.00000  Uiso   1.00
H904   H     0.98832   0.84703   0.73548   0.00000  Uiso   1.00
H905   H     0.68464   0.90099   0.67661   0.00000  Uiso   1.00
H906   H     0.85361   0.96966   0.67690   0.00000  Uiso   1.00
H907   H     0.95782   0.91656   0.69584   0.00000  Uiso   1.00
H908   H     0.95843   0.89259   0.63630   0.00000  Uiso   1.00
H909   H     0.99962   0.78825   0.88017   0.00000  Uiso   1.00
H910   H     0.96857   0.81440   0.82648   0.00000  Uiso   1.00
H911   H     0.75177   0.81094   0.86093   0.00000  Uiso   1.00
H912   H     0.72316   0.83480   0.80418   0.00000  Uiso   1.00
H913   H     0.67506   0.88826   0.84924   0.00000  Uiso   1.00
H914   H     0.74303   0.89199   0.86902   0.00000  Uiso   1.00
H915   H     0.70253   0.86384   0.90658   0.00000  Uiso   1.00
H916   H     0.79567   0.68799   0.61926   0.00000  Uiso   1.00
H917   H     0.86727   0.61114   0.82545   0.00000  Uiso   1.00
H918   H     0.89885   0.79125   0.88408   0.00000  Uiso   1.00
H919   H     0.85212   0.88937   0.67639   0.00000  Uiso   1.00
H920   H     0.79925   0.61089   0.67445   0.00000  Uiso   1.00
H921   H     0.81499   0.88919   0.82353   0.00000  Uiso   1.00
H922   H     0.79794   0.53043   0.67470   0.00000  Uiso   1.00
H923   H     0.81300   0.96951   0.82298   0.00000  Uiso   1.00
H924   H     0.86978   0.81428   0.54068   0.00000  Uiso   1.00
N925   N     0.83333   0.75001   0.62935   0.00000  Uiso   1.00
N926   N     0.83333   0.74999   0.87066   0.00000  Uiso   1.00
O927   O     0.83334   0.68573   0.79072   0.00000  Uiso   1.00
O928   O     0.67869   0.75625   0.81761   0.00000  Uiso   1.00
O929   O     0.83333   0.81428   0.70929   0.00000  Uiso   1.00
O930   O     0.83334   0.68573   0.70928   0.00000  Uiso   1.00
O931   O     0.83333   0.81427   0.79072   0.00000  Uiso   1.00
O932   O     0.75828   0.75000   0.78132   0.00000  Uiso   1.00
O933   O     0.90839   0.75001   0.71868   0.00000  Uiso   1.00
O934   O     0.75828   0.75000   0.69989   0.00000  Uiso   1.00
O935   O     0.90839   0.75000   0.80012   0.00000  Uiso   1.00
O936   O     0.98827   0.76736   0.68442   0.00000  Uiso   1.00
loop_
_geom_bond_atom_site_label_1
_geom_bond_atom_site_label_2
_geom_bond_distance
_geom_bond_site_symmetry_2
_ccdc_geom_bond_type
C1     O72     1.291   .     A
C1     O69     1.292   .     A
C1     C14     1.458   .     S
C2     C4      1.411   .     A
C2     C33     1.406   .     A
C2     H42     1.081   .     S
C3     C23     1.410   .     A
C3     C34     1.411   .     A
C3     C472    1.515   1_554 S
C4     C29     1.411   .     A
C4     C471    1.515   .     S
C5     O74     1.282   .     A
C5     C7      1.448   .     S
C5     O76     1.291   .     A
C6     O75     1.285   .     A
C6     O77     1.288   .     A
C6     C8      1.447   .     S
C7     C164    1.356   1_455 S
C7     O234    1.391   1_455 S
C8     C85     1.356   .     S
C8     O148    1.392   .     S
C9     C20     1.404   .     A
C9     H37     1.083   .     S
C9     C11     1.390   .     A
C10    C21     1.404   .     A
C10    H48     1.083   .     S
C10    C13     1.389   .     A
C11    C14     1.401   .     A
C11    H59     1.083   .     S
C12    O73     1.293   .     A
C12    C15     1.461   .     S
C12    O71     1.292   .     A
C13    C15     1.402   .     A
C13    H61     1.083   .     S
C14    C16     1.401   .     A
C15    C17     1.401   .     A
C16    H62     1.083   .     S
C16    C18     1.390   .     A
C17    H63     1.082   .     S
C17    C19     1.389   .     A
C18    C20     1.404   .     A
C18    H64     1.083   .     S
C19    C21     1.404   .     A
C19    H65     1.083   .     S
C20    C255    1.471   1_545 S
C21    C254    1.471   .     S
C22    O78     1.419   .     S
C22    H43     1.111   .     S
C22    C24     1.539   .     S
C22    H122    1.113   .     S
C23    H66     1.081   .     S
C23    C30     1.406   .     A
C24    H45     1.108   .     S
C24    C25     1.525   .     S
C24    H46     1.110   .     S
C25    H50     1.111   .     S
C25    H49     1.110   .     S
C25    H125    1.111   .     S
C26    C27     1.531   .     S
C26    O70     1.420   .     S
C26    H207    1.111   1_455 S
C26    H208    1.116   1_455 S
C27    H54     1.111   .     S
C27    H53     1.110   .     S
C27    C28     1.526   .     S
C28    H56     1.109   .     S
C28    H57     1.111   .     S
C28    H55     1.111   .     S
C29    H38     1.081   .     S
C29    C31     1.406   .     A
C30    N67     1.364   .     A
C30    H39     1.079   .     S
C31    H40     1.081   .     S
C31    N68     1.363   .     A
C32    H58     1.081   .     S
C32    N67     1.364   .     A
C32    C34     1.407   .     A
C33    H60     1.081   .     S
C33    N68     1.363   .     A
C34    H41     1.081   .     S
Cu35   O74     1.969   .     S
Cu35   Cu36    2.672   .     S
Cu35   O77     1.971   .     S
Cu35   O73     1.957   .     S
Cu35   N68     2.007   .     S
Cu35   O69     1.957   .     S
Cu36   O76     1.971   .     S
Cu36   O71     1.957   .     S
Cu36   N67     2.007   .     S
Cu36   O75     1.969   .     S
Cu36   O72     1.957   .     S
H44    C178    1.113   1_455 S
H47    C181    1.111   1_455 S
H51    C104    1.111   .     S
H52    C104    1.116   .     S
O70    C164    1.392   1_455 S
O78    C85     1.391   .     S
C79    O150    1.291   .     A
C79    O147    1.292   .     A
C79    C92     1.458   .     S
C80    C82     1.411   .     A
C80    C111    1.406   .     A
C80    H120    1.081   .     S
C81    C101    1.410   .     A
C81    C112    1.411   .     A
C81    C550    1.515   1_554 S
C82    C107    1.411   .     A
C82    C549    1.515   .     S
C83    O152    1.282   .     A
C83    C85     1.448   .     S
C83    O154    1.291   .     A
C84    O153    1.285   .     A
C84    O155    1.288   .     A
C84    C86     1.447   .     S
C86    C163    1.356   .     S
C86    O226    1.392   .     S
C87    C98     1.404   .     A
C87    H115    1.083   .     S
C87    C89     1.390   .     A
C88    C99     1.404   .     A
C88    H126    1.083   .     S
C88    C91     1.389   .     A
C89    C92     1.401   .     A
C89    H137    1.083   .     S
C90    O151    1.293   .     A
C90    C93     1.461   .     S
C90    O149    1.292   .     A
C91    C93     1.402   .     A
C91    H139    1.083   .     S
C92    C94     1.401   .     A
C93    C95     1.401   .     A
C94    H140    1.083   .     S
C94    C96     1.390   .     A
C95    H141    1.082   .     S
C95    C97     1.389   .     A
C96    C98     1.404   .     A
C96    H142    1.083   .     S
C97    C99     1.404   .     A
C97    H143    1.083   .     S
C98    C333    1.471   1_545 S
C99    C332    1.471   .     S
C100   O156    1.419   .     S
C100   H121    1.111   .     S
C100   C102    1.539   .     S
C100   H200    1.113   .     S
C101   H144    1.081   .     S
C101   C108    1.406   .     A
C102   H123    1.108   .     S
C102   C103    1.525   .     S
C102   H124    1.110   .     S
C103   H128    1.111   .     S
C103   H127    1.110   .     S
C103   H203    1.111   .     S
C104   C105    1.531   .     S
C104   O148    1.420   .     S
C105   H132    1.111   .     S
C105   H131    1.110   .     S
C105   C106    1.526   .     S
C106   H134    1.109   .     S
C106   H135    1.111   .     S
C106   H133    1.111   .     S
C107   H116    1.081   .     S
C107   C109    1.406   .     A
C108   N145    1.364   .     A
C108   H117    1.079   .     S
C109   H118    1.081   .     S
C109   N146    1.363   .     A
C110   H136    1.081   .     S
C110   N145    1.364   .     A
C110   C112    1.407   .     A
C111   H138    1.081   .     S
C111   N146    1.363   .     A
C112   H119    1.081   .     S
Cu113  O152    1.969   .     S
Cu113  Cu114   2.672   .     S
Cu113  O155    1.971   .     S
Cu113  O151    1.957   .     S
Cu113  N146    2.007   .     S
Cu113  O147    1.957   .     S
Cu114  O154    1.971   .     S
Cu114  O149    1.957   .     S
Cu114  N145    2.007   .     S
Cu114  O153    1.969   .     S
Cu114  O150    1.957   .     S
H129   C182    1.111   .     S
H130   C182    1.116   .     S
O156   C163    1.391   .     S
C157   O228    1.291   .     A
C157   O225    1.292   .     A
C157   C170    1.458   .     S
C158   C160    1.411   .     A
C158   C189    1.406   .     A
C158   H198    1.081   .     S
C159   C179    1.410   .     A
C159   C190    1.411   .     A
C159   C628    1.515   1_554 S
C160   C185    1.411   .     A
C160   C627    1.515   .     S
C161   O230    1.282   .     A
C161   C163    1.448   .     S
C161   O232    1.291   .     A
C162   O231    1.285   .     A
C162   O233    1.288   .     A
C162   C164    1.447   .     S
C164   C7      1.356   1_655 S
C164   O70     1.392   1_655 S
C165   C176    1.404   .     A
C165   H193    1.083   .     S
C165   C167    1.390   .     A
C166   C177    1.404   .     A
C166   H204    1.083   .     S
C166   C169    1.389   .     A
C167   C170    1.401   .     A
C167   H215    1.083   .     S
C168   O229    1.293   .     A
C168   C171    1.461   .     S
C168   O227    1.292   .     A
C169   C171    1.402   .     A
C169   H217    1.083   .     S
C170   C172    1.401   .     A
C171   C173    1.401   .     A
C172   H218    1.083   .     S
C172   C174    1.390   .     A
C173   H219    1.082   .     S
C173   C175    1.389   .     A
C174   C176    1.404   .     A
C174   H220    1.083   .     S
C175   C177    1.404   .     A
C175   H221    1.083   .     S
C176   C411    1.471   1_545 S
C177   C410    1.471   .     S
C178   O234    1.419   .     S
C178   H199    1.111   .     S
C178   C180    1.539   .     S
C178   H44     1.113   1_655 S
C179   H222    1.081   .     S
C179   C186    1.406   .     A
C180   H201    1.108   .     S
C180   C181    1.525   .     S
C180   H202    1.110   .     S
C181   H206    1.111   .     S
C181   H205    1.110   .     S
C181   H47     1.111   1_655 S
C182   C183    1.531   .     S
C182   O226    1.420   .     S
C183   H210    1.111   .     S
C183   H209    1.110   .     S
C183   C184    1.526   .     S
C184   H212    1.109   .     S
C184   H213    1.111   .     S
C184   H211    1.111   .     S
C185   H194    1.081   .     S
C185   C187    1.406   .     A
C186   N223    1.364   .     A
C186   H195    1.079   .     S
C187   H196    1.081   .     S
C187   N224    1.363   .     A
C188   H214    1.081   .     S
C188   N223    1.364   .     A
C188   C190    1.407   .     A
C189   H216    1.081   .     S
C189   N224    1.363   .     A
C190   H197    1.081   .     S
Cu191  O230    1.969   .     S
Cu191  Cu192   2.672   .     S
Cu191  O233    1.971   .     S
Cu191  O229    1.957   .     S
Cu191  N224    2.007   .     S
Cu191  O225    1.957   .     S
Cu192  O232    1.971   .     S
Cu192  O227    1.957   .     S
Cu192  N223    2.007   .     S
Cu192  O231    1.969   .     S
Cu192  O228    1.957   .     S
H207   C26     1.111   1_655 S
H208   C26     1.116   1_655 S
O234   C7      1.391   1_655 S
C235   O306    1.291   .     A
C235   O303    1.292   .     A
C235   C248    1.458   .     S
C236   C238    1.411   .     A
C236   C267    1.406   .     A
C236   H276    1.081   .     S
C237   C257    1.410   .     A
C237   C268    1.411   .     A
C237   C706    1.515   1_554 S
C238   C263    1.411   .     A
C238   C705    1.515   .     S
C239   O308    1.282   .     A
C239   C241    1.448   .     S
C239   O310    1.291   .     A
C240   O309    1.285   .     A
C240   O311    1.288   .     A
C240   C242    1.447   .     S
C241   C398    1.356   1_455 S
C241   O468    1.391   1_455 S
C242   C319    1.356   .     S
C242   O382    1.392   .     S
C243   C254    1.404   .     A
C243   H271    1.083   .     S
C243   C245    1.390   .     A
C244   C255    1.404   .     A
C244   H282    1.083   .     S
C244   C247    1.389   .     A
C245   C248    1.401   .     A
C245   H293    1.083   .     S
C246   O307    1.293   .     A
C246   C249    1.461   .     S
C246   O305    1.292   .     A
C247   C249    1.402   .     A
C247   H295    1.083   .     S
C248   C250    1.401   .     A
C249   C251    1.401   .     A
C250   H296    1.083   .     S
C250   C252    1.390   .     A
C251   H297    1.082   .     S
C251   C253    1.389   .     A
C252   C254    1.404   .     A
C252   H298    1.083   .     S
C253   C255    1.404   .     A
C253   H299    1.083   .     S
C255   C20     1.471   1_565 S
C256   O312    1.419   .     S
C256   H277    1.111   .     S
C256   C258    1.539   .     S
C256   H356    1.113   .     S
C257   H300    1.081   .     S
C257   C264    1.406   .     A
C258   H279    1.108   .     S
C258   C259    1.525   .     S
C258   H280    1.110   .     S
C259   H284    1.111   .     S
C259   H283    1.110   .     S
C259   H359    1.111   .     S
C260   C261    1.531   .     S
C260   O304    1.420   .     S
C260   H441    1.111   1_455 S
C260   H442    1.116   1_455 S
C261   H288    1.111   .     S
C261   H287    1.110   .     S
C261   C262    1.526   .     S
C262   H290    1.109   .     S
C262   H291    1.111   .     S
C262   H289    1.111   .     S
C263   H272    1.081   .     S
C263   C265    1.406   .     A
C264   N301    1.364   .     A
C264   H273    1.079   .     S
C265   H274    1.081   .     S
C265   N302    1.363   .     A
C266   H292    1.081   .     S
C266   N301    1.364   .     A
C266   C268    1.407   .     A
C267   H294    1.081   .     S
C267   N302    1.363   .     A
C268   H275    1.081   .     S
Cu269  O308    1.969   .     S
Cu269  Cu270   2.672   .     S
Cu269  O311    1.971   .     S
Cu269  O307    1.957   .     S
Cu269  N302    2.007   .     S
Cu269  O303    1.957   .     S
Cu270  O310    1.971   .     S
Cu270  O305    1.957   .     S
Cu270  N301    2.007   .     S
Cu270  O309    1.969   .     S
Cu270  O306    1.957   .     S
H278   C412    1.113   1_455 S
H281   C415    1.111   1_455 S
H285   C338    1.111   .     S
H286   C338    1.116   .     S
O304   C398    1.392   1_455 S
O312   C319    1.391   .     S
C313   O384    1.291   .     A
C313   O381    1.292   .     A
C313   C326    1.458   .     S
C314   C316    1.411   .     A
C314   C345    1.406   .     A
C314   H354    1.081   .     S
C315   C335    1.410   .     A
C315   C346    1.411   .     A
C315   C784    1.515   1_554 S
C316   C341    1.411   .     A
C316   C783    1.515   .     S
C317   O386    1.282   .     A
C317   C319    1.448   .     S
C317   O388    1.291   .     A
C318   O387    1.285   .     A
C318   O389    1.288   .     A
C318   C320    1.447   .     S
C320   C397    1.356   .     S
C320   O460    1.392   .     S
C321   C332    1.404   .     A
C321   H349    1.083   .     S
C321   C323    1.390   .     A
C322   C333    1.404   .     A
C322   H360    1.083   .     S
C322   C325    1.389   .     A
C323   C326    1.401   .     A
C323   H371    1.083   .     S
C324   O385    1.293   .     A
C324   C327    1.461   .     S
C324   O383    1.292   .     A
C325   C327    1.402   .     A
C325   H373    1.083   .     S
C326   C328    1.401   .     A
C327   C329    1.401   .     A
C328   H374    1.083   .     S
C328   C330    1.390   .     A
C329   H375    1.082   .     S
C329   C331    1.389   .     A
C330   C332    1.404   .     A
C330   H376    1.083   .     S
C331   C333    1.404   .     A
C331   H377    1.083   .     S
C333   C98     1.471   1_565 S
C334   O390    1.419   .     S
C334   H355    1.111   .     S
C334   C336    1.539   .     S
C334   H434    1.113   .     S
C335   H378    1.081   .     S
C335   C342    1.406   .     A
C336   H357    1.108   .     S
C336   C337    1.525   .     S
C336   H358    1.110   .     S
C337   H362    1.111   .     S
C337   H361    1.110   .     S
C337   H437    1.111   .     S
C338   C339    1.531   .     S
C338   O382    1.420   .     S
C339   H366    1.111   .     S
C339   H365    1.110   .     S
C339   C340    1.526   .     S
C340   H368    1.109   .     S
C340   H369    1.111   .     S
C340   H367    1.111   .     S
C341   H350    1.081   .     S
C341   C343    1.406   .     A
C342   N379    1.364   .     A
C342   H351    1.079   .     S
C343   H352    1.081   .     S
C343   N380    1.363   .     A
C344   H370    1.081   .     S
C344   N379    1.364   .     A
C344   C346    1.407   .     A
C345   H372    1.081   .     S
C345   N380    1.363   .     A
C346   H353    1.081   .     S
Cu347  O386    1.969   .     S
Cu347  Cu348   2.672   .     S
Cu347  O389    1.971   .     S
Cu347  O385    1.957   .     S
Cu347  N380    2.007   .     S
Cu347  O381    1.957   .     S
Cu348  O388    1.971   .     S
Cu348  O383    1.957   .     S
Cu348  N379    2.007   .     S
Cu348  O387    1.969   .     S
Cu348  O384    1.957   .     S
H363   C416    1.111   .     S
H364   C416    1.116   .     S
O390   C397    1.391   .     S
C391   O462    1.291   .     A
C391   O459    1.292   .     A
C391   C404    1.458   .     S
C392   C394    1.411   .     A
C392   C423    1.406   .     A
C392   H432    1.081   .     S
C393   C413    1.410   .     A
C393   C424    1.411   .     A
C393   C862    1.515   1_554 S
C394   C419    1.411   .     A
C394   C861    1.515   .     S
C395   O464    1.282   .     A
C395   C397    1.448   .     S
C395   O466    1.291   .     A
C396   O465    1.285   .     A
C396   O467    1.288   .     A
C396   C398    1.447   .     S
C398   C241    1.356   1_655 S
C398   O304    1.392   1_655 S
C399   C410    1.404   .     A
C399   H427    1.083   .     S
C399   C401    1.390   .     A
C400   C411    1.404   .     A
C400   H438    1.083   .     S
C400   C403    1.389   .     A
C401   C404    1.401   .     A
C401   H449    1.083   .     S
C402   O463    1.293   .     A
C402   C405    1.461   .     S
C402   O461    1.292   .     A
C403   C405    1.402   .     A
C403   H451    1.083   .     S
C404   C406    1.401   .     A
C405   C407    1.401   .     A
C406   H452    1.083   .     S
C406   C408    1.390   .     A
C407   H453    1.082   .     S
C407   C409    1.389   .     A
C408   C410    1.404   .     A
C408   H454    1.083   .     S
C409   C411    1.404   .     A
C409   H455    1.083   .     S
C411   C176    1.471   1_565 S
C412   O468    1.419   .     S
C412   H433    1.111   .     S
C412   C414    1.539   .     S
C412   H278    1.113   1_655 S
C413   H456    1.081   .     S
C413   C420    1.406   .     A
C414   H435    1.108   .     S
C414   C415    1.525   .     S
C414   H436    1.110   .     S
C415   H440    1.111   .     S
C415   H439    1.110   .     S
C415   H281    1.111   1_655 S
C416   C417    1.531   .     S
C416   O460    1.420   .     S
C417   H444    1.111   .     S
C417   H443    1.110   .     S
C417   C418    1.526   .     S
C418   H446    1.109   .     S
C418   H447    1.111   .     S
C418   H445    1.111   .     S
C419   H428    1.081   .     S
C419   C421    1.406   .     A
C420   N457    1.364   .     A
C420   H429    1.079   .     S
C421   H430    1.081   .     S
C421   N458    1.363   .     A
C422   H448    1.081   .     S
C422   N457    1.364   .     A
C422   C424    1.407   .     A
C423   H450    1.081   .     S
C423   N458    1.363   .     A
C424   H431    1.081   .     S
Cu425  O464    1.969   .     S
Cu425  Cu426   2.672   .     S
Cu425  O467    1.971   .     S
Cu425  O463    1.957   .     S
Cu425  N458    2.007   .     S
Cu425  O459    1.957   .     S
Cu426  O466    1.971   .     S
Cu426  O461    1.957   .     S
Cu426  N457    2.007   .     S
Cu426  O465    1.969   .     S
Cu426  O462    1.957   .     S
H441   C260    1.111   1_655 S
H442   C260    1.116   1_655 S
O468   C241    1.391   1_655 S
C469   O540    1.291   .     A
C469   O537    1.292   .     A
C469   C482    1.458   .     S
C470   C472    1.411   .     A
C470   C501    1.406   .     A
C470   H510    1.081   .     S
C471   C491    1.410   .     A
C471   C502    1.411   .     A
C472   C497    1.411   .     A
C472   C3      1.515   1_556 S
C473   O542    1.282   .     A
C473   C475    1.448   .     S
C473   O544    1.291   .     A
C474   O543    1.285   .     A
C474   O545    1.288   .     A
C474   C476    1.447   .     S
C475   C632    1.356   1_455 S
C475   O702    1.391   1_455 S
C476   C553    1.356   .     S
C476   O616    1.392   .     S
C477   C488    1.404   .     A
C477   H505    1.083   .     S
C477   C479    1.390   .     A
C478   C489    1.404   .     A
C478   H516    1.083   .     S
C478   C481    1.389   .     A
C479   C482    1.401   .     A
C479   H527    1.083   .     S
C480   O541    1.293   .     A
C480   C483    1.461   .     S
C480   O539    1.292   .     A
C481   C483    1.402   .     A
C481   H529    1.083   .     S
C482   C484    1.401   .     A
C483   C485    1.401   .     A
C484   H530    1.083   .     S
C484   C486    1.390   .     A
C485   H531    1.082   .     S
C485   C487    1.389   .     A
C486   C488    1.404   .     A
C486   H532    1.083   .     S
C487   C489    1.404   .     A
C487   H533    1.083   .     S
C488   C723    1.471   1_545 S
C489   C722    1.471   .     S
C490   O546    1.419   .     S
C490   H511    1.111   .     S
C490   C492    1.539   .     S
C490   H590    1.113   .     S
C491   H534    1.081   .     S
C491   C498    1.406   .     A
C492   H513    1.108   .     S
C492   C493    1.525   .     S
C492   H514    1.110   .     S
C493   H518    1.111   .     S
C493   H517    1.110   .     S
C493   H593    1.111   .     S
C494   C495    1.531   .     S
C494   O538    1.420   .     S
C494   H675    1.111   1_455 S
C494   H676    1.116   1_455 S
C495   H522    1.111   .     S
C495   H521    1.110   .     S
C495   C496    1.526   .     S
C496   H524    1.109   .     S
C496   H525    1.111   .     S
C496   H523    1.111   .     S
C497   H506    1.081   .     S
C497   C499    1.406   .     A
C498   N535    1.364   .     A
C498   H507    1.079   .     S
C499   H508    1.081   .     S
C499   N536    1.363   .     A
C500   H526    1.081   .     S
C500   N535    1.364   .     A
C500   C502    1.407   .     A
C501   H528    1.081   .     S
C501   N536    1.363   .     A
C502   H509    1.081   .     S
Cu503  O542    1.969   .     S
Cu503  Cu504   2.672   .     S
Cu503  O545    1.971   .     S
Cu503  O541    1.957   .     S
Cu503  N536    2.007   .     S
Cu503  O537    1.957   .     S
Cu504  O544    1.971   .     S
Cu504  O539    1.957   .     S
Cu504  N535    2.007   .     S
Cu504  O543    1.969   .     S
Cu504  O540    1.957   .     S
H512   C646    1.113   1_455 S
H515   C649    1.111   1_455 S
H519   C572    1.111   .     S
H520   C572    1.116   .     S
O538   C632    1.392   1_455 S
O546   C553    1.391   .     S
C547   O618    1.291   .     A
C547   O615    1.292   .     A
C547   C560    1.458   .     S
C548   C550    1.411   .     A
C548   C579    1.406   .     A
C548   H588    1.081   .     S
C549   C569    1.410   .     A
C549   C580    1.411   .     A
C550   C575    1.411   .     A
C550   C81     1.515   1_556 S
C551   O620    1.282   .     A
C551   C553    1.448   .     S
C551   O622    1.291   .     A
C552   O621    1.285   .     A
C552   O623    1.288   .     A
C552   C554    1.447   .     S
C554   C631    1.356   .     S
C554   O694    1.392   .     S
C555   C566    1.404   .     A
C555   H583    1.083   .     S
C555   C557    1.390   .     A
C556   C567    1.404   .     A
C556   H594    1.083   .     S
C556   C559    1.389   .     A
C557   C560    1.401   .     A
C557   H605    1.083   .     S
C558   O619    1.293   .     A
C558   C561    1.461   .     S
C558   O617    1.292   .     A
C559   C561    1.402   .     A
C559   H607    1.083   .     S
C560   C562    1.401   .     A
C561   C563    1.401   .     A
C562   H608    1.083   .     S
C562   C564    1.390   .     A
C563   H609    1.082   .     S
C563   C565    1.389   .     A
C564   C566    1.404   .     A
C564   H610    1.083   .     S
C565   C567    1.404   .     A
C565   H611    1.083   .     S
C566   C801    1.471   1_545 S
C567   C800    1.471   .     S
C568   O624    1.419   .     S
C568   H589    1.111   .     S
C568   C570    1.539   .     S
C568   H668    1.113   .     S
C569   H612    1.081   .     S
C569   C576    1.406   .     A
C570   H591    1.108   .     S
C570   C571    1.525   .     S
C570   H592    1.110   .     S
C571   H596    1.111   .     S
C571   H595    1.110   .     S
C571   H671    1.111   .     S
C572   C573    1.531   .     S
C572   O616    1.420   .     S
C573   H600    1.111   .     S
C573   H599    1.110   .     S
C573   C574    1.526   .     S
C574   H602    1.109   .     S
C574   H603    1.111   .     S
C574   H601    1.111   .     S
C575   H584    1.081   .     S
C575   C577    1.406   .     A
C576   N613    1.364   .     A
C576   H585    1.079   .     S
C577   H586    1.081   .     S
C577   N614    1.363   .     A
C578   H604    1.081   .     S
C578   N613    1.364   .     A
C578   C580    1.407   .     A
C579   H606    1.081   .     S
C579   N614    1.363   .     A
C580   H587    1.081   .     S
Cu581  O620    1.969   .     S
Cu581  Cu582   2.672   .     S
Cu581  O623    1.971   .     S
Cu581  O619    1.957   .     S
Cu581  N614    2.007   .     S
Cu581  O615    1.957   .     S
Cu582  O622    1.971   .     S
Cu582  O617    1.957   .     S
Cu582  N613    2.007   .     S
Cu582  O621    1.969   .     S
Cu582  O618    1.957   .     S
H597   C650    1.111   .     S
H598   C650    1.116   .     S
O624   C631    1.391   .     S
C625   O696    1.291   .     A
C625   O693    1.292   .     A
C625   C638    1.458   .     S
C626   C628    1.411   .     A
C626   C657    1.406   .     A
C626   H666    1.081   .     S
C627   C647    1.410   .     A
C627   C658    1.411   .     A
C628   C653    1.411   .     A
C628   C159    1.515   1_556 S
C629   O698    1.282   .     A
C629   C631    1.448   .     S
C629   O700    1.291   .     A
C630   O699    1.285   .     A
C630   O701    1.288   .     A
C630   C632    1.447   .     S
C632   C475    1.356   1_655 S
C632   O538    1.392   1_655 S
C633   C644    1.404   .     A
C633   H661    1.083   .     S
C633   C635    1.390   .     A
C634   C645    1.404   .     A
C634   H672    1.083   .     S
C634   C637    1.389   .     A
C635   C638    1.401   .     A
C635   H683    1.083   .     S
C636   O697    1.293   .     A
C636   C639    1.461   .     S
C636   O695    1.292   .     A
C637   C639    1.402   .     A
C637   H685    1.083   .     S
C638   C640    1.401   .     A
C639   C641    1.401   .     A
C640   H686    1.083   .     S
C640   C642    1.390   .     A
C641   H687    1.082   .     S
C641   C643    1.389   .     A
C642   C644    1.404   .     A
C642   H688    1.083   .     S
C643   C645    1.404   .     A
C643   H689    1.083   .     S
C644   C879    1.471   1_545 S
C645   C878    1.471   .     S
C646   O702    1.419   .     S
C646   H667    1.111   .     S
C646   C648    1.539   .     S
C646   H512    1.113   1_655 S
C647   H690    1.081   .     S
C647   C654    1.406   .     A
C648   H669    1.108   .     S
C648   C649    1.525   .     S
C648   H670    1.110   .     S
C649   H674    1.111   .     S
C649   H673    1.110   .     S
C649   H515    1.111   1_655 S
C650   C651    1.531   .     S
C650   O694    1.420   .     S
C651   H678    1.111   .     S
C651   H677    1.110   .     S
C651   C652    1.526   .     S
C652   H680    1.109   .     S
C652   H681    1.111   .     S
C652   H679    1.111   .     S
C653   H662    1.081   .     S
C653   C655    1.406   .     A
C654   N691    1.364   .     A
C654   H663    1.079   .     S
C655   H664    1.081   .     S
C655   N692    1.363   .     A
C656   H682    1.081   .     S
C656   N691    1.364   .     A
C656   C658    1.407   .     A
C657   H684    1.081   .     S
C657   N692    1.363   .     A
C658   H665    1.081   .     S
Cu659  O698    1.969   .     S
Cu659  Cu660   2.672   .     S
Cu659  O701    1.971   .     S
Cu659  O697    1.957   .     S
Cu659  N692    2.007   .     S
Cu659  O693    1.957   .     S
Cu660  O700    1.971   .     S
Cu660  O695    1.957   .     S
Cu660  N691    2.007   .     S
Cu660  O699    1.969   .     S
Cu660  O696    1.957   .     S
H675   C494    1.111   1_655 S
H676   C494    1.116   1_655 S
O702   C475    1.391   1_655 S
C703   O774    1.291   .     A
C703   O771    1.292   .     A
C703   C716    1.458   .     S
C704   C706    1.411   .     A
C704   C735    1.406   .     A
C704   H744    1.081   .     S
C705   C725    1.410   .     A
C705   C736    1.411   .     A
C706   C731    1.411   .     A
C706   C237    1.515   1_556 S
C707   O776    1.282   .     A
C707   C709    1.448   .     S
C707   O778    1.291   .     A
C708   O777    1.285   .     A
C708   O779    1.288   .     A
C708   C710    1.447   .     S
C709   C866    1.356   1_455 S
C709   O936    1.391   1_455 S
C710   C787    1.356   .     S
C710   O850    1.392   .     S
C711   C722    1.404   .     A
C711   H739    1.083   .     S
C711   C713    1.390   .     A
C712   C723    1.404   .     A
C712   H750    1.083   .     S
C712   C715    1.389   .     A
C713   C716    1.401   .     A
C713   H761    1.083   .     S
C714   O775    1.293   .     A
C714   C717    1.461   .     S
C714   O773    1.292   .     A
C715   C717    1.402   .     A
C715   H763    1.083   .     S
C716   C718    1.401   .     A
C717   C719    1.401   .     A
C718   H764    1.083   .     S
C718   C720    1.390   .     A
C719   H765    1.082   .     S
C719   C721    1.389   .     A
C720   C722    1.404   .     A
C720   H766    1.083   .     S
C721   C723    1.404   .     A
C721   H767    1.083   .     S
C723   C488    1.471   1_565 S
C724   O780    1.419   .     S
C724   H745    1.111   .     S
C724   C726    1.539   .     S
C724   H824    1.113   .     S
C725   H768    1.081   .     S
C725   C732    1.406   .     A
C726   H747    1.108   .     S
C726   C727    1.525   .     S
C726   H748    1.110   .     S
C727   H752    1.111   .     S
C727   H751    1.110   .     S
C727   H827    1.111   .     S
C728   C729    1.531   .     S
C728   O772    1.420   .     S
C728   H909    1.111   1_455 S
C728   H910    1.116   1_455 S
C729   H756    1.111   .     S
C729   H755    1.110   .     S
C729   C730    1.526   .     S
C730   H758    1.109   .     S
C730   H759    1.111   .     S
C730   H757    1.111   .     S
C731   H740    1.081   .     S
C731   C733    1.406   .     A
C732   N769    1.364   .     A
C732   H741    1.079   .     S
C733   H742    1.081   .     S
C733   N770    1.363   .     A
C734   H760    1.081   .     S
C734   N769    1.364   .     A
C734   C736    1.407   .     A
C735   H762    1.081   .     S
C735   N770    1.363   .     A
C736   H743    1.081   .     S
Cu737  O776    1.969   .     S
Cu737  Cu738   2.672   .     S
Cu737  O779    1.971   .     S
Cu737  O775    1.957   .     S
Cu737  N770    2.007   .     S
Cu737  O771    1.957   .     S
Cu738  O778    1.971   .     S
Cu738  O773    1.957   .     S
Cu738  N769    2.007   .     S
Cu738  O777    1.969   .     S
Cu738  O774    1.957   .     S
H746   C880    1.113   1_455 S
H749   C883    1.111   1_455 S
H753   C806    1.111   .     S
H754   C806    1.116   .     S
O772   C866    1.392   1_455 S
O780   C787    1.391   .     S
C781   O852    1.291   .     A
C781   O849    1.292   .     A
C781   C794    1.458   .     S
C782   C784    1.411   .     A
C782   C813    1.406   .     A
C782   H822    1.081   .     S
C783   C803    1.410   .     A
C783   C814    1.411   .     A
C784   C809    1.411   .     A
C784   C315    1.515   1_556 S
C785   O854    1.282   .     A
C785   C787    1.448   .     S
C785   O856    1.291   .     A
C786   O855    1.285   .     A
C786   O857    1.288   .     A
C786   C788    1.447   .     S
C788   C865    1.356   .     S
C788   O928    1.392   .     S
C789   C800    1.404   .     A
C789   H817    1.083   .     S
C789   C791    1.390   .     A
C790   C801    1.404   .     A
C790   H828    1.083   .     S
C790   C793    1.389   .     A
C791   C794    1.401   .     A
C791   H839    1.083   .     S
C792   O853    1.293   .     A
C792   C795    1.461   .     S
C792   O851    1.292   .     A
C793   C795    1.402   .     A
C793   H841    1.083   .     S
C794   C796    1.401   .     A
C795   C797    1.401   .     A
C796   H842    1.083   .     S
C796   C798    1.390   .     A
C797   H843    1.082   .     S
C797   C799    1.389   .     A
C798   C800    1.404   .     A
C798   H844    1.083   .     S
C799   C801    1.404   .     A
C799   H845    1.083   .     S
C801   C566    1.471   1_565 S
C802   O858    1.419   .     S
C802   H823    1.111   .     S
C802   C804    1.539   .     S
C802   H902    1.113   .     S
C803   H846    1.081   .     S
C803   C810    1.406   .     A
C804   H825    1.108   .     S
C804   C805    1.525   .     S
C804   H826    1.110   .     S
C805   H830    1.111   .     S
C805   H829    1.110   .     S
C805   H905    1.111   .     S
C806   C807    1.531   .     S
C806   O850    1.420   .     S
C807   H834    1.111   .     S
C807   H833    1.110   .     S
C807   C808    1.526   .     S
C808   H836    1.109   .     S
C808   H837    1.111   .     S
C808   H835    1.111   .     S
C809   H818    1.081   .     S
C809   C811    1.406   .     A
C810   N847    1.364   .     A
C810   H819    1.079   .     S
C811   H820    1.081   .     S
C811   N848    1.363   .     A
C812   H838    1.081   .     S
C812   N847    1.364   .     A
C812   C814    1.407   .     A
C813   H840    1.081   .     S
C813   N848    1.363   .     A
C814   H821    1.081   .     S
Cu815  O854    1.969   .     S
Cu815  Cu816   2.672   .     S
Cu815  O857    1.971   .     S
Cu815  O853    1.957   .     S
Cu815  N848    2.007   .     S
Cu815  O849    1.957   .     S
Cu816  O856    1.971   .     S
Cu816  O851    1.957   .     S
Cu816  N847    2.007   .     S
Cu816  O855    1.969   .     S
Cu816  O852    1.957   .     S
H831   C884    1.111   .     S
H832   C884    1.116   .     S
O858   C865    1.391   .     S
C859   O930    1.291   .     A
C859   O927    1.292   .     A
C859   C872    1.458   .     S
C860   C862    1.411   .     A
C860   C891    1.406   .     A
C860   H900    1.081   .     S
C861   C881    1.410   .     A
C861   C892    1.411   .     A
C862   C887    1.411   .     A
C862   C393    1.515   1_556 S
C863   O932    1.282   .     A
C863   C865    1.448   .     S
C863   O934    1.291   .     A
C864   O933    1.285   .     A
C864   O935    1.288   .     A
C864   C866    1.447   .     S
C866   C709    1.356   1_655 S
C866   O772    1.392   1_655 S
C867   C878    1.404   .     A
C867   H895    1.083   .     S
C867   C869    1.390   .     A
C868   C879    1.404   .     A
C868   H906    1.083   .     S
C868   C871    1.389   .     A
C869   C872    1.401   .     A
C869   H917    1.083   .     S
C870   O931    1.293   .     A
C870   C873    1.461   .     S
C870   O929    1.292   .     A
C871   C873    1.402   .     A
C871   H919    1.083   .     S
C872   C874    1.401   .     A
C873   C875    1.401   .     A
C874   H920    1.083   .     S
C874   C876    1.390   .     A
C875   H921    1.082   .     S
C875   C877    1.389   .     A
C876   C878    1.404   .     A
C876   H922    1.083   .     S
C877   C879    1.404   .     A
C877   H923    1.083   .     S
C879   C644    1.471   1_565 S
C880   O936    1.419   .     S
C880   H901    1.111   .     S
C880   C882    1.539   .     S
C880   H746    1.113   1_655 S
C881   H924    1.081   .     S
C881   C888    1.406   .     A
C882   H903    1.108   .     S
C882   C883    1.525   .     S
C882   H904    1.110   .     S
C883   H908    1.111   .     S
C883   H907    1.110   .     S
C883   H749    1.111   1_655 S
C884   C885    1.531   .     S
C884   O928    1.420   .     S
C885   H912    1.111   .     S
C885   H911    1.110   .     S
C885   C886    1.526   .     S
C886   H914    1.109   .     S
C886   H915    1.111   .     S
C886   H913    1.111   .     S
C887   H896    1.081   .     S
C887   C889    1.406   .     A
C888   N925    1.364   .     A
C888   H897    1.079   .     S
C889   H898    1.081   .     S
C889   N926    1.363   .     A
C890   H916    1.081   .     S
C890   N925    1.364   .     A
C890   C892    1.407   .     A
C891   H918    1.081   .     S
C891   N926    1.363   .     A
C892   H899    1.081   .     S
Cu893  O932    1.969   .     S
Cu893  Cu894   2.672   .     S
Cu893  O935    1.971   .     S
Cu893  O931    1.957   .     S
Cu893  N926    2.007   .     S
Cu893  O927    1.957   .     S
Cu894  O934    1.971   .     S
Cu894  O929    1.957   .     S
Cu894  N925    2.007   .     S
Cu894  O933    1.969   .     S
Cu894  O930    1.957   .     S
H909   C728    1.111   1_655 S
H910   C728    1.116   1_655 S
O936   C709    1.391   1_655 S
