data_str_m2_o10_o18_pcu_sym.103
_audit_creation_date              2020-01-03
_audit_creation_method            'Materials Studio'
_symmetry_space_group_name_H-M    'P1'
_symmetry_Int_Tables_number       1
_symmetry_cell_setting            triclinic
loop_
_symmetry_equiv_pos_as_xyz
  x,y,z
_cell_length_a                    22.7851
_cell_length_b                    26.1294
_cell_length_c                    31.6573
_cell_angle_alpha                 97.7079
_cell_angle_beta                  75.3338
_cell_angle_gamma                 104.0635
loop_
_atom_site_label
_atom_site_type_symbol
_atom_site_fract_x
_atom_site_fract_y
_atom_site_fract_z
_atom_site_U_iso_or_equiv
_atom_site_adp_type
_atom_site_occupancy
C1     C     0.18185   0.26669   0.25146   0.00000  Uiso   1.00
C2     C     0.15152   0.06664   0.24848   0.00000  Uiso   1.00
C3     C     0.09235   0.14211   0.03974   0.00000  Uiso   1.00
C4     C     0.23721   0.20738   0.46407   0.00000  Uiso   1.00
C5     C     0.05019   0.12999   0.01314   0.00000  Uiso   1.00
C6     C     0.27907   0.22043   0.49090   0.00000  Uiso   1.00
C7     C     0.18984   0.32305   0.25228   0.00000  Uiso   1.00
C8     C     0.14360   0.01027   0.24753   0.00000  Uiso   1.00
C9     C     0.12865   0.16304   0.33285   0.00000  Uiso   1.00
C10    C     0.20470   0.17068   0.16723   0.00000  Uiso   1.00
C11    C     0.10615   0.15866   0.38028   0.00000  Uiso   1.00
C12    C     0.22721   0.17822   0.12033   0.00000  Uiso   1.00
C13    C     0.02555   0.12785   0.44307   0.00000  Uiso   1.00
C14    C     0.30478   0.21917   0.06008   0.00000  Uiso   1.00
C15    C     0.04389   0.13688   0.39880   0.00000  Uiso   1.00
C16    C     0.28774   0.20570   0.10327   0.00000  Uiso   1.00
C17    C     0.14916   0.17347   0.40682   0.00000  Uiso   1.00
C18    C     0.18475   0.16268   0.09347   0.00000  Uiso   1.00
C19    C     0.13180   0.16550   0.45176   0.00000  Uiso   1.00
C20    C     0.19986   0.17758   0.05030   0.00000  Uiso   1.00
C21    C     0.06904   0.14117   0.46943   0.00000  Uiso   1.00
C22    C     0.26140   0.20564   0.03363   0.00000  Uiso   1.00
C23    C     0.17521   0.17953   0.47921   0.00000  Uiso   1.00
C24    C     0.15567   0.16589   0.02350   0.00000  Uiso   1.00
Cu25   Cu    0.10737   0.16108   0.24517   0.00000  Uiso   1.00
Cu26   Cu    0.22596   0.17225   0.25484   0.00000  Uiso   1.00
H27    H     0.00219   0.11173   0.02705   0.00000  Uiso   1.00
H28    H     0.32593   0.24208   0.47790   0.00000  Uiso   1.00
H29    H     0.13987   0.13923   0.10747   0.00000  Uiso   1.00
H30    H     0.19651   0.18964   0.39108   0.00000  Uiso   1.00
H31    H     0.32117   0.21821   0.12362   0.00000  Uiso   1.00
H32    H     0.00991   0.12513   0.37884   0.00000  Uiso   1.00
H33    H     0.31073   0.10976   0.45664   0.00000  Uiso   1.00
H34    H     0.01841   0.24086   0.04747   0.00000  Uiso   1.00
H35    H     0.07301   0.13335   0.07332   0.00000  Uiso   1.00
H36    H     0.25497   0.22103   0.43180   0.00000  Uiso   1.00
H37    H     0.23392   0.01437   0.25694   0.00000  Uiso   1.00
H38    H     0.09953   0.31896   0.24285   0.00000  Uiso   1.00
N39    N     0.31506   0.18068   0.26212   0.00000  Uiso   1.00
N40    N     0.01827   0.15265   0.23788   0.00000  Uiso   1.00
O41    O     0.12815   0.23809   0.24686   0.00000  Uiso   1.00
O42    O     0.20518   0.09524   0.25314   0.00000  Uiso   1.00
O43    O     0.22829   0.24753   0.25503   0.00000  Uiso   1.00
O44    O     0.10504   0.08580   0.24498   0.00000  Uiso   1.00
O45    O     0.08851   0.15930   0.30855   0.00000  Uiso   1.00
O46    O     0.24482   0.17403   0.19146   0.00000  Uiso   1.00
O47    O     0.18866   0.16874   0.31671   0.00000  Uiso   1.00
O48    O     0.14468   0.16460   0.18329   0.00000  Uiso   1.00
C49    C     0.32916   0.20903   0.30263   0.00000  Uiso   1.00
C50    C     0.30803   0.26177   0.31313   0.00000  Uiso   1.00
C51    C     0.00377   0.29679   0.34857   0.00000  Uiso   1.00
H52    H     0.32623   0.27550   0.37861   0.00000  Uiso   1.00
H53    H     0.05505   0.30852   0.33674   0.00000  Uiso   1.00
H54    H     0.31836   0.33326   0.35684   0.00000  Uiso   1.00
H55    H     0.32260   0.28393   0.28326   0.00000  Uiso   1.00
H56    H     0.25698   0.25487   0.32530   0.00000  Uiso   1.00
H57    H     0.30736   0.18345   0.33026   0.00000  Uiso   1.00
H58    H     0.04500   0.22132   0.30033   0.00000  Uiso   1.00
C59    C     0.00433   0.12470   0.19719   0.00000  Uiso   1.00
C60    C     0.02617   0.07228   0.18598   0.00000  Uiso   1.00
C61    C     0.33240   0.03853   0.14918   0.00000  Uiso   1.00
H62    H     0.28090   0.02715   0.15954   0.00000  Uiso   1.00
H63    H     0.01231   0.06064   0.11938   0.00000  Uiso   1.00
H64    H     0.01735   0.00182   0.14106   0.00000  Uiso   1.00
H65    H     0.07732   0.07948   0.17474   0.00000  Uiso   1.00
H66    H     0.01070   0.04907   0.21530   0.00000  Uiso   1.00
H67    H     0.28845   0.11191   0.19962   0.00000  Uiso   1.00
H68    H     0.02565   0.15078   0.16983   0.00000  Uiso   1.00
C69    C     0.51518   0.26669   0.25146   0.00000  Uiso   1.00
C70    C     0.48485   0.06664   0.24848   0.00000  Uiso   1.00
C71    C     0.42569   0.14211   0.03974   0.00000  Uiso   1.00
C72    C     0.57054   0.20738   0.46407   0.00000  Uiso   1.00
C73    C     0.38352   0.12999   0.01314   0.00000  Uiso   1.00
C74    C     0.61240   0.22043   0.49090   0.00000  Uiso   1.00
C75    C     0.52317   0.32305   0.25228   0.00000  Uiso   1.00
C76    C     0.47693   0.01027   0.24753   0.00000  Uiso   1.00
C77    C     0.46198   0.16304   0.33285   0.00000  Uiso   1.00
C78    C     0.53804   0.17068   0.16723   0.00000  Uiso   1.00
C79    C     0.43949   0.15866   0.38028   0.00000  Uiso   1.00
C80    C     0.56055   0.17822   0.12033   0.00000  Uiso   1.00
C81    C     0.35888   0.12785   0.44307   0.00000  Uiso   1.00
C82    C     0.63812   0.21917   0.06008   0.00000  Uiso   1.00
C83    C     0.37722   0.13688   0.39880   0.00000  Uiso   1.00
C84    C     0.62107   0.20570   0.10327   0.00000  Uiso   1.00
C85    C     0.48249   0.17347   0.40682   0.00000  Uiso   1.00
C86    C     0.51808   0.16268   0.09347   0.00000  Uiso   1.00
C87    C     0.46513   0.16550   0.45176   0.00000  Uiso   1.00
C88    C     0.53320   0.17758   0.05030   0.00000  Uiso   1.00
C89    C     0.40237   0.14117   0.46943   0.00000  Uiso   1.00
C90    C     0.59473   0.20564   0.03363   0.00000  Uiso   1.00
C91    C     0.50854   0.17953   0.47921   0.00000  Uiso   1.00
C92    C     0.48900   0.16589   0.02350   0.00000  Uiso   1.00
Cu93   Cu    0.44071   0.16108   0.24517   0.00000  Uiso   1.00
Cu94   Cu    0.55929   0.17225   0.25484   0.00000  Uiso   1.00
H95    H     0.33553   0.11173   0.02705   0.00000  Uiso   1.00
H96    H     0.65927   0.24208   0.47790   0.00000  Uiso   1.00
H97    H     0.47321   0.13923   0.10747   0.00000  Uiso   1.00
H98    H     0.52985   0.18964   0.39108   0.00000  Uiso   1.00
H99    H     0.65450   0.21821   0.12362   0.00000  Uiso   1.00
H100   H     0.34325   0.12513   0.37884   0.00000  Uiso   1.00
H101   H     0.64407   0.10976   0.45664   0.00000  Uiso   1.00
H102   H     0.35175   0.24086   0.04747   0.00000  Uiso   1.00
H103   H     0.40635   0.13335   0.07332   0.00000  Uiso   1.00
H104   H     0.58830   0.22103   0.43180   0.00000  Uiso   1.00
H105   H     0.56726   0.01437   0.25694   0.00000  Uiso   1.00
H106   H     0.43286   0.31896   0.24285   0.00000  Uiso   1.00
N107   N     0.64839   0.18068   0.26212   0.00000  Uiso   1.00
N108   N     0.35161   0.15265   0.23788   0.00000  Uiso   1.00
O109   O     0.46148   0.23809   0.24686   0.00000  Uiso   1.00
O110   O     0.53852   0.09524   0.25314   0.00000  Uiso   1.00
O111   O     0.56163   0.24753   0.25503   0.00000  Uiso   1.00
O112   O     0.43837   0.08580   0.24498   0.00000  Uiso   1.00
O113   O     0.42185   0.15930   0.30855   0.00000  Uiso   1.00
O114   O     0.57815   0.17403   0.19146   0.00000  Uiso   1.00
O115   O     0.52199   0.16874   0.31671   0.00000  Uiso   1.00
O116   O     0.47801   0.16460   0.18329   0.00000  Uiso   1.00
C117   C     0.66249   0.20903   0.30263   0.00000  Uiso   1.00
C118   C     0.64137   0.26177   0.31313   0.00000  Uiso   1.00
C119   C     0.33710   0.29679   0.34857   0.00000  Uiso   1.00
H120   H     0.65956   0.27550   0.37861   0.00000  Uiso   1.00
H121   H     0.38838   0.30852   0.33674   0.00000  Uiso   1.00
H122   H     0.65169   0.33326   0.35684   0.00000  Uiso   1.00
H123   H     0.65594   0.28393   0.28326   0.00000  Uiso   1.00
H124   H     0.59031   0.25487   0.32530   0.00000  Uiso   1.00
H125   H     0.64070   0.18345   0.33026   0.00000  Uiso   1.00
H126   H     0.37834   0.22132   0.30033   0.00000  Uiso   1.00
C127   C     0.33767   0.12470   0.19719   0.00000  Uiso   1.00
C128   C     0.35951   0.07228   0.18598   0.00000  Uiso   1.00
C129   C     0.66574   0.03853   0.14918   0.00000  Uiso   1.00
H130   H     0.61423   0.02715   0.15954   0.00000  Uiso   1.00
H131   H     0.34564   0.06064   0.11938   0.00000  Uiso   1.00
H132   H     0.35068   0.00182   0.14106   0.00000  Uiso   1.00
H133   H     0.41065   0.07948   0.17474   0.00000  Uiso   1.00
H134   H     0.34403   0.04907   0.21530   0.00000  Uiso   1.00
H135   H     0.62179   0.11191   0.19962   0.00000  Uiso   1.00
H136   H     0.35898   0.15078   0.16983   0.00000  Uiso   1.00
C137   C     0.84852   0.26669   0.25146   0.00000  Uiso   1.00
C138   C     0.81818   0.06664   0.24848   0.00000  Uiso   1.00
C139   C     0.75902   0.14211   0.03974   0.00000  Uiso   1.00
C140   C     0.90387   0.20738   0.46407   0.00000  Uiso   1.00
C141   C     0.71685   0.12999   0.01314   0.00000  Uiso   1.00
C142   C     0.94573   0.22043   0.49090   0.00000  Uiso   1.00
C143   C     0.85651   0.32305   0.25228   0.00000  Uiso   1.00
C144   C     0.81026   0.01027   0.24753   0.00000  Uiso   1.00
C145   C     0.79531   0.16304   0.33285   0.00000  Uiso   1.00
C146   C     0.87137   0.17068   0.16723   0.00000  Uiso   1.00
C147   C     0.77282   0.15866   0.38028   0.00000  Uiso   1.00
C148   C     0.89388   0.17822   0.12033   0.00000  Uiso   1.00
C149   C     0.69221   0.12785   0.44307   0.00000  Uiso   1.00
C150   C     0.97145   0.21917   0.06008   0.00000  Uiso   1.00
C151   C     0.71056   0.13688   0.39880   0.00000  Uiso   1.00
C152   C     0.95440   0.20570   0.10327   0.00000  Uiso   1.00
C153   C     0.81583   0.17347   0.40682   0.00000  Uiso   1.00
C154   C     0.85141   0.16268   0.09347   0.00000  Uiso   1.00
C155   C     0.79846   0.16550   0.45176   0.00000  Uiso   1.00
C156   C     0.86653   0.17758   0.05030   0.00000  Uiso   1.00
C157   C     0.73570   0.14117   0.46943   0.00000  Uiso   1.00
C158   C     0.92807   0.20564   0.03363   0.00000  Uiso   1.00
C159   C     0.84188   0.17953   0.47921   0.00000  Uiso   1.00
C160   C     0.82234   0.16589   0.02350   0.00000  Uiso   1.00
Cu161  Cu    0.77404   0.16108   0.24517   0.00000  Uiso   1.00
Cu162  Cu    0.89263   0.17225   0.25484   0.00000  Uiso   1.00
H163   H     0.66886   0.11173   0.02705   0.00000  Uiso   1.00
H164   H     0.99260   0.24208   0.47790   0.00000  Uiso   1.00
H165   H     0.80654   0.13923   0.10747   0.00000  Uiso   1.00
H166   H     0.86318   0.18964   0.39108   0.00000  Uiso   1.00
H167   H     0.98784   0.21821   0.12362   0.00000  Uiso   1.00
H168   H     0.67658   0.12513   0.37884   0.00000  Uiso   1.00
H169   H     0.97740   0.10976   0.45664   0.00000  Uiso   1.00
H170   H     0.68508   0.24086   0.04747   0.00000  Uiso   1.00
H171   H     0.73968   0.13335   0.07332   0.00000  Uiso   1.00
H172   H     0.92164   0.22103   0.43180   0.00000  Uiso   1.00
H173   H     0.90059   0.01437   0.25694   0.00000  Uiso   1.00
H174   H     0.76619   0.31896   0.24285   0.00000  Uiso   1.00
N175   N     0.98173   0.18068   0.26212   0.00000  Uiso   1.00
N176   N     0.68494   0.15265   0.23788   0.00000  Uiso   1.00
O177   O     0.79482   0.23809   0.24686   0.00000  Uiso   1.00
O178   O     0.87185   0.09524   0.25314   0.00000  Uiso   1.00
O179   O     0.89496   0.24753   0.25503   0.00000  Uiso   1.00
O180   O     0.77171   0.08580   0.24498   0.00000  Uiso   1.00
O181   O     0.75518   0.15930   0.30855   0.00000  Uiso   1.00
O182   O     0.91149   0.17403   0.19146   0.00000  Uiso   1.00
O183   O     0.85532   0.16874   0.31671   0.00000  Uiso   1.00
O184   O     0.81134   0.16460   0.18329   0.00000  Uiso   1.00
C185   C     0.99583   0.20903   0.30263   0.00000  Uiso   1.00
C186   C     0.97470   0.26177   0.31313   0.00000  Uiso   1.00
C187   C     0.67044   0.29679   0.34857   0.00000  Uiso   1.00
H188   H     0.99289   0.27550   0.37861   0.00000  Uiso   1.00
H189   H     0.72172   0.30852   0.33674   0.00000  Uiso   1.00
H190   H     0.98503   0.33326   0.35684   0.00000  Uiso   1.00
H191   H     0.98927   0.28393   0.28326   0.00000  Uiso   1.00
H192   H     0.92364   0.25487   0.32530   0.00000  Uiso   1.00
H193   H     0.97403   0.18345   0.33026   0.00000  Uiso   1.00
H194   H     0.71167   0.22132   0.30033   0.00000  Uiso   1.00
C195   C     0.67100   0.12470   0.19719   0.00000  Uiso   1.00
C196   C     0.69284   0.07228   0.18598   0.00000  Uiso   1.00
C197   C     0.99907   0.03853   0.14918   0.00000  Uiso   1.00
H198   H     0.94757   0.02715   0.15954   0.00000  Uiso   1.00
H199   H     0.67897   0.06064   0.11938   0.00000  Uiso   1.00
H200   H     0.68401   0.00182   0.14106   0.00000  Uiso   1.00
H201   H     0.74399   0.07948   0.17474   0.00000  Uiso   1.00
H202   H     0.67736   0.04907   0.21530   0.00000  Uiso   1.00
H203   H     0.95512   0.11191   0.19962   0.00000  Uiso   1.00
H204   H     0.69231   0.15078   0.16983   0.00000  Uiso   1.00
C205   C     0.18185   0.60003   0.25146   0.00000  Uiso   1.00
C206   C     0.15152   0.39997   0.24848   0.00000  Uiso   1.00
C207   C     0.09235   0.47544   0.03974   0.00000  Uiso   1.00
C208   C     0.23721   0.54072   0.46407   0.00000  Uiso   1.00
C209   C     0.05019   0.46332   0.01314   0.00000  Uiso   1.00
C210   C     0.27907   0.55376   0.49090   0.00000  Uiso   1.00
C211   C     0.18984   0.65639   0.25228   0.00000  Uiso   1.00
C212   C     0.14360   0.34361   0.24753   0.00000  Uiso   1.00
C213   C     0.12865   0.49638   0.33285   0.00000  Uiso   1.00
C214   C     0.20470   0.50401   0.16723   0.00000  Uiso   1.00
C215   C     0.10615   0.49200   0.38028   0.00000  Uiso   1.00
C216   C     0.22721   0.51155   0.12033   0.00000  Uiso   1.00
C217   C     0.02555   0.46119   0.44307   0.00000  Uiso   1.00
C218   C     0.30478   0.55250   0.06008   0.00000  Uiso   1.00
C219   C     0.04389   0.47021   0.39880   0.00000  Uiso   1.00
C220   C     0.28774   0.53904   0.10327   0.00000  Uiso   1.00
C221   C     0.14916   0.50681   0.40682   0.00000  Uiso   1.00
C222   C     0.18475   0.49601   0.09347   0.00000  Uiso   1.00
C223   C     0.13180   0.49883   0.45176   0.00000  Uiso   1.00
C224   C     0.19986   0.51092   0.05030   0.00000  Uiso   1.00
C225   C     0.06904   0.47450   0.46943   0.00000  Uiso   1.00
C226   C     0.26140   0.53898   0.03363   0.00000  Uiso   1.00
C227   C     0.17521   0.51286   0.47921   0.00000  Uiso   1.00
C228   C     0.15567   0.49922   0.02350   0.00000  Uiso   1.00
Cu229  Cu    0.10737   0.49441   0.24517   0.00000  Uiso   1.00
Cu230  Cu    0.22596   0.50559   0.25484   0.00000  Uiso   1.00
H231   H     0.00219   0.44506   0.02705   0.00000  Uiso   1.00
H232   H     0.32593   0.57542   0.47790   0.00000  Uiso   1.00
H233   H     0.13987   0.47256   0.10747   0.00000  Uiso   1.00
H234   H     0.19651   0.52297   0.39108   0.00000  Uiso   1.00
H235   H     0.32117   0.55154   0.12362   0.00000  Uiso   1.00
H236   H     0.00991   0.45846   0.37884   0.00000  Uiso   1.00
H237   H     0.31073   0.44309   0.45664   0.00000  Uiso   1.00
H238   H     0.01841   0.57419   0.04747   0.00000  Uiso   1.00
H239   H     0.07301   0.46669   0.07332   0.00000  Uiso   1.00
H240   H     0.25497   0.55436   0.43180   0.00000  Uiso   1.00
H241   H     0.23392   0.34770   0.25694   0.00000  Uiso   1.00
H242   H     0.09953   0.65229   0.24285   0.00000  Uiso   1.00
N243   N     0.31506   0.51401   0.26212   0.00000  Uiso   1.00
N244   N     0.01827   0.48599   0.23788   0.00000  Uiso   1.00
O245   O     0.12815   0.57142   0.24686   0.00000  Uiso   1.00
O246   O     0.20518   0.42858   0.25314   0.00000  Uiso   1.00
O247   O     0.22829   0.58086   0.25503   0.00000  Uiso   1.00
O248   O     0.10504   0.41914   0.24498   0.00000  Uiso   1.00
O249   O     0.08851   0.49263   0.30855   0.00000  Uiso   1.00
O250   O     0.24482   0.50737   0.19146   0.00000  Uiso   1.00
O251   O     0.18866   0.50207   0.31671   0.00000  Uiso   1.00
O252   O     0.14468   0.49793   0.18329   0.00000  Uiso   1.00
C253   C     0.32916   0.54236   0.30263   0.00000  Uiso   1.00
C254   C     0.30803   0.59510   0.31313   0.00000  Uiso   1.00
C255   C     0.00377   0.63012   0.34857   0.00000  Uiso   1.00
H256   H     0.32623   0.60884   0.37861   0.00000  Uiso   1.00
H257   H     0.05505   0.64185   0.33674   0.00000  Uiso   1.00
H258   H     0.31836   0.66660   0.35684   0.00000  Uiso   1.00
H259   H     0.32260   0.61726   0.28326   0.00000  Uiso   1.00
H260   H     0.25698   0.58821   0.32530   0.00000  Uiso   1.00
H261   H     0.30736   0.51678   0.33026   0.00000  Uiso   1.00
H262   H     0.04500   0.55466   0.30033   0.00000  Uiso   1.00
C263   C     0.00433   0.45804   0.19719   0.00000  Uiso   1.00
C264   C     0.02617   0.40562   0.18598   0.00000  Uiso   1.00
C265   C     0.33240   0.37187   0.14918   0.00000  Uiso   1.00
H266   H     0.28090   0.36049   0.15954   0.00000  Uiso   1.00
H267   H     0.01231   0.39398   0.11938   0.00000  Uiso   1.00
H268   H     0.01735   0.33515   0.14106   0.00000  Uiso   1.00
H269   H     0.07732   0.41281   0.17474   0.00000  Uiso   1.00
H270   H     0.01070   0.38240   0.21530   0.00000  Uiso   1.00
H271   H     0.28845   0.44524   0.19962   0.00000  Uiso   1.00
H272   H     0.02565   0.48412   0.16983   0.00000  Uiso   1.00
C273   C     0.51518   0.60003   0.25146   0.00000  Uiso   1.00
C274   C     0.48485   0.39997   0.24848   0.00000  Uiso   1.00
C275   C     0.42569   0.47544   0.03974   0.00000  Uiso   1.00
C276   C     0.57054   0.54072   0.46407   0.00000  Uiso   1.00
C277   C     0.38352   0.46332   0.01314   0.00000  Uiso   1.00
C278   C     0.61240   0.55376   0.49090   0.00000  Uiso   1.00
C279   C     0.52317   0.65639   0.25228   0.00000  Uiso   1.00
C280   C     0.47693   0.34361   0.24753   0.00000  Uiso   1.00
C281   C     0.46198   0.49638   0.33285   0.00000  Uiso   1.00
C282   C     0.53804   0.50401   0.16723   0.00000  Uiso   1.00
C283   C     0.43949   0.49200   0.38028   0.00000  Uiso   1.00
C284   C     0.56055   0.51155   0.12033   0.00000  Uiso   1.00
C285   C     0.35888   0.46119   0.44307   0.00000  Uiso   1.00
C286   C     0.63812   0.55250   0.06008   0.00000  Uiso   1.00
C287   C     0.37722   0.47021   0.39880   0.00000  Uiso   1.00
C288   C     0.62107   0.53904   0.10327   0.00000  Uiso   1.00
C289   C     0.48249   0.50681   0.40682   0.00000  Uiso   1.00
C290   C     0.51808   0.49601   0.09347   0.00000  Uiso   1.00
C291   C     0.46513   0.49883   0.45176   0.00000  Uiso   1.00
C292   C     0.53320   0.51092   0.05030   0.00000  Uiso   1.00
C293   C     0.40237   0.47450   0.46943   0.00000  Uiso   1.00
C294   C     0.59473   0.53898   0.03363   0.00000  Uiso   1.00
C295   C     0.50854   0.51286   0.47921   0.00000  Uiso   1.00
C296   C     0.48900   0.49922   0.02350   0.00000  Uiso   1.00
Cu297  Cu    0.44071   0.49441   0.24517   0.00000  Uiso   1.00
Cu298  Cu    0.55929   0.50559   0.25484   0.00000  Uiso   1.00
H299   H     0.33553   0.44506   0.02705   0.00000  Uiso   1.00
H300   H     0.65927   0.57542   0.47790   0.00000  Uiso   1.00
H301   H     0.47321   0.47256   0.10747   0.00000  Uiso   1.00
H302   H     0.52985   0.52297   0.39108   0.00000  Uiso   1.00
H303   H     0.65450   0.55154   0.12362   0.00000  Uiso   1.00
H304   H     0.34325   0.45846   0.37884   0.00000  Uiso   1.00
H305   H     0.64407   0.44309   0.45664   0.00000  Uiso   1.00
H306   H     0.35175   0.57419   0.04747   0.00000  Uiso   1.00
H307   H     0.40635   0.46669   0.07332   0.00000  Uiso   1.00
H308   H     0.58830   0.55436   0.43180   0.00000  Uiso   1.00
H309   H     0.56726   0.34770   0.25694   0.00000  Uiso   1.00
H310   H     0.43286   0.65229   0.24285   0.00000  Uiso   1.00
N311   N     0.64839   0.51401   0.26212   0.00000  Uiso   1.00
N312   N     0.35161   0.48599   0.23788   0.00000  Uiso   1.00
O313   O     0.46148   0.57142   0.24686   0.00000  Uiso   1.00
O314   O     0.53852   0.42858   0.25314   0.00000  Uiso   1.00
O315   O     0.56163   0.58086   0.25503   0.00000  Uiso   1.00
O316   O     0.43837   0.41914   0.24498   0.00000  Uiso   1.00
O317   O     0.42185   0.49263   0.30855   0.00000  Uiso   1.00
O318   O     0.57815   0.50737   0.19146   0.00000  Uiso   1.00
O319   O     0.52199   0.50207   0.31671   0.00000  Uiso   1.00
O320   O     0.47801   0.49793   0.18329   0.00000  Uiso   1.00
C321   C     0.66249   0.54236   0.30263   0.00000  Uiso   1.00
C322   C     0.64137   0.59510   0.31313   0.00000  Uiso   1.00
C323   C     0.33710   0.63012   0.34857   0.00000  Uiso   1.00
H324   H     0.65956   0.60884   0.37861   0.00000  Uiso   1.00
H325   H     0.38838   0.64185   0.33674   0.00000  Uiso   1.00
H326   H     0.65169   0.66660   0.35684   0.00000  Uiso   1.00
H327   H     0.65594   0.61726   0.28326   0.00000  Uiso   1.00
H328   H     0.59031   0.58821   0.32530   0.00000  Uiso   1.00
H329   H     0.64070   0.51678   0.33026   0.00000  Uiso   1.00
H330   H     0.37834   0.55466   0.30033   0.00000  Uiso   1.00
C331   C     0.33767   0.45804   0.19719   0.00000  Uiso   1.00
C332   C     0.35951   0.40562   0.18598   0.00000  Uiso   1.00
C333   C     0.66574   0.37187   0.14918   0.00000  Uiso   1.00
H334   H     0.61423   0.36049   0.15954   0.00000  Uiso   1.00
H335   H     0.34564   0.39398   0.11938   0.00000  Uiso   1.00
H336   H     0.35068   0.33515   0.14106   0.00000  Uiso   1.00
H337   H     0.41065   0.41281   0.17474   0.00000  Uiso   1.00
H338   H     0.34403   0.38240   0.21530   0.00000  Uiso   1.00
H339   H     0.62179   0.44524   0.19962   0.00000  Uiso   1.00
H340   H     0.35898   0.48412   0.16983   0.00000  Uiso   1.00
C341   C     0.84852   0.60003   0.25146   0.00000  Uiso   1.00
C342   C     0.81818   0.39997   0.24848   0.00000  Uiso   1.00
C343   C     0.75902   0.47544   0.03974   0.00000  Uiso   1.00
C344   C     0.90387   0.54072   0.46407   0.00000  Uiso   1.00
C345   C     0.71685   0.46332   0.01314   0.00000  Uiso   1.00
C346   C     0.94573   0.55376   0.49090   0.00000  Uiso   1.00
C347   C     0.85651   0.65639   0.25228   0.00000  Uiso   1.00
C348   C     0.81026   0.34361   0.24753   0.00000  Uiso   1.00
C349   C     0.79531   0.49638   0.33285   0.00000  Uiso   1.00
C350   C     0.87137   0.50401   0.16723   0.00000  Uiso   1.00
C351   C     0.77282   0.49200   0.38028   0.00000  Uiso   1.00
C352   C     0.89388   0.51155   0.12033   0.00000  Uiso   1.00
C353   C     0.69221   0.46119   0.44307   0.00000  Uiso   1.00
C354   C     0.97145   0.55250   0.06008   0.00000  Uiso   1.00
C355   C     0.71056   0.47021   0.39880   0.00000  Uiso   1.00
C356   C     0.95440   0.53904   0.10327   0.00000  Uiso   1.00
C357   C     0.81583   0.50681   0.40682   0.00000  Uiso   1.00
C358   C     0.85141   0.49601   0.09347   0.00000  Uiso   1.00
C359   C     0.79846   0.49883   0.45176   0.00000  Uiso   1.00
C360   C     0.86653   0.51092   0.05030   0.00000  Uiso   1.00
C361   C     0.73570   0.47450   0.46943   0.00000  Uiso   1.00
C362   C     0.92807   0.53898   0.03363   0.00000  Uiso   1.00
C363   C     0.84188   0.51286   0.47921   0.00000  Uiso   1.00
C364   C     0.82234   0.49922   0.02350   0.00000  Uiso   1.00
Cu365  Cu    0.77404   0.49441   0.24517   0.00000  Uiso   1.00
Cu366  Cu    0.89263   0.50559   0.25484   0.00000  Uiso   1.00
H367   H     0.66886   0.44506   0.02705   0.00000  Uiso   1.00
H368   H     0.99260   0.57542   0.47790   0.00000  Uiso   1.00
H369   H     0.80654   0.47256   0.10747   0.00000  Uiso   1.00
H370   H     0.86318   0.52297   0.39108   0.00000  Uiso   1.00
H371   H     0.98784   0.55154   0.12362   0.00000  Uiso   1.00
H372   H     0.67658   0.45846   0.37884   0.00000  Uiso   1.00
H373   H     0.97740   0.44309   0.45664   0.00000  Uiso   1.00
H374   H     0.68508   0.57419   0.04747   0.00000  Uiso   1.00
H375   H     0.73968   0.46669   0.07332   0.00000  Uiso   1.00
H376   H     0.92164   0.55436   0.43180   0.00000  Uiso   1.00
H377   H     0.90059   0.34770   0.25694   0.00000  Uiso   1.00
H378   H     0.76619   0.65229   0.24285   0.00000  Uiso   1.00
N379   N     0.98173   0.51401   0.26212   0.00000  Uiso   1.00
N380   N     0.68494   0.48599   0.23788   0.00000  Uiso   1.00
O381   O     0.79482   0.57142   0.24686   0.00000  Uiso   1.00
O382   O     0.87185   0.42858   0.25314   0.00000  Uiso   1.00
O383   O     0.89496   0.58086   0.25503   0.00000  Uiso   1.00
O384   O     0.77171   0.41914   0.24498   0.00000  Uiso   1.00
O385   O     0.75518   0.49263   0.30855   0.00000  Uiso   1.00
O386   O     0.91149   0.50737   0.19146   0.00000  Uiso   1.00
O387   O     0.85532   0.50207   0.31671   0.00000  Uiso   1.00
O388   O     0.81134   0.49793   0.18329   0.00000  Uiso   1.00
C389   C     0.99583   0.54236   0.30263   0.00000  Uiso   1.00
C390   C     0.97470   0.59510   0.31313   0.00000  Uiso   1.00
C391   C     0.67044   0.63012   0.34857   0.00000  Uiso   1.00
H392   H     0.99289   0.60884   0.37861   0.00000  Uiso   1.00
H393   H     0.72172   0.64185   0.33674   0.00000  Uiso   1.00
H394   H     0.98503   0.66660   0.35684   0.00000  Uiso   1.00
H395   H     0.98927   0.61726   0.28326   0.00000  Uiso   1.00
H396   H     0.92364   0.58821   0.32530   0.00000  Uiso   1.00
H397   H     0.97403   0.51678   0.33026   0.00000  Uiso   1.00
H398   H     0.71167   0.55466   0.30033   0.00000  Uiso   1.00
C399   C     0.67100   0.45804   0.19719   0.00000  Uiso   1.00
C400   C     0.69284   0.40562   0.18598   0.00000  Uiso   1.00
C401   C     0.99907   0.37187   0.14918   0.00000  Uiso   1.00
H402   H     0.94757   0.36049   0.15954   0.00000  Uiso   1.00
H403   H     0.67897   0.39398   0.11938   0.00000  Uiso   1.00
H404   H     0.68401   0.33515   0.14106   0.00000  Uiso   1.00
H405   H     0.74399   0.41281   0.17474   0.00000  Uiso   1.00
H406   H     0.67736   0.38240   0.21530   0.00000  Uiso   1.00
H407   H     0.95512   0.44524   0.19962   0.00000  Uiso   1.00
H408   H     0.69231   0.48412   0.16983   0.00000  Uiso   1.00
C409   C     0.18185   0.93336   0.25146   0.00000  Uiso   1.00
C410   C     0.15152   0.73330   0.24848   0.00000  Uiso   1.00
C411   C     0.09235   0.80878   0.03974   0.00000  Uiso   1.00
C412   C     0.23721   0.87405   0.46407   0.00000  Uiso   1.00
C413   C     0.05019   0.79665   0.01314   0.00000  Uiso   1.00
C414   C     0.27907   0.88709   0.49090   0.00000  Uiso   1.00
C415   C     0.18984   0.98972   0.25228   0.00000  Uiso   1.00
C416   C     0.14360   0.67694   0.24753   0.00000  Uiso   1.00
C417   C     0.12865   0.82971   0.33285   0.00000  Uiso   1.00
C418   C     0.20470   0.83735   0.16723   0.00000  Uiso   1.00
C419   C     0.10615   0.82533   0.38028   0.00000  Uiso   1.00
C420   C     0.22721   0.84489   0.12033   0.00000  Uiso   1.00
C421   C     0.02555   0.79452   0.44307   0.00000  Uiso   1.00
C422   C     0.30478   0.88584   0.06008   0.00000  Uiso   1.00
C423   C     0.04389   0.80355   0.39880   0.00000  Uiso   1.00
C424   C     0.28774   0.87237   0.10327   0.00000  Uiso   1.00
C425   C     0.14916   0.84014   0.40682   0.00000  Uiso   1.00
C426   C     0.18475   0.82935   0.09347   0.00000  Uiso   1.00
C427   C     0.13180   0.83216   0.45176   0.00000  Uiso   1.00
C428   C     0.19986   0.84425   0.05030   0.00000  Uiso   1.00
C429   C     0.06904   0.80783   0.46943   0.00000  Uiso   1.00
C430   C     0.26140   0.87231   0.03363   0.00000  Uiso   1.00
C431   C     0.17521   0.84619   0.47921   0.00000  Uiso   1.00
C432   C     0.15567   0.83256   0.02350   0.00000  Uiso   1.00
Cu433  Cu    0.10737   0.82775   0.24517   0.00000  Uiso   1.00
Cu434  Cu    0.22596   0.83892   0.25484   0.00000  Uiso   1.00
H435   H     0.00219   0.77839   0.02705   0.00000  Uiso   1.00
H436   H     0.32593   0.90875   0.47790   0.00000  Uiso   1.00
H437   H     0.13987   0.80590   0.10747   0.00000  Uiso   1.00
H438   H     0.19651   0.85630   0.39108   0.00000  Uiso   1.00
H439   H     0.32117   0.88488   0.12362   0.00000  Uiso   1.00
H440   H     0.00991   0.79180   0.37884   0.00000  Uiso   1.00
H441   H     0.31073   0.77643   0.45664   0.00000  Uiso   1.00
H442   H     0.01841   0.90753   0.04747   0.00000  Uiso   1.00
H443   H     0.07301   0.80002   0.07332   0.00000  Uiso   1.00
H444   H     0.25497   0.88770   0.43180   0.00000  Uiso   1.00
H445   H     0.23392   0.68103   0.25694   0.00000  Uiso   1.00
H446   H     0.09953   0.98563   0.24285   0.00000  Uiso   1.00
N447   N     0.31506   0.84735   0.26212   0.00000  Uiso   1.00
N448   N     0.01827   0.81932   0.23788   0.00000  Uiso   1.00
O449   O     0.12815   0.90476   0.24686   0.00000  Uiso   1.00
O450   O     0.20518   0.76191   0.25314   0.00000  Uiso   1.00
O451   O     0.22829   0.91420   0.25503   0.00000  Uiso   1.00
O452   O     0.10504   0.75247   0.24498   0.00000  Uiso   1.00
O453   O     0.08851   0.82597   0.30855   0.00000  Uiso   1.00
O454   O     0.24482   0.84070   0.19146   0.00000  Uiso   1.00
O455   O     0.18866   0.83540   0.31671   0.00000  Uiso   1.00
O456   O     0.14468   0.83126   0.18329   0.00000  Uiso   1.00
C457   C     0.32916   0.87570   0.30263   0.00000  Uiso   1.00
C458   C     0.30803   0.92844   0.31313   0.00000  Uiso   1.00
C459   C     0.00377   0.96346   0.34857   0.00000  Uiso   1.00
H460   H     0.32623   0.94217   0.37861   0.00000  Uiso   1.00
H461   H     0.05505   0.97518   0.33674   0.00000  Uiso   1.00
H462   H     0.31836   0.99993   0.35684   0.00000  Uiso   1.00
H463   H     0.32260   0.95059   0.28326   0.00000  Uiso   1.00
H464   H     0.25698   0.92154   0.32530   0.00000  Uiso   1.00
H465   H     0.30736   0.85011   0.33026   0.00000  Uiso   1.00
H466   H     0.04500   0.88799   0.30033   0.00000  Uiso   1.00
C467   C     0.00433   0.79137   0.19719   0.00000  Uiso   1.00
C468   C     0.02617   0.73895   0.18598   0.00000  Uiso   1.00
C469   C     0.33240   0.70520   0.14918   0.00000  Uiso   1.00
H470   H     0.28090   0.69382   0.15954   0.00000  Uiso   1.00
H471   H     0.01231   0.72731   0.11938   0.00000  Uiso   1.00
H472   H     0.01735   0.66849   0.14106   0.00000  Uiso   1.00
H473   H     0.07732   0.74615   0.17474   0.00000  Uiso   1.00
H474   H     0.01070   0.71573   0.21530   0.00000  Uiso   1.00
H475   H     0.28845   0.77858   0.19962   0.00000  Uiso   1.00
H476   H     0.02565   0.81745   0.16983   0.00000  Uiso   1.00
C477   C     0.51518   0.93336   0.25146   0.00000  Uiso   1.00
C478   C     0.48485   0.73330   0.24848   0.00000  Uiso   1.00
C479   C     0.42569   0.80878   0.03974   0.00000  Uiso   1.00
C480   C     0.57054   0.87405   0.46407   0.00000  Uiso   1.00
C481   C     0.38352   0.79665   0.01314   0.00000  Uiso   1.00
C482   C     0.61240   0.88709   0.49090   0.00000  Uiso   1.00
C483   C     0.52317   0.98972   0.25228   0.00000  Uiso   1.00
C484   C     0.47693   0.67694   0.24753   0.00000  Uiso   1.00
C485   C     0.46198   0.82971   0.33285   0.00000  Uiso   1.00
C486   C     0.53804   0.83735   0.16723   0.00000  Uiso   1.00
C487   C     0.43949   0.82533   0.38028   0.00000  Uiso   1.00
C488   C     0.56055   0.84489   0.12033   0.00000  Uiso   1.00
C489   C     0.35888   0.79452   0.44307   0.00000  Uiso   1.00
C490   C     0.63812   0.88584   0.06008   0.00000  Uiso   1.00
C491   C     0.37722   0.80355   0.39880   0.00000  Uiso   1.00
C492   C     0.62107   0.87237   0.10327   0.00000  Uiso   1.00
C493   C     0.48249   0.84014   0.40682   0.00000  Uiso   1.00
C494   C     0.51808   0.82935   0.09347   0.00000  Uiso   1.00
C495   C     0.46513   0.83216   0.45176   0.00000  Uiso   1.00
C496   C     0.53320   0.84425   0.05030   0.00000  Uiso   1.00
C497   C     0.40237   0.80783   0.46943   0.00000  Uiso   1.00
C498   C     0.59473   0.87231   0.03363   0.00000  Uiso   1.00
C499   C     0.50854   0.84619   0.47921   0.00000  Uiso   1.00
C500   C     0.48900   0.83256   0.02350   0.00000  Uiso   1.00
Cu501  Cu    0.44071   0.82775   0.24517   0.00000  Uiso   1.00
Cu502  Cu    0.55929   0.83892   0.25484   0.00000  Uiso   1.00
H503   H     0.33553   0.77839   0.02705   0.00000  Uiso   1.00
H504   H     0.65927   0.90875   0.47790   0.00000  Uiso   1.00
H505   H     0.47321   0.80590   0.10747   0.00000  Uiso   1.00
H506   H     0.52985   0.85630   0.39108   0.00000  Uiso   1.00
H507   H     0.65450   0.88488   0.12362   0.00000  Uiso   1.00
H508   H     0.34325   0.79180   0.37884   0.00000  Uiso   1.00
H509   H     0.64407   0.77643   0.45664   0.00000  Uiso   1.00
H510   H     0.35175   0.90753   0.04747   0.00000  Uiso   1.00
H511   H     0.40635   0.80002   0.07332   0.00000  Uiso   1.00
H512   H     0.58830   0.88770   0.43180   0.00000  Uiso   1.00
H513   H     0.56726   0.68103   0.25694   0.00000  Uiso   1.00
H514   H     0.43286   0.98563   0.24285   0.00000  Uiso   1.00
N515   N     0.64839   0.84735   0.26212   0.00000  Uiso   1.00
N516   N     0.35161   0.81932   0.23788   0.00000  Uiso   1.00
O517   O     0.46148   0.90476   0.24686   0.00000  Uiso   1.00
O518   O     0.53852   0.76191   0.25314   0.00000  Uiso   1.00
O519   O     0.56163   0.91420   0.25503   0.00000  Uiso   1.00
O520   O     0.43837   0.75247   0.24498   0.00000  Uiso   1.00
O521   O     0.42185   0.82597   0.30855   0.00000  Uiso   1.00
O522   O     0.57815   0.84070   0.19146   0.00000  Uiso   1.00
O523   O     0.52199   0.83540   0.31671   0.00000  Uiso   1.00
O524   O     0.47801   0.83126   0.18329   0.00000  Uiso   1.00
C525   C     0.66249   0.87570   0.30263   0.00000  Uiso   1.00
C526   C     0.64137   0.92844   0.31313   0.00000  Uiso   1.00
C527   C     0.33710   0.96346   0.34857   0.00000  Uiso   1.00
H528   H     0.65956   0.94217   0.37861   0.00000  Uiso   1.00
H529   H     0.38838   0.97518   0.33674   0.00000  Uiso   1.00
H530   H     0.65169   0.99993   0.35684   0.00000  Uiso   1.00
H531   H     0.65594   0.95059   0.28326   0.00000  Uiso   1.00
H532   H     0.59031   0.92154   0.32530   0.00000  Uiso   1.00
H533   H     0.64070   0.85011   0.33026   0.00000  Uiso   1.00
H534   H     0.37834   0.88799   0.30033   0.00000  Uiso   1.00
C535   C     0.33767   0.79137   0.19719   0.00000  Uiso   1.00
C536   C     0.35951   0.73895   0.18598   0.00000  Uiso   1.00
C537   C     0.66574   0.70520   0.14918   0.00000  Uiso   1.00
H538   H     0.61423   0.69382   0.15954   0.00000  Uiso   1.00
H539   H     0.34564   0.72731   0.11938   0.00000  Uiso   1.00
H540   H     0.35068   0.66849   0.14106   0.00000  Uiso   1.00
H541   H     0.41065   0.74615   0.17474   0.00000  Uiso   1.00
H542   H     0.34403   0.71573   0.21530   0.00000  Uiso   1.00
H543   H     0.62179   0.77858   0.19962   0.00000  Uiso   1.00
H544   H     0.35898   0.81745   0.16983   0.00000  Uiso   1.00
C545   C     0.84852   0.93336   0.25146   0.00000  Uiso   1.00
C546   C     0.81818   0.73330   0.24848   0.00000  Uiso   1.00
C547   C     0.75902   0.80878   0.03974   0.00000  Uiso   1.00
C548   C     0.90387   0.87405   0.46407   0.00000  Uiso   1.00
C549   C     0.71685   0.79665   0.01314   0.00000  Uiso   1.00
C550   C     0.94573   0.88709   0.49090   0.00000  Uiso   1.00
C551   C     0.85651   0.98972   0.25228   0.00000  Uiso   1.00
C552   C     0.81026   0.67694   0.24753   0.00000  Uiso   1.00
C553   C     0.79531   0.82971   0.33285   0.00000  Uiso   1.00
C554   C     0.87137   0.83735   0.16723   0.00000  Uiso   1.00
C555   C     0.77282   0.82533   0.38028   0.00000  Uiso   1.00
C556   C     0.89388   0.84489   0.12033   0.00000  Uiso   1.00
C557   C     0.69221   0.79452   0.44307   0.00000  Uiso   1.00
C558   C     0.97145   0.88584   0.06008   0.00000  Uiso   1.00
C559   C     0.71056   0.80355   0.39880   0.00000  Uiso   1.00
C560   C     0.95440   0.87237   0.10327   0.00000  Uiso   1.00
C561   C     0.81583   0.84014   0.40682   0.00000  Uiso   1.00
C562   C     0.85141   0.82935   0.09347   0.00000  Uiso   1.00
C563   C     0.79846   0.83216   0.45176   0.00000  Uiso   1.00
C564   C     0.86653   0.84425   0.05030   0.00000  Uiso   1.00
C565   C     0.73570   0.80783   0.46943   0.00000  Uiso   1.00
C566   C     0.92807   0.87231   0.03363   0.00000  Uiso   1.00
C567   C     0.84188   0.84619   0.47921   0.00000  Uiso   1.00
C568   C     0.82234   0.83256   0.02350   0.00000  Uiso   1.00
Cu569  Cu    0.77404   0.82775   0.24517   0.00000  Uiso   1.00
Cu570  Cu    0.89263   0.83892   0.25484   0.00000  Uiso   1.00
H571   H     0.66886   0.77839   0.02705   0.00000  Uiso   1.00
H572   H     0.99260   0.90875   0.47790   0.00000  Uiso   1.00
H573   H     0.80654   0.80590   0.10747   0.00000  Uiso   1.00
H574   H     0.86318   0.85630   0.39108   0.00000  Uiso   1.00
H575   H     0.98784   0.88488   0.12362   0.00000  Uiso   1.00
H576   H     0.67658   0.79180   0.37884   0.00000  Uiso   1.00
H577   H     0.97740   0.77643   0.45664   0.00000  Uiso   1.00
H578   H     0.68508   0.90753   0.04747   0.00000  Uiso   1.00
H579   H     0.73968   0.80002   0.07332   0.00000  Uiso   1.00
H580   H     0.92164   0.88770   0.43180   0.00000  Uiso   1.00
H581   H     0.90059   0.68103   0.25694   0.00000  Uiso   1.00
H582   H     0.76619   0.98563   0.24285   0.00000  Uiso   1.00
N583   N     0.98173   0.84735   0.26212   0.00000  Uiso   1.00
N584   N     0.68494   0.81932   0.23788   0.00000  Uiso   1.00
O585   O     0.79482   0.90476   0.24686   0.00000  Uiso   1.00
O586   O     0.87185   0.76191   0.25314   0.00000  Uiso   1.00
O587   O     0.89496   0.91420   0.25503   0.00000  Uiso   1.00
O588   O     0.77171   0.75247   0.24498   0.00000  Uiso   1.00
O589   O     0.75518   0.82597   0.30855   0.00000  Uiso   1.00
O590   O     0.91149   0.84070   0.19146   0.00000  Uiso   1.00
O591   O     0.85532   0.83540   0.31671   0.00000  Uiso   1.00
O592   O     0.81134   0.83126   0.18329   0.00000  Uiso   1.00
C593   C     0.99583   0.87570   0.30263   0.00000  Uiso   1.00
C594   C     0.97470   0.92844   0.31313   0.00000  Uiso   1.00
C595   C     0.67044   0.96346   0.34857   0.00000  Uiso   1.00
H596   H     0.99289   0.94217   0.37861   0.00000  Uiso   1.00
H597   H     0.72172   0.97518   0.33674   0.00000  Uiso   1.00
H598   H     0.98503   0.99993   0.35684   0.00000  Uiso   1.00
H599   H     0.98927   0.95059   0.28326   0.00000  Uiso   1.00
H600   H     0.92364   0.92154   0.32530   0.00000  Uiso   1.00
H601   H     0.97403   0.85011   0.33026   0.00000  Uiso   1.00
H602   H     0.71167   0.88799   0.30033   0.00000  Uiso   1.00
C603   C     0.67100   0.79137   0.19719   0.00000  Uiso   1.00
C604   C     0.69284   0.73895   0.18598   0.00000  Uiso   1.00
C605   C     0.99907   0.70520   0.14918   0.00000  Uiso   1.00
H606   H     0.94757   0.69382   0.15954   0.00000  Uiso   1.00
H607   H     0.67897   0.72731   0.11938   0.00000  Uiso   1.00
H608   H     0.68401   0.66849   0.14106   0.00000  Uiso   1.00
H609   H     0.74399   0.74615   0.17474   0.00000  Uiso   1.00
H610   H     0.67736   0.71573   0.21530   0.00000  Uiso   1.00
H611   H     0.95512   0.77858   0.19962   0.00000  Uiso   1.00
H612   H     0.69231   0.81745   0.16983   0.00000  Uiso   1.00
C613   C     0.18185   0.26669   0.75146   0.00000  Uiso   1.00
C614   C     0.15152   0.06664   0.74848   0.00000  Uiso   1.00
C615   C     0.09235   0.14211   0.53974   0.00000  Uiso   1.00
C616   C     0.23721   0.20738   0.96407   0.00000  Uiso   1.00
C617   C     0.05019   0.12999   0.51314   0.00000  Uiso   1.00
C618   C     0.27907   0.22043   0.99090   0.00000  Uiso   1.00
C619   C     0.18984   0.32305   0.75228   0.00000  Uiso   1.00
C620   C     0.14360   0.01027   0.74753   0.00000  Uiso   1.00
C621   C     0.12865   0.16304   0.83285   0.00000  Uiso   1.00
C622   C     0.20470   0.17068   0.66723   0.00000  Uiso   1.00
C623   C     0.10615   0.15866   0.88028   0.00000  Uiso   1.00
C624   C     0.22721   0.17822   0.62033   0.00000  Uiso   1.00
C625   C     0.02555   0.12785   0.94307   0.00000  Uiso   1.00
C626   C     0.30478   0.21917   0.56008   0.00000  Uiso   1.00
C627   C     0.04389   0.13688   0.89880   0.00000  Uiso   1.00
C628   C     0.28774   0.20570   0.60327   0.00000  Uiso   1.00
C629   C     0.14916   0.17347   0.90682   0.00000  Uiso   1.00
C630   C     0.18475   0.16268   0.59347   0.00000  Uiso   1.00
C631   C     0.13180   0.16550   0.95176   0.00000  Uiso   1.00
C632   C     0.19986   0.17758   0.55030   0.00000  Uiso   1.00
C633   C     0.06904   0.14117   0.96943   0.00000  Uiso   1.00
C634   C     0.26140   0.20564   0.53363   0.00000  Uiso   1.00
C635   C     0.17521   0.17953   0.97921   0.00000  Uiso   1.00
C636   C     0.15567   0.16589   0.52350   0.00000  Uiso   1.00
Cu637  Cu    0.10737   0.16108   0.74517   0.00000  Uiso   1.00
Cu638  Cu    0.22596   0.17225   0.75484   0.00000  Uiso   1.00
H639   H     0.00219   0.11173   0.52705   0.00000  Uiso   1.00
H640   H     0.32593   0.24208   0.97790   0.00000  Uiso   1.00
H641   H     0.13987   0.13923   0.60747   0.00000  Uiso   1.00
H642   H     0.19651   0.18964   0.89108   0.00000  Uiso   1.00
H643   H     0.32117   0.21821   0.62362   0.00000  Uiso   1.00
H644   H     0.00991   0.12513   0.87884   0.00000  Uiso   1.00
H645   H     0.31073   0.10976   0.95664   0.00000  Uiso   1.00
H646   H     0.01841   0.24086   0.54747   0.00000  Uiso   1.00
H647   H     0.07301   0.13335   0.57332   0.00000  Uiso   1.00
H648   H     0.25497   0.22103   0.93180   0.00000  Uiso   1.00
H649   H     0.23392   0.01437   0.75694   0.00000  Uiso   1.00
H650   H     0.09953   0.31896   0.74285   0.00000  Uiso   1.00
N651   N     0.31506   0.18068   0.76212   0.00000  Uiso   1.00
N652   N     0.01827   0.15265   0.73788   0.00000  Uiso   1.00
O653   O     0.12815   0.23809   0.74686   0.00000  Uiso   1.00
O654   O     0.20518   0.09524   0.75314   0.00000  Uiso   1.00
O655   O     0.22829   0.24753   0.75503   0.00000  Uiso   1.00
O656   O     0.10504   0.08580   0.74498   0.00000  Uiso   1.00
O657   O     0.08851   0.15930   0.80855   0.00000  Uiso   1.00
O658   O     0.24482   0.17403   0.69146   0.00000  Uiso   1.00
O659   O     0.18866   0.16874   0.81671   0.00000  Uiso   1.00
O660   O     0.14468   0.16460   0.68329   0.00000  Uiso   1.00
C661   C     0.32916   0.20903   0.80263   0.00000  Uiso   1.00
C662   C     0.30803   0.26177   0.81313   0.00000  Uiso   1.00
C663   C     0.00377   0.29679   0.84857   0.00000  Uiso   1.00
H664   H     0.32623   0.27550   0.87861   0.00000  Uiso   1.00
H665   H     0.05505   0.30852   0.83674   0.00000  Uiso   1.00
H666   H     0.31836   0.33326   0.85684   0.00000  Uiso   1.00
H667   H     0.32260   0.28393   0.78326   0.00000  Uiso   1.00
H668   H     0.25698   0.25487   0.82530   0.00000  Uiso   1.00
H669   H     0.30736   0.18345   0.83026   0.00000  Uiso   1.00
H670   H     0.04500   0.22132   0.80033   0.00000  Uiso   1.00
C671   C     0.00433   0.12470   0.69719   0.00000  Uiso   1.00
C672   C     0.02617   0.07228   0.68598   0.00000  Uiso   1.00
C673   C     0.33240   0.03853   0.64918   0.00000  Uiso   1.00
H674   H     0.28090   0.02715   0.65954   0.00000  Uiso   1.00
H675   H     0.01231   0.06064   0.61938   0.00000  Uiso   1.00
H676   H     0.01735   0.00182   0.64106   0.00000  Uiso   1.00
H677   H     0.07732   0.07948   0.67474   0.00000  Uiso   1.00
H678   H     0.01070   0.04907   0.71530   0.00000  Uiso   1.00
H679   H     0.28845   0.11191   0.69962   0.00000  Uiso   1.00
H680   H     0.02565   0.15078   0.66983   0.00000  Uiso   1.00
C681   C     0.51518   0.26669   0.75146   0.00000  Uiso   1.00
C682   C     0.48485   0.06664   0.74848   0.00000  Uiso   1.00
C683   C     0.42569   0.14211   0.53974   0.00000  Uiso   1.00
C684   C     0.57054   0.20738   0.96407   0.00000  Uiso   1.00
C685   C     0.38352   0.12999   0.51314   0.00000  Uiso   1.00
C686   C     0.61240   0.22043   0.99090   0.00000  Uiso   1.00
C687   C     0.52317   0.32305   0.75228   0.00000  Uiso   1.00
C688   C     0.47693   0.01027   0.74753   0.00000  Uiso   1.00
C689   C     0.46198   0.16304   0.83285   0.00000  Uiso   1.00
C690   C     0.53804   0.17068   0.66723   0.00000  Uiso   1.00
C691   C     0.43949   0.15866   0.88028   0.00000  Uiso   1.00
C692   C     0.56055   0.17822   0.62033   0.00000  Uiso   1.00
C693   C     0.35888   0.12785   0.94307   0.00000  Uiso   1.00
C694   C     0.63812   0.21917   0.56008   0.00000  Uiso   1.00
C695   C     0.37722   0.13688   0.89880   0.00000  Uiso   1.00
C696   C     0.62107   0.20570   0.60327   0.00000  Uiso   1.00
C697   C     0.48249   0.17347   0.90682   0.00000  Uiso   1.00
C698   C     0.51808   0.16268   0.59347   0.00000  Uiso   1.00
C699   C     0.46513   0.16550   0.95176   0.00000  Uiso   1.00
C700   C     0.53320   0.17758   0.55030   0.00000  Uiso   1.00
C701   C     0.40237   0.14117   0.96943   0.00000  Uiso   1.00
C702   C     0.59473   0.20564   0.53363   0.00000  Uiso   1.00
C703   C     0.50854   0.17953   0.97921   0.00000  Uiso   1.00
C704   C     0.48900   0.16589   0.52350   0.00000  Uiso   1.00
Cu705  Cu    0.44071   0.16108   0.74517   0.00000  Uiso   1.00
Cu706  Cu    0.55929   0.17225   0.75484   0.00000  Uiso   1.00
H707   H     0.33553   0.11173   0.52705   0.00000  Uiso   1.00
H708   H     0.65927   0.24208   0.97790   0.00000  Uiso   1.00
H709   H     0.47321   0.13923   0.60747   0.00000  Uiso   1.00
H710   H     0.52985   0.18964   0.89108   0.00000  Uiso   1.00
H711   H     0.65450   0.21821   0.62362   0.00000  Uiso   1.00
H712   H     0.34325   0.12513   0.87884   0.00000  Uiso   1.00
H713   H     0.64407   0.10976   0.95664   0.00000  Uiso   1.00
H714   H     0.35175   0.24086   0.54747   0.00000  Uiso   1.00
H715   H     0.40635   0.13335   0.57332   0.00000  Uiso   1.00
H716   H     0.58830   0.22103   0.93180   0.00000  Uiso   1.00
H717   H     0.56726   0.01437   0.75694   0.00000  Uiso   1.00
H718   H     0.43286   0.31896   0.74285   0.00000  Uiso   1.00
N719   N     0.64839   0.18068   0.76212   0.00000  Uiso   1.00
N720   N     0.35161   0.15265   0.73788   0.00000  Uiso   1.00
O721   O     0.46148   0.23809   0.74686   0.00000  Uiso   1.00
O722   O     0.53852   0.09524   0.75314   0.00000  Uiso   1.00
O723   O     0.56163   0.24753   0.75503   0.00000  Uiso   1.00
O724   O     0.43837   0.08580   0.74498   0.00000  Uiso   1.00
O725   O     0.42185   0.15930   0.80855   0.00000  Uiso   1.00
O726   O     0.57815   0.17403   0.69146   0.00000  Uiso   1.00
O727   O     0.52199   0.16874   0.81671   0.00000  Uiso   1.00
O728   O     0.47801   0.16460   0.68329   0.00000  Uiso   1.00
C729   C     0.66249   0.20903   0.80263   0.00000  Uiso   1.00
C730   C     0.64137   0.26177   0.81313   0.00000  Uiso   1.00
C731   C     0.33710   0.29679   0.84857   0.00000  Uiso   1.00
H732   H     0.65956   0.27550   0.87861   0.00000  Uiso   1.00
H733   H     0.38838   0.30852   0.83674   0.00000  Uiso   1.00
H734   H     0.65169   0.33326   0.85684   0.00000  Uiso   1.00
H735   H     0.65594   0.28393   0.78326   0.00000  Uiso   1.00
H736   H     0.59031   0.25487   0.82530   0.00000  Uiso   1.00
H737   H     0.64070   0.18345   0.83026   0.00000  Uiso   1.00
H738   H     0.37834   0.22132   0.80033   0.00000  Uiso   1.00
C739   C     0.33767   0.12470   0.69719   0.00000  Uiso   1.00
C740   C     0.35951   0.07228   0.68598   0.00000  Uiso   1.00
C741   C     0.66574   0.03853   0.64918   0.00000  Uiso   1.00
H742   H     0.61423   0.02715   0.65954   0.00000  Uiso   1.00
H743   H     0.34564   0.06064   0.61938   0.00000  Uiso   1.00
H744   H     0.35068   0.00182   0.64106   0.00000  Uiso   1.00
H745   H     0.41065   0.07948   0.67474   0.00000  Uiso   1.00
H746   H     0.34403   0.04907   0.71530   0.00000  Uiso   1.00
H747   H     0.62179   0.11191   0.69962   0.00000  Uiso   1.00
H748   H     0.35898   0.15078   0.66983   0.00000  Uiso   1.00
C749   C     0.84852   0.26669   0.75146   0.00000  Uiso   1.00
C750   C     0.81818   0.06664   0.74848   0.00000  Uiso   1.00
C751   C     0.75902   0.14211   0.53974   0.00000  Uiso   1.00
C752   C     0.90387   0.20738   0.96407   0.00000  Uiso   1.00
C753   C     0.71685   0.12999   0.51314   0.00000  Uiso   1.00
C754   C     0.94573   0.22043   0.99090   0.00000  Uiso   1.00
C755   C     0.85651   0.32305   0.75228   0.00000  Uiso   1.00
C756   C     0.81026   0.01027   0.74753   0.00000  Uiso   1.00
C757   C     0.79531   0.16304   0.83285   0.00000  Uiso   1.00
C758   C     0.87137   0.17068   0.66723   0.00000  Uiso   1.00
C759   C     0.77282   0.15866   0.88028   0.00000  Uiso   1.00
C760   C     0.89388   0.17822   0.62033   0.00000  Uiso   1.00
C761   C     0.69221   0.12785   0.94307   0.00000  Uiso   1.00
C762   C     0.97145   0.21917   0.56008   0.00000  Uiso   1.00
C763   C     0.71056   0.13688   0.89880   0.00000  Uiso   1.00
C764   C     0.95440   0.20570   0.60327   0.00000  Uiso   1.00
C765   C     0.81583   0.17347   0.90682   0.00000  Uiso   1.00
C766   C     0.85141   0.16268   0.59347   0.00000  Uiso   1.00
C767   C     0.79846   0.16550   0.95176   0.00000  Uiso   1.00
C768   C     0.86653   0.17758   0.55030   0.00000  Uiso   1.00
C769   C     0.73570   0.14117   0.96943   0.00000  Uiso   1.00
C770   C     0.92807   0.20564   0.53363   0.00000  Uiso   1.00
C771   C     0.84188   0.17953   0.97921   0.00000  Uiso   1.00
C772   C     0.82234   0.16589   0.52350   0.00000  Uiso   1.00
Cu773  Cu    0.77404   0.16108   0.74517   0.00000  Uiso   1.00
Cu774  Cu    0.89263   0.17225   0.75484   0.00000  Uiso   1.00
H775   H     0.66886   0.11173   0.52705   0.00000  Uiso   1.00
H776   H     0.99260   0.24208   0.97790   0.00000  Uiso   1.00
H777   H     0.80654   0.13923   0.60747   0.00000  Uiso   1.00
H778   H     0.86318   0.18964   0.89108   0.00000  Uiso   1.00
H779   H     0.98784   0.21821   0.62362   0.00000  Uiso   1.00
H780   H     0.67658   0.12513   0.87884   0.00000  Uiso   1.00
H781   H     0.97740   0.10976   0.95664   0.00000  Uiso   1.00
H782   H     0.68508   0.24086   0.54747   0.00000  Uiso   1.00
H783   H     0.73968   0.13335   0.57332   0.00000  Uiso   1.00
H784   H     0.92164   0.22103   0.93180   0.00000  Uiso   1.00
H785   H     0.90059   0.01437   0.75694   0.00000  Uiso   1.00
H786   H     0.76619   0.31896   0.74285   0.00000  Uiso   1.00
N787   N     0.98173   0.18068   0.76212   0.00000  Uiso   1.00
N788   N     0.68494   0.15265   0.73788   0.00000  Uiso   1.00
O789   O     0.79482   0.23809   0.74686   0.00000  Uiso   1.00
O790   O     0.87185   0.09524   0.75314   0.00000  Uiso   1.00
O791   O     0.89496   0.24753   0.75503   0.00000  Uiso   1.00
O792   O     0.77171   0.08580   0.74498   0.00000  Uiso   1.00
O793   O     0.75518   0.15930   0.80855   0.00000  Uiso   1.00
O794   O     0.91149   0.17403   0.69146   0.00000  Uiso   1.00
O795   O     0.85532   0.16874   0.81671   0.00000  Uiso   1.00
O796   O     0.81134   0.16460   0.68329   0.00000  Uiso   1.00
C797   C     0.99583   0.20903   0.80263   0.00000  Uiso   1.00
C798   C     0.97470   0.26177   0.81313   0.00000  Uiso   1.00
C799   C     0.67044   0.29679   0.84857   0.00000  Uiso   1.00
H800   H     0.99289   0.27550   0.87861   0.00000  Uiso   1.00
H801   H     0.72172   0.30852   0.83674   0.00000  Uiso   1.00
H802   H     0.98503   0.33326   0.85684   0.00000  Uiso   1.00
H803   H     0.98927   0.28393   0.78326   0.00000  Uiso   1.00
H804   H     0.92364   0.25487   0.82530   0.00000  Uiso   1.00
H805   H     0.97403   0.18345   0.83026   0.00000  Uiso   1.00
H806   H     0.71167   0.22132   0.80033   0.00000  Uiso   1.00
C807   C     0.67100   0.12470   0.69719   0.00000  Uiso   1.00
C808   C     0.69284   0.07228   0.68598   0.00000  Uiso   1.00
C809   C     0.99907   0.03853   0.64918   0.00000  Uiso   1.00
H810   H     0.94757   0.02715   0.65954   0.00000  Uiso   1.00
H811   H     0.67897   0.06064   0.61938   0.00000  Uiso   1.00
H812   H     0.68401   0.00182   0.64106   0.00000  Uiso   1.00
H813   H     0.74399   0.07948   0.67474   0.00000  Uiso   1.00
H814   H     0.67736   0.04907   0.71530   0.00000  Uiso   1.00
H815   H     0.95512   0.11191   0.69962   0.00000  Uiso   1.00
H816   H     0.69231   0.15078   0.66983   0.00000  Uiso   1.00
C817   C     0.18185   0.60003   0.75146   0.00000  Uiso   1.00
C818   C     0.15152   0.39997   0.74848   0.00000  Uiso   1.00
C819   C     0.09235   0.47544   0.53974   0.00000  Uiso   1.00
C820   C     0.23721   0.54072   0.96407   0.00000  Uiso   1.00
C821   C     0.05019   0.46332   0.51314   0.00000  Uiso   1.00
C822   C     0.27907   0.55376   0.99090   0.00000  Uiso   1.00
C823   C     0.18984   0.65639   0.75228   0.00000  Uiso   1.00
C824   C     0.14360   0.34361   0.74753   0.00000  Uiso   1.00
C825   C     0.12865   0.49638   0.83285   0.00000  Uiso   1.00
C826   C     0.20470   0.50401   0.66723   0.00000  Uiso   1.00
C827   C     0.10615   0.49200   0.88028   0.00000  Uiso   1.00
C828   C     0.22721   0.51155   0.62033   0.00000  Uiso   1.00
C829   C     0.02555   0.46119   0.94307   0.00000  Uiso   1.00
C830   C     0.30478   0.55250   0.56008   0.00000  Uiso   1.00
C831   C     0.04389   0.47021   0.89880   0.00000  Uiso   1.00
C832   C     0.28774   0.53904   0.60327   0.00000  Uiso   1.00
C833   C     0.14916   0.50681   0.90682   0.00000  Uiso   1.00
C834   C     0.18475   0.49601   0.59347   0.00000  Uiso   1.00
C835   C     0.13180   0.49883   0.95176   0.00000  Uiso   1.00
C836   C     0.19986   0.51092   0.55030   0.00000  Uiso   1.00
C837   C     0.06904   0.47450   0.96943   0.00000  Uiso   1.00
C838   C     0.26140   0.53898   0.53363   0.00000  Uiso   1.00
C839   C     0.17521   0.51286   0.97921   0.00000  Uiso   1.00
C840   C     0.15567   0.49922   0.52350   0.00000  Uiso   1.00
Cu841  Cu    0.10737   0.49441   0.74517   0.00000  Uiso   1.00
Cu842  Cu    0.22596   0.50559   0.75484   0.00000  Uiso   1.00
H843   H     0.00219   0.44506   0.52705   0.00000  Uiso   1.00
H844   H     0.32593   0.57542   0.97790   0.00000  Uiso   1.00
H845   H     0.13987   0.47256   0.60747   0.00000  Uiso   1.00
H846   H     0.19651   0.52297   0.89108   0.00000  Uiso   1.00
H847   H     0.32117   0.55154   0.62362   0.00000  Uiso   1.00
H848   H     0.00991   0.45846   0.87884   0.00000  Uiso   1.00
H849   H     0.31073   0.44309   0.95664   0.00000  Uiso   1.00
H850   H     0.01841   0.57419   0.54747   0.00000  Uiso   1.00
H851   H     0.07301   0.46669   0.57332   0.00000  Uiso   1.00
H852   H     0.25497   0.55436   0.93180   0.00000  Uiso   1.00
H853   H     0.23392   0.34770   0.75694   0.00000  Uiso   1.00
H854   H     0.09953   0.65229   0.74285   0.00000  Uiso   1.00
N855   N     0.31506   0.51401   0.76212   0.00000  Uiso   1.00
N856   N     0.01827   0.48599   0.73788   0.00000  Uiso   1.00
O857   O     0.12815   0.57142   0.74686   0.00000  Uiso   1.00
O858   O     0.20518   0.42858   0.75314   0.00000  Uiso   1.00
O859   O     0.22829   0.58086   0.75503   0.00000  Uiso   1.00
O860   O     0.10504   0.41914   0.74498   0.00000  Uiso   1.00
O861   O     0.08851   0.49263   0.80855   0.00000  Uiso   1.00
O862   O     0.24482   0.50737   0.69146   0.00000  Uiso   1.00
O863   O     0.18866   0.50207   0.81671   0.00000  Uiso   1.00
O864   O     0.14468   0.49793   0.68329   0.00000  Uiso   1.00
C865   C     0.32916   0.54236   0.80263   0.00000  Uiso   1.00
C866   C     0.30803   0.59510   0.81313   0.00000  Uiso   1.00
C867   C     0.00377   0.63012   0.84857   0.00000  Uiso   1.00
H868   H     0.32623   0.60884   0.87861   0.00000  Uiso   1.00
H869   H     0.05505   0.64185   0.83674   0.00000  Uiso   1.00
H870   H     0.31836   0.66660   0.85684   0.00000  Uiso   1.00
H871   H     0.32260   0.61726   0.78326   0.00000  Uiso   1.00
H872   H     0.25698   0.58821   0.82530   0.00000  Uiso   1.00
H873   H     0.30736   0.51678   0.83026   0.00000  Uiso   1.00
H874   H     0.04500   0.55466   0.80033   0.00000  Uiso   1.00
C875   C     0.00433   0.45804   0.69719   0.00000  Uiso   1.00
C876   C     0.02617   0.40562   0.68598   0.00000  Uiso   1.00
C877   C     0.33240   0.37187   0.64918   0.00000  Uiso   1.00
H878   H     0.28090   0.36049   0.65954   0.00000  Uiso   1.00
H879   H     0.01231   0.39398   0.61938   0.00000  Uiso   1.00
H880   H     0.01735   0.33515   0.64106   0.00000  Uiso   1.00
H881   H     0.07732   0.41281   0.67474   0.00000  Uiso   1.00
H882   H     0.01070   0.38240   0.71530   0.00000  Uiso   1.00
H883   H     0.28845   0.44524   0.69962   0.00000  Uiso   1.00
H884   H     0.02565   0.48412   0.66983   0.00000  Uiso   1.00
C885   C     0.51518   0.60003   0.75146   0.00000  Uiso   1.00
C886   C     0.48485   0.39997   0.74848   0.00000  Uiso   1.00
C887   C     0.42569   0.47544   0.53974   0.00000  Uiso   1.00
C888   C     0.57054   0.54072   0.96407   0.00000  Uiso   1.00
C889   C     0.38352   0.46332   0.51314   0.00000  Uiso   1.00
C890   C     0.61240   0.55376   0.99090   0.00000  Uiso   1.00
C891   C     0.52317   0.65639   0.75228   0.00000  Uiso   1.00
C892   C     0.47693   0.34361   0.74753   0.00000  Uiso   1.00
C893   C     0.46198   0.49638   0.83285   0.00000  Uiso   1.00
C894   C     0.53804   0.50401   0.66723   0.00000  Uiso   1.00
C895   C     0.43949   0.49200   0.88028   0.00000  Uiso   1.00
C896   C     0.56055   0.51155   0.62033   0.00000  Uiso   1.00
C897   C     0.35888   0.46119   0.94307   0.00000  Uiso   1.00
C898   C     0.63812   0.55250   0.56008   0.00000  Uiso   1.00
C899   C     0.37722   0.47021   0.89880   0.00000  Uiso   1.00
C900   C     0.62107   0.53904   0.60327   0.00000  Uiso   1.00
C901   C     0.48249   0.50681   0.90682   0.00000  Uiso   1.00
C902   C     0.51808   0.49601   0.59347   0.00000  Uiso   1.00
C903   C     0.46513   0.49883   0.95176   0.00000  Uiso   1.00
C904   C     0.53320   0.51092   0.55030   0.00000  Uiso   1.00
C905   C     0.40237   0.47450   0.96943   0.00000  Uiso   1.00
C906   C     0.59473   0.53898   0.53363   0.00000  Uiso   1.00
C907   C     0.50854   0.51286   0.97921   0.00000  Uiso   1.00
C908   C     0.48900   0.49922   0.52350   0.00000  Uiso   1.00
Cu909  Cu    0.44071   0.49441   0.74517   0.00000  Uiso   1.00
Cu910  Cu    0.55929   0.50559   0.75484   0.00000  Uiso   1.00
H911   H     0.33553   0.44506   0.52705   0.00000  Uiso   1.00
H912   H     0.65927   0.57542   0.97790   0.00000  Uiso   1.00
H913   H     0.47321   0.47256   0.60747   0.00000  Uiso   1.00
H914   H     0.52985   0.52297   0.89108   0.00000  Uiso   1.00
H915   H     0.65450   0.55154   0.62362   0.00000  Uiso   1.00
H916   H     0.34325   0.45846   0.87884   0.00000  Uiso   1.00
H917   H     0.64407   0.44309   0.95664   0.00000  Uiso   1.00
H918   H     0.35175   0.57419   0.54747   0.00000  Uiso   1.00
H919   H     0.40635   0.46669   0.57332   0.00000  Uiso   1.00
H920   H     0.58830   0.55436   0.93180   0.00000  Uiso   1.00
H921   H     0.56726   0.34770   0.75694   0.00000  Uiso   1.00
H922   H     0.43286   0.65229   0.74285   0.00000  Uiso   1.00
N923   N     0.64839   0.51401   0.76212   0.00000  Uiso   1.00
N924   N     0.35161   0.48599   0.73788   0.00000  Uiso   1.00
O925   O     0.46148   0.57142   0.74686   0.00000  Uiso   1.00
O926   O     0.53852   0.42858   0.75314   0.00000  Uiso   1.00
O927   O     0.56163   0.58086   0.75503   0.00000  Uiso   1.00
O928   O     0.43837   0.41914   0.74498   0.00000  Uiso   1.00
O929   O     0.42185   0.49263   0.80855   0.00000  Uiso   1.00
O930   O     0.57815   0.50737   0.69146   0.00000  Uiso   1.00
O931   O     0.52199   0.50207   0.81671   0.00000  Uiso   1.00
O932   O     0.47801   0.49793   0.68329   0.00000  Uiso   1.00
C933   C     0.66249   0.54236   0.80263   0.00000  Uiso   1.00
C934   C     0.64137   0.59510   0.81313   0.00000  Uiso   1.00
C935   C     0.33710   0.63012   0.84857   0.00000  Uiso   1.00
H936   H     0.65956   0.60884   0.87861   0.00000  Uiso   1.00
H937   H     0.38838   0.64185   0.83674   0.00000  Uiso   1.00
H938   H     0.65169   0.66660   0.85684   0.00000  Uiso   1.00
H939   H     0.65594   0.61726   0.78326   0.00000  Uiso   1.00
H940   H     0.59031   0.58821   0.82530   0.00000  Uiso   1.00
H941   H     0.64070   0.51678   0.83026   0.00000  Uiso   1.00
H942   H     0.37834   0.55466   0.80033   0.00000  Uiso   1.00
C943   C     0.33767   0.45804   0.69719   0.00000  Uiso   1.00
C944   C     0.35951   0.40562   0.68598   0.00000  Uiso   1.00
C945   C     0.66574   0.37187   0.64918   0.00000  Uiso   1.00
H946   H     0.61423   0.36049   0.65954   0.00000  Uiso   1.00
H947   H     0.34564   0.39398   0.61938   0.00000  Uiso   1.00
H948   H     0.35068   0.33515   0.64106   0.00000  Uiso   1.00
H949   H     0.41065   0.41281   0.67474   0.00000  Uiso   1.00
H950   H     0.34403   0.38240   0.71530   0.00000  Uiso   1.00
H951   H     0.62179   0.44524   0.69962   0.00000  Uiso   1.00
H952   H     0.35898   0.48412   0.66983   0.00000  Uiso   1.00
C953   C     0.84852   0.60003   0.75146   0.00000  Uiso   1.00
C954   C     0.81818   0.39997   0.74848   0.00000  Uiso   1.00
C955   C     0.75902   0.47544   0.53974   0.00000  Uiso   1.00
C956   C     0.90387   0.54072   0.96407   0.00000  Uiso   1.00
C957   C     0.71685   0.46332   0.51314   0.00000  Uiso   1.00
C958   C     0.94573   0.55376   0.99090   0.00000  Uiso   1.00
C959   C     0.85651   0.65639   0.75228   0.00000  Uiso   1.00
C960   C     0.81026   0.34361   0.74753   0.00000  Uiso   1.00
C961   C     0.79531   0.49638   0.83285   0.00000  Uiso   1.00
C962   C     0.87137   0.50401   0.66723   0.00000  Uiso   1.00
C963   C     0.77282   0.49200   0.88028   0.00000  Uiso   1.00
C964   C     0.89388   0.51155   0.62033   0.00000  Uiso   1.00
C965   C     0.69221   0.46119   0.94307   0.00000  Uiso   1.00
C966   C     0.97145   0.55250   0.56008   0.00000  Uiso   1.00
C967   C     0.71056   0.47021   0.89880   0.00000  Uiso   1.00
C968   C     0.95440   0.53904   0.60327   0.00000  Uiso   1.00
C969   C     0.81583   0.50681   0.90682   0.00000  Uiso   1.00
C970   C     0.85141   0.49601   0.59347   0.00000  Uiso   1.00
C971   C     0.79846   0.49883   0.95176   0.00000  Uiso   1.00
C972   C     0.86653   0.51092   0.55030   0.00000  Uiso   1.00
C973   C     0.73570   0.47450   0.96943   0.00000  Uiso   1.00
C974   C     0.92807   0.53898   0.53363   0.00000  Uiso   1.00
C975   C     0.84188   0.51286   0.97921   0.00000  Uiso   1.00
C976   C     0.82234   0.49922   0.52350   0.00000  Uiso   1.00
Cu977  Cu    0.77404   0.49441   0.74517   0.00000  Uiso   1.00
Cu978  Cu    0.89263   0.50559   0.75484   0.00000  Uiso   1.00
H979   H     0.66886   0.44506   0.52705   0.00000  Uiso   1.00
H980   H     0.99260   0.57542   0.97790   0.00000  Uiso   1.00
H981   H     0.80654   0.47256   0.60747   0.00000  Uiso   1.00
H982   H     0.86318   0.52297   0.89108   0.00000  Uiso   1.00
H983   H     0.98784   0.55154   0.62362   0.00000  Uiso   1.00
H984   H     0.67658   0.45846   0.87884   0.00000  Uiso   1.00
H985   H     0.97740   0.44309   0.95664   0.00000  Uiso   1.00
H986   H     0.68508   0.57419   0.54747   0.00000  Uiso   1.00
H987   H     0.73968   0.46669   0.57332   0.00000  Uiso   1.00
H988   H     0.92164   0.55436   0.93180   0.00000  Uiso   1.00
H989   H     0.90059   0.34770   0.75694   0.00000  Uiso   1.00
H990   H     0.76619   0.65229   0.74285   0.00000  Uiso   1.00
N991   N     0.98173   0.51401   0.76212   0.00000  Uiso   1.00
N992   N     0.68494   0.48599   0.73788   0.00000  Uiso   1.00
O993   O     0.79482   0.57142   0.74686   0.00000  Uiso   1.00
O994   O     0.87185   0.42858   0.75314   0.00000  Uiso   1.00
O995   O     0.89496   0.58086   0.75503   0.00000  Uiso   1.00
O996   O     0.77171   0.41914   0.74498   0.00000  Uiso   1.00
O997   O     0.75518   0.49263   0.80855   0.00000  Uiso   1.00
O998   O     0.91149   0.50737   0.69146   0.00000  Uiso   1.00
O999   O     0.85532   0.50207   0.81671   0.00000  Uiso   1.00
O1000  O     0.81134   0.49793   0.68329   0.00000  Uiso   1.00
C1001  C     0.99583   0.54236   0.80263   0.00000  Uiso   1.00
C1002  C     0.97470   0.59510   0.81313   0.00000  Uiso   1.00
C1003  C     0.67044   0.63012   0.84857   0.00000  Uiso   1.00
H1004  H     0.99289   0.60884   0.87861   0.00000  Uiso   1.00
H1005  H     0.72172   0.64185   0.83674   0.00000  Uiso   1.00
H1006  H     0.98503   0.66660   0.85684   0.00000  Uiso   1.00
H1007  H     0.98927   0.61726   0.78326   0.00000  Uiso   1.00
H1008  H     0.92364   0.58821   0.82530   0.00000  Uiso   1.00
H1009  H     0.97403   0.51678   0.83026   0.00000  Uiso   1.00
H1010  H     0.71167   0.55466   0.80033   0.00000  Uiso   1.00
C1011  C     0.67100   0.45804   0.69719   0.00000  Uiso   1.00
C1012  C     0.69284   0.40562   0.68598   0.00000  Uiso   1.00
C1013  C     0.99907   0.37187   0.64918   0.00000  Uiso   1.00
H1014  H     0.94757   0.36049   0.65954   0.00000  Uiso   1.00
H1015  H     0.67897   0.39398   0.61938   0.00000  Uiso   1.00
H1016  H     0.68401   0.33515   0.64106   0.00000  Uiso   1.00
H1017  H     0.74399   0.41281   0.67474   0.00000  Uiso   1.00
H1018  H     0.67736   0.38240   0.71530   0.00000  Uiso   1.00
H1019  H     0.95512   0.44524   0.69962   0.00000  Uiso   1.00
H1020  H     0.69231   0.48412   0.66983   0.00000  Uiso   1.00
C1021  C     0.18185   0.93336   0.75146   0.00000  Uiso   1.00
C1022  C     0.15152   0.73330   0.74848   0.00000  Uiso   1.00
C1023  C     0.09235   0.80878   0.53974   0.00000  Uiso   1.00
C1024  C     0.23721   0.87405   0.96407   0.00000  Uiso   1.00
C1025  C     0.05019   0.79665   0.51314   0.00000  Uiso   1.00
C1026  C     0.27907   0.88709   0.99090   0.00000  Uiso   1.00
C1027  C     0.18984   0.98972   0.75228   0.00000  Uiso   1.00
C1028  C     0.14360   0.67694   0.74753   0.00000  Uiso   1.00
C1029  C     0.12865   0.82971   0.83285   0.00000  Uiso   1.00
C1030  C     0.20470   0.83735   0.66723   0.00000  Uiso   1.00
C1031  C     0.10615   0.82533   0.88028   0.00000  Uiso   1.00
C1032  C     0.22721   0.84489   0.62033   0.00000  Uiso   1.00
C1033  C     0.02555   0.79452   0.94307   0.00000  Uiso   1.00
C1034  C     0.30478   0.88584   0.56008   0.00000  Uiso   1.00
C1035  C     0.04389   0.80355   0.89880   0.00000  Uiso   1.00
C1036  C     0.28774   0.87237   0.60327   0.00000  Uiso   1.00
C1037  C     0.14916   0.84014   0.90682   0.00000  Uiso   1.00
C1038  C     0.18475   0.82935   0.59347   0.00000  Uiso   1.00
C1039  C     0.13180   0.83216   0.95176   0.00000  Uiso   1.00
C1040  C     0.19986   0.84425   0.55030   0.00000  Uiso   1.00
C1041  C     0.06904   0.80783   0.96943   0.00000  Uiso   1.00
C1042  C     0.26140   0.87231   0.53363   0.00000  Uiso   1.00
C1043  C     0.17521   0.84619   0.97921   0.00000  Uiso   1.00
C1044  C     0.15567   0.83256   0.52350   0.00000  Uiso   1.00
Cu1045 Cu    0.10737   0.82775   0.74517   0.00000  Uiso   1.00
Cu1046 Cu    0.22596   0.83892   0.75484   0.00000  Uiso   1.00
H1047  H     0.00219   0.77839   0.52705   0.00000  Uiso   1.00
H1048  H     0.32593   0.90875   0.97790   0.00000  Uiso   1.00
H1049  H     0.13987   0.80590   0.60747   0.00000  Uiso   1.00
H1050  H     0.19651   0.85630   0.89108   0.00000  Uiso   1.00
H1051  H     0.32117   0.88488   0.62362   0.00000  Uiso   1.00
H1052  H     0.00991   0.79180   0.87884   0.00000  Uiso   1.00
H1053  H     0.31073   0.77643   0.95664   0.00000  Uiso   1.00
H1054  H     0.01841   0.90753   0.54747   0.00000  Uiso   1.00
H1055  H     0.07301   0.80002   0.57332   0.00000  Uiso   1.00
H1056  H     0.25497   0.88770   0.93180   0.00000  Uiso   1.00
H1057  H     0.23392   0.68103   0.75694   0.00000  Uiso   1.00
H1058  H     0.09953   0.98563   0.74285   0.00000  Uiso   1.00
N1059  N     0.31506   0.84735   0.76212   0.00000  Uiso   1.00
N1060  N     0.01827   0.81932   0.73788   0.00000  Uiso   1.00
O1061  O     0.12815   0.90476   0.74686   0.00000  Uiso   1.00
O1062  O     0.20518   0.76191   0.75314   0.00000  Uiso   1.00
O1063  O     0.22829   0.91420   0.75503   0.00000  Uiso   1.00
O1064  O     0.10504   0.75247   0.74498   0.00000  Uiso   1.00
O1065  O     0.08851   0.82597   0.80855   0.00000  Uiso   1.00
O1066  O     0.24482   0.84070   0.69146   0.00000  Uiso   1.00
O1067  O     0.18866   0.83540   0.81671   0.00000  Uiso   1.00
O1068  O     0.14468   0.83126   0.68329   0.00000  Uiso   1.00
C1069  C     0.32916   0.87570   0.80263   0.00000  Uiso   1.00
C1070  C     0.30803   0.92844   0.81313   0.00000  Uiso   1.00
C1071  C     0.00377   0.96346   0.84857   0.00000  Uiso   1.00
H1072  H     0.32623   0.94217   0.87861   0.00000  Uiso   1.00
H1073  H     0.05505   0.97518   0.83674   0.00000  Uiso   1.00
H1074  H     0.31836   0.99993   0.85684   0.00000  Uiso   1.00
H1075  H     0.32260   0.95059   0.78326   0.00000  Uiso   1.00
H1076  H     0.25698   0.92154   0.82530   0.00000  Uiso   1.00
H1077  H     0.30736   0.85011   0.83026   0.00000  Uiso   1.00
H1078  H     0.04500   0.88799   0.80033   0.00000  Uiso   1.00
C1079  C     0.00433   0.79137   0.69719   0.00000  Uiso   1.00
C1080  C     0.02617   0.73895   0.68598   0.00000  Uiso   1.00
C1081  C     0.33240   0.70520   0.64918   0.00000  Uiso   1.00
H1082  H     0.28090   0.69382   0.65954   0.00000  Uiso   1.00
H1083  H     0.01231   0.72731   0.61938   0.00000  Uiso   1.00
H1084  H     0.01735   0.66849   0.64106   0.00000  Uiso   1.00
H1085  H     0.07732   0.74615   0.67474   0.00000  Uiso   1.00
H1086  H     0.01070   0.71573   0.71530   0.00000  Uiso   1.00
H1087  H     0.28845   0.77858   0.69962   0.00000  Uiso   1.00
H1088  H     0.02565   0.81745   0.66983   0.00000  Uiso   1.00
C1089  C     0.51518   0.93336   0.75146   0.00000  Uiso   1.00
C1090  C     0.48485   0.73330   0.74848   0.00000  Uiso   1.00
C1091  C     0.42569   0.80878   0.53974   0.00000  Uiso   1.00
C1092  C     0.57054   0.87405   0.96407   0.00000  Uiso   1.00
C1093  C     0.38352   0.79665   0.51314   0.00000  Uiso   1.00
C1094  C     0.61240   0.88709   0.99090   0.00000  Uiso   1.00
C1095  C     0.52317   0.98972   0.75228   0.00000  Uiso   1.00
C1096  C     0.47693   0.67694   0.74753   0.00000  Uiso   1.00
C1097  C     0.46198   0.82971   0.83285   0.00000  Uiso   1.00
C1098  C     0.53804   0.83735   0.66723   0.00000  Uiso   1.00
C1099  C     0.43949   0.82533   0.88028   0.00000  Uiso   1.00
C1100  C     0.56055   0.84489   0.62033   0.00000  Uiso   1.00
C1101  C     0.35888   0.79452   0.94307   0.00000  Uiso   1.00
C1102  C     0.63812   0.88584   0.56008   0.00000  Uiso   1.00
C1103  C     0.37722   0.80355   0.89880   0.00000  Uiso   1.00
C1104  C     0.62107   0.87237   0.60327   0.00000  Uiso   1.00
C1105  C     0.48249   0.84014   0.90682   0.00000  Uiso   1.00
C1106  C     0.51808   0.82935   0.59347   0.00000  Uiso   1.00
C1107  C     0.46513   0.83216   0.95176   0.00000  Uiso   1.00
C1108  C     0.53320   0.84425   0.55030   0.00000  Uiso   1.00
C1109  C     0.40237   0.80783   0.96943   0.00000  Uiso   1.00
C1110  C     0.59473   0.87231   0.53363   0.00000  Uiso   1.00
C1111  C     0.50854   0.84619   0.97921   0.00000  Uiso   1.00
C1112  C     0.48900   0.83256   0.52350   0.00000  Uiso   1.00
Cu1113 Cu    0.44071   0.82775   0.74517   0.00000  Uiso   1.00
Cu1114 Cu    0.55929   0.83892   0.75484   0.00000  Uiso   1.00
H1115  H     0.33553   0.77839   0.52705   0.00000  Uiso   1.00
H1116  H     0.65927   0.90875   0.97790   0.00000  Uiso   1.00
H1117  H     0.47321   0.80590   0.60747   0.00000  Uiso   1.00
H1118  H     0.52985   0.85630   0.89108   0.00000  Uiso   1.00
H1119  H     0.65450   0.88488   0.62362   0.00000  Uiso   1.00
H1120  H     0.34325   0.79180   0.87884   0.00000  Uiso   1.00
H1121  H     0.64407   0.77643   0.95664   0.00000  Uiso   1.00
H1122  H     0.35175   0.90753   0.54747   0.00000  Uiso   1.00
H1123  H     0.40635   0.80002   0.57332   0.00000  Uiso   1.00
H1124  H     0.58830   0.88770   0.93180   0.00000  Uiso   1.00
H1125  H     0.56726   0.68103   0.75694   0.00000  Uiso   1.00
H1126  H     0.43286   0.98563   0.74285   0.00000  Uiso   1.00
N1127  N     0.64839   0.84735   0.76212   0.00000  Uiso   1.00
N1128  N     0.35161   0.81932   0.73788   0.00000  Uiso   1.00
O1129  O     0.46148   0.90476   0.74686   0.00000  Uiso   1.00
O1130  O     0.53852   0.76191   0.75314   0.00000  Uiso   1.00
O1131  O     0.56163   0.91420   0.75503   0.00000  Uiso   1.00
O1132  O     0.43837   0.75247   0.74498   0.00000  Uiso   1.00
O1133  O     0.42185   0.82597   0.80855   0.00000  Uiso   1.00
O1134  O     0.57815   0.84070   0.69146   0.00000  Uiso   1.00
O1135  O     0.52199   0.83540   0.81671   0.00000  Uiso   1.00
O1136  O     0.47801   0.83126   0.68329   0.00000  Uiso   1.00
C1137  C     0.66249   0.87570   0.80263   0.00000  Uiso   1.00
C1138  C     0.64137   0.92844   0.81313   0.00000  Uiso   1.00
C1139  C     0.33710   0.96346   0.84857   0.00000  Uiso   1.00
H1140  H     0.65956   0.94217   0.87861   0.00000  Uiso   1.00
H1141  H     0.38838   0.97518   0.83674   0.00000  Uiso   1.00
H1142  H     0.65169   0.99993   0.85684   0.00000  Uiso   1.00
H1143  H     0.65594   0.95059   0.78326   0.00000  Uiso   1.00
H1144  H     0.59031   0.92154   0.82530   0.00000  Uiso   1.00
H1145  H     0.64070   0.85011   0.83026   0.00000  Uiso   1.00
H1146  H     0.37834   0.88799   0.80033   0.00000  Uiso   1.00
C1147  C     0.33767   0.79137   0.69719   0.00000  Uiso   1.00
C1148  C     0.35951   0.73895   0.68598   0.00000  Uiso   1.00
C1149  C     0.66574   0.70520   0.64918   0.00000  Uiso   1.00
H1150  H     0.61423   0.69382   0.65954   0.00000  Uiso   1.00
H1151  H     0.34564   0.72731   0.61938   0.00000  Uiso   1.00
H1152  H     0.35068   0.66849   0.64106   0.00000  Uiso   1.00
H1153  H     0.41065   0.74615   0.67474   0.00000  Uiso   1.00
H1154  H     0.34403   0.71573   0.71530   0.00000  Uiso   1.00
H1155  H     0.62179   0.77858   0.69962   0.00000  Uiso   1.00
H1156  H     0.35898   0.81745   0.66983   0.00000  Uiso   1.00
C1157  C     0.84852   0.93336   0.75146   0.00000  Uiso   1.00
C1158  C     0.81818   0.73330   0.74848   0.00000  Uiso   1.00
C1159  C     0.75902   0.80878   0.53974   0.00000  Uiso   1.00
C1160  C     0.90387   0.87405   0.96407   0.00000  Uiso   1.00
C1161  C     0.71685   0.79665   0.51314   0.00000  Uiso   1.00
C1162  C     0.94573   0.88709   0.99090   0.00000  Uiso   1.00
C1163  C     0.85651   0.98972   0.75228   0.00000  Uiso   1.00
C1164  C     0.81026   0.67694   0.74753   0.00000  Uiso   1.00
C1165  C     0.79531   0.82971   0.83285   0.00000  Uiso   1.00
C1166  C     0.87137   0.83735   0.66723   0.00000  Uiso   1.00
C1167  C     0.77282   0.82533   0.88028   0.00000  Uiso   1.00
C1168  C     0.89388   0.84489   0.62033   0.00000  Uiso   1.00
C1169  C     0.69221   0.79452   0.94307   0.00000  Uiso   1.00
C1170  C     0.97145   0.88584   0.56008   0.00000  Uiso   1.00
C1171  C     0.71056   0.80355   0.89880   0.00000  Uiso   1.00
C1172  C     0.95440   0.87237   0.60327   0.00000  Uiso   1.00
C1173  C     0.81583   0.84014   0.90682   0.00000  Uiso   1.00
C1174  C     0.85141   0.82935   0.59347   0.00000  Uiso   1.00
C1175  C     0.79846   0.83216   0.95176   0.00000  Uiso   1.00
C1176  C     0.86653   0.84425   0.55030   0.00000  Uiso   1.00
C1177  C     0.73570   0.80783   0.96943   0.00000  Uiso   1.00
C1178  C     0.92807   0.87231   0.53363   0.00000  Uiso   1.00
C1179  C     0.84188   0.84619   0.97921   0.00000  Uiso   1.00
C1180  C     0.82234   0.83256   0.52350   0.00000  Uiso   1.00
Cu1181 Cu    0.77404   0.82775   0.74517   0.00000  Uiso   1.00
Cu1182 Cu    0.89263   0.83892   0.75484   0.00000  Uiso   1.00
H1183  H     0.66886   0.77839   0.52705   0.00000  Uiso   1.00
H1184  H     0.99260   0.90875   0.97790   0.00000  Uiso   1.00
H1185  H     0.80654   0.80590   0.60747   0.00000  Uiso   1.00
H1186  H     0.86318   0.85630   0.89108   0.00000  Uiso   1.00
H1187  H     0.98784   0.88488   0.62362   0.00000  Uiso   1.00
H1188  H     0.67658   0.79180   0.87884   0.00000  Uiso   1.00
H1189  H     0.97740   0.77643   0.95664   0.00000  Uiso   1.00
H1190  H     0.68508   0.90753   0.54747   0.00000  Uiso   1.00
H1191  H     0.73968   0.80002   0.57332   0.00000  Uiso   1.00
H1192  H     0.92164   0.88770   0.93180   0.00000  Uiso   1.00
H1193  H     0.90059   0.68103   0.75694   0.00000  Uiso   1.00
H1194  H     0.76619   0.98563   0.74285   0.00000  Uiso   1.00
N1195  N     0.98173   0.84735   0.76212   0.00000  Uiso   1.00
N1196  N     0.68494   0.81932   0.73788   0.00000  Uiso   1.00
O1197  O     0.79482   0.90476   0.74686   0.00000  Uiso   1.00
O1198  O     0.87185   0.76191   0.75314   0.00000  Uiso   1.00
O1199  O     0.89496   0.91420   0.75503   0.00000  Uiso   1.00
O1200  O     0.77171   0.75247   0.74498   0.00000  Uiso   1.00
O1201  O     0.75518   0.82597   0.80855   0.00000  Uiso   1.00
O1202  O     0.91149   0.84070   0.69146   0.00000  Uiso   1.00
O1203  O     0.85532   0.83540   0.81671   0.00000  Uiso   1.00
O1204  O     0.81134   0.83126   0.68329   0.00000  Uiso   1.00
C1205  C     0.99583   0.87570   0.80263   0.00000  Uiso   1.00
C1206  C     0.97470   0.92844   0.81313   0.00000  Uiso   1.00
C1207  C     0.67044   0.96346   0.84857   0.00000  Uiso   1.00
H1208  H     0.99289   0.94217   0.87861   0.00000  Uiso   1.00
H1209  H     0.72172   0.97518   0.83674   0.00000  Uiso   1.00
H1210  H     0.98503   0.99993   0.85684   0.00000  Uiso   1.00
H1211  H     0.98927   0.95059   0.78326   0.00000  Uiso   1.00
H1212  H     0.92364   0.92154   0.82530   0.00000  Uiso   1.00
H1213  H     0.97403   0.85011   0.83026   0.00000  Uiso   1.00
H1214  H     0.71167   0.88799   0.80033   0.00000  Uiso   1.00
C1215  C     0.67100   0.79137   0.69719   0.00000  Uiso   1.00
C1216  C     0.69284   0.73895   0.68598   0.00000  Uiso   1.00
C1217  C     0.99907   0.70520   0.64918   0.00000  Uiso   1.00
H1218  H     0.94757   0.69382   0.65954   0.00000  Uiso   1.00
H1219  H     0.67897   0.72731   0.61938   0.00000  Uiso   1.00
H1220  H     0.68401   0.66849   0.64106   0.00000  Uiso   1.00
H1221  H     0.74399   0.74615   0.67474   0.00000  Uiso   1.00
H1222  H     0.67736   0.71573   0.71530   0.00000  Uiso   1.00
H1223  H     0.95512   0.77858   0.69962   0.00000  Uiso   1.00
H1224  H     0.69231   0.81745   0.66983   0.00000  Uiso   1.00
loop_
_geom_bond_atom_site_label_1
_geom_bond_atom_site_label_2
_geom_bond_distance
_geom_bond_site_symmetry_2
_ccdc_geom_bond_type
C1     C7      1.437   .     S
C1     O41     1.301   .     A
C1     O43     1.310   .     A
C2     O42     1.301   .     A
C2     C8      1.437   .     S
C2     O44     1.310   .     A
C3     H35     1.075   .     S
C3     C5      1.387   .     A
C3     C24     1.416   .     A
C4     H36     1.074   .     S
C4     C6      1.386   .     A
C4     C23     1.416   .     A
C5     H27     1.085   .     S
C5     C633    1.390   1_554 S
C6     H28     1.085   .     S
C6     C634    1.389   .     S
C7     C212    1.341   .     S
C7     H241    1.087   .     S
C8     C415    1.341   1_545 S
C8     H446    1.086   1_545 S
C9     C11     1.469   .     S
C9     O45     1.315   .     A
C9     O47     1.312   .     A
C10    O46     1.315   .     A
C10    C12     1.466   .     S
C10    O48     1.311   .     A
C11    C17     1.400   .     A
C11    C15     1.399   .     A
C12    C18     1.399   .     A
C12    C16     1.398   .     A
C13    C21     1.404   .     A
C13    C15     1.392   .     A
C13    H169    1.084   1_455 S
C14    C22     1.404   .     A
C14    C16     1.392   .     A
C14    H102    1.084   .     S
C15    H32     1.083   .     S
C16    H31     1.083   .     S
C17    H30     1.074   .     S
C17    C19     1.407   .     A
C18    C20     1.406   .     A
C18    H29     1.075   .     S
C19    C23     1.429   .     A
C19    C21     1.418   .     A
C20    C22     1.418   .     A
C20    C24     1.429   .     A
C21    C617    1.390   .     S
C22    C618    1.389   1_554 S
C23    C636    1.425   .     S
C24    C635    1.425   1_554 S
Cu25   O41     1.949   .     S
Cu25   O48     1.933   .     S
Cu25   O44     1.954   .     S
Cu25   N40     2.057   .     S
Cu25   O45     1.947   .     S
Cu25   Cu26    2.737   .     S
Cu26   O47     1.933   .     S
Cu26   O43     1.954   .     S
Cu26   N39     2.057   .     S
Cu26   O46     1.947   .     S
Cu26   O42     1.949   .     S
H33    C81     1.084   .     S
H34    C150    1.084   1_455 S
H37    C415    1.087   1_545 S
H38    C212    1.086   .     S
N39    C49     1.461   .     S
N39    N108    1.281   .     S
N40    C59     1.461   .     S
N40    N175    1.281   1_455 S
C49    H57     1.111   .     S
C49    C50     1.536   .     S
C49    H126    1.074   .     S
C50    H55     1.111   .     S
C50    H56     1.106   .     S
C50    C119    1.530   .     S
C51    H53     1.111   .     S
C51    C186    1.530   1_455 S
C51    H188    1.109   1_455 S
C51    H190    1.111   1_455 S
H52    C119    1.109   .     S
H54    C119    1.111   .     S
H58    C185    1.074   1_455 S
C59    H68     1.111   .     S
C59    C60     1.537   .     S
C59    H203    1.075   1_455 S
C60    H65     1.105   .     S
C60    H66     1.111   .     S
C60    C197    1.530   1_455 S
C61    H62     1.111   .     S
C61    C128    1.530   .     S
C61    H131    1.110   .     S
C61    H132    1.111   .     S
H63    C197    1.110   1_455 S
H64    C197    1.111   1_455 S
H67    C127    1.075   .     S
C69    C75     1.437   .     S
C69    O109    1.301   .     A
C69    O111    1.310   .     A
C70    O110    1.301   .     A
C70    C76     1.437   .     S
C70    O112    1.310   .     A
C71    H103    1.075   .     S
C71    C73     1.387   .     A
C71    C92     1.416   .     A
C72    H104    1.074   .     S
C72    C74     1.386   .     A
C72    C91     1.416   .     A
C73    H95     1.085   .     S
C73    C701    1.390   1_554 S
C74    H96     1.085   .     S
C74    C702    1.389   .     S
C75    C280    1.341   .     S
C75    H309    1.087   .     S
C76    C483    1.341   1_545 S
C76    H514    1.086   1_545 S
C77    C79     1.469   .     S
C77    O113    1.315   .     A
C77    O115    1.312   .     A
C78    O114    1.315   .     A
C78    C80     1.466   .     S
C78    O116    1.311   .     A
C79    C85     1.400   .     A
C79    C83     1.399   .     A
C80    C86     1.399   .     A
C80    C84     1.398   .     A
C81    C89     1.404   .     A
C81    C83     1.392   .     A
C82    C90     1.404   .     A
C82    C84     1.392   .     A
C82    H170    1.084   .     S
C83    H100    1.083   .     S
C84    H99     1.083   .     S
C85    H98     1.074   .     S
C85    C87     1.407   .     A
C86    C88     1.406   .     A
C86    H97     1.075   .     S
C87    C91     1.429   .     A
C87    C89     1.418   .     A
C88    C90     1.418   .     A
C88    C92     1.429   .     A
C89    C685    1.390   .     S
C90    C686    1.389   1_554 S
C91    C704    1.425   .     S
C92    C703    1.425   1_554 S
Cu93   O109    1.949   .     S
Cu93   O116    1.933   .     S
Cu93   O112    1.954   .     S
Cu93   N108    2.057   .     S
Cu93   O113    1.947   .     S
Cu93   Cu94    2.737   .     S
Cu94   O115    1.933   .     S
Cu94   O111    1.954   .     S
Cu94   N107    2.057   .     S
Cu94   O114    1.947   .     S
Cu94   O110    1.949   .     S
H101   C149    1.084   .     S
H105   C483    1.087   1_545 S
H106   C280    1.086   .     S
N107   C117    1.461   .     S
N107   N176    1.281   .     S
N108   C127    1.461   .     S
C117   H125    1.111   .     S
C117   C118    1.536   .     S
C117   H194    1.074   .     S
C118   H123    1.111   .     S
C118   H124    1.106   .     S
C118   C187    1.530   .     S
C119   H121    1.111   .     S
H120   C187    1.109   .     S
H122   C187    1.111   .     S
C127   H136    1.111   .     S
C127   C128    1.537   .     S
C128   H133    1.105   .     S
C128   H134    1.111   .     S
C129   H130    1.111   .     S
C129   C196    1.530   .     S
C129   H199    1.110   .     S
C129   H200    1.111   .     S
H135   C195    1.075   .     S
C137   C143    1.437   .     S
C137   O177    1.301   .     A
C137   O179    1.310   .     A
C138   O178    1.301   .     A
C138   C144    1.437   .     S
C138   O180    1.310   .     A
C139   H171    1.075   .     S
C139   C141    1.387   .     A
C139   C160    1.416   .     A
C140   H172    1.074   .     S
C140   C142    1.386   .     A
C140   C159    1.416   .     A
C141   H163    1.085   .     S
C141   C769    1.390   1_554 S
C142   H164    1.085   .     S
C142   C770    1.389   .     S
C143   C348    1.341   .     S
C143   H377    1.087   .     S
C144   C551    1.341   1_545 S
C144   H582    1.086   1_545 S
C145   C147    1.469   .     S
C145   O181    1.315   .     A
C145   O183    1.312   .     A
C146   O182    1.315   .     A
C146   C148    1.466   .     S
C146   O184    1.311   .     A
C147   C153    1.400   .     A
C147   C151    1.399   .     A
C148   C154    1.399   .     A
C148   C152    1.398   .     A
C149   C157    1.404   .     A
C149   C151    1.392   .     A
C150   C158    1.404   .     A
C150   C152    1.392   .     A
C150   H34     1.084   1_655 S
C151   H168    1.083   .     S
C152   H167    1.083   .     S
C153   H166    1.074   .     S
C153   C155    1.407   .     A
C154   C156    1.406   .     A
C154   H165    1.075   .     S
C155   C159    1.429   .     A
C155   C157    1.418   .     A
C156   C158    1.418   .     A
C156   C160    1.429   .     A
C157   C753    1.390   .     S
C158   C754    1.389   1_554 S
C159   C772    1.425   .     S
C160   C771    1.425   1_554 S
Cu161  O177    1.949   .     S
Cu161  O184    1.933   .     S
Cu161  O180    1.954   .     S
Cu161  N176    2.057   .     S
Cu161  O181    1.947   .     S
Cu161  Cu162   2.737   .     S
Cu162  O183    1.933   .     S
Cu162  O179    1.954   .     S
Cu162  N175    2.057   .     S
Cu162  O182    1.947   .     S
Cu162  O178    1.949   .     S
H169   C13     1.084   1_655 S
H173   C551    1.087   1_545 S
H174   C348    1.086   .     S
N175   C185    1.461   .     S
N175   N40     1.281   1_655 S
N176   C195    1.461   .     S
C185   H193    1.111   .     S
C185   C186    1.536   .     S
C185   H58     1.074   1_655 S
C186   H191    1.111   .     S
C186   H192    1.106   .     S
C186   C51     1.530   1_655 S
C187   H189    1.111   .     S
H188   C51     1.109   1_655 S
H190   C51     1.111   1_655 S
C195   H204    1.111   .     S
C195   C196    1.537   .     S
C196   H201    1.105   .     S
C196   H202    1.111   .     S
C197   H198    1.111   .     S
C197   C60     1.530   1_655 S
C197   H63     1.110   1_655 S
C197   H64     1.111   1_655 S
H203   C59     1.075   1_655 S
C205   C211    1.437   .     S
C205   O245    1.301   .     A
C205   O247    1.310   .     A
C206   O246    1.301   .     A
C206   C212    1.437   .     S
C206   O248    1.310   .     A
C207   H239    1.075   .     S
C207   C209    1.387   .     A
C207   C228    1.416   .     A
C208   H240    1.074   .     S
C208   C210    1.386   .     A
C208   C227    1.416   .     A
C209   H231    1.085   .     S
C209   C837    1.390   1_554 S
C210   H232    1.085   .     S
C210   C838    1.389   .     S
C211   C416    1.341   .     S
C211   H445    1.087   .     S
C213   C215    1.469   .     S
C213   O249    1.315   .     A
C213   O251    1.312   .     A
C214   O250    1.315   .     A
C214   C216    1.466   .     S
C214   O252    1.311   .     A
C215   C221    1.400   .     A
C215   C219    1.399   .     A
C216   C222    1.399   .     A
C216   C220    1.398   .     A
C217   C225    1.404   .     A
C217   C219    1.392   .     A
C217   H373    1.084   1_455 S
C218   C226    1.404   .     A
C218   C220    1.392   .     A
C218   H306    1.084   .     S
C219   H236    1.083   .     S
C220   H235    1.083   .     S
C221   H234    1.074   .     S
C221   C223    1.407   .     A
C222   C224    1.406   .     A
C222   H233    1.075   .     S
C223   C227    1.429   .     A
C223   C225    1.418   .     A
C224   C226    1.418   .     A
C224   C228    1.429   .     A
C225   C821    1.390   .     S
C226   C822    1.389   1_554 S
C227   C840    1.425   .     S
C228   C839    1.425   1_554 S
Cu229  O245    1.949   .     S
Cu229  O252    1.933   .     S
Cu229  O248    1.954   .     S
Cu229  N244    2.057   .     S
Cu229  O249    1.947   .     S
Cu229  Cu230   2.737   .     S
Cu230  O251    1.933   .     S
Cu230  O247    1.954   .     S
Cu230  N243    2.057   .     S
Cu230  O250    1.947   .     S
Cu230  O246    1.949   .     S
H237   C285    1.084   .     S
H238   C354    1.084   1_455 S
H242   C416    1.086   .     S
N243   C253    1.461   .     S
N243   N312    1.281   .     S
N244   C263    1.461   .     S
N244   N379    1.281   1_455 S
C253   H261    1.111   .     S
C253   C254    1.536   .     S
C253   H330    1.074   .     S
C254   H259    1.111   .     S
C254   H260    1.106   .     S
C254   C323    1.530   .     S
C255   H257    1.111   .     S
C255   C390    1.530   1_455 S
C255   H392    1.109   1_455 S
C255   H394    1.111   1_455 S
H256   C323    1.109   .     S
H258   C323    1.111   .     S
H262   C389    1.074   1_455 S
C263   H272    1.111   .     S
C263   C264    1.537   .     S
C263   H407    1.075   1_455 S
C264   H269    1.105   .     S
C264   H270    1.111   .     S
C264   C401    1.530   1_455 S
C265   H266    1.111   .     S
C265   C332    1.530   .     S
C265   H335    1.110   .     S
C265   H336    1.111   .     S
H267   C401    1.110   1_455 S
H268   C401    1.111   1_455 S
H271   C331    1.075   .     S
C273   C279    1.437   .     S
C273   O313    1.301   .     A
C273   O315    1.310   .     A
C274   O314    1.301   .     A
C274   C280    1.437   .     S
C274   O316    1.310   .     A
C275   H307    1.075   .     S
C275   C277    1.387   .     A
C275   C296    1.416   .     A
C276   H308    1.074   .     S
C276   C278    1.386   .     A
C276   C295    1.416   .     A
C277   H299    1.085   .     S
C277   C905    1.390   1_554 S
C278   H300    1.085   .     S
C278   C906    1.389   .     S
C279   C484    1.341   .     S
C279   H513    1.087   .     S
C281   C283    1.469   .     S
C281   O317    1.315   .     A
C281   O319    1.312   .     A
C282   O318    1.315   .     A
C282   C284    1.466   .     S
C282   O320    1.311   .     A
C283   C289    1.400   .     A
C283   C287    1.399   .     A
C284   C290    1.399   .     A
C284   C288    1.398   .     A
C285   C293    1.404   .     A
C285   C287    1.392   .     A
C286   C294    1.404   .     A
C286   C288    1.392   .     A
C286   H374    1.084   .     S
C287   H304    1.083   .     S
C288   H303    1.083   .     S
C289   H302    1.074   .     S
C289   C291    1.407   .     A
C290   C292    1.406   .     A
C290   H301    1.075   .     S
C291   C295    1.429   .     A
C291   C293    1.418   .     A
C292   C294    1.418   .     A
C292   C296    1.429   .     A
C293   C889    1.390   .     S
C294   C890    1.389   1_554 S
C295   C908    1.425   .     S
C296   C907    1.425   1_554 S
Cu297  O313    1.949   .     S
Cu297  O320    1.933   .     S
Cu297  O316    1.954   .     S
Cu297  N312    2.057   .     S
Cu297  O317    1.947   .     S
Cu297  Cu298   2.737   .     S
Cu298  O319    1.933   .     S
Cu298  O315    1.954   .     S
Cu298  N311    2.057   .     S
Cu298  O318    1.947   .     S
Cu298  O314    1.949   .     S
H305   C353    1.084   .     S
H310   C484    1.086   .     S
N311   C321    1.461   .     S
N311   N380    1.281   .     S
N312   C331    1.461   .     S
C321   H329    1.111   .     S
C321   C322    1.536   .     S
C321   H398    1.074   .     S
C322   H327    1.111   .     S
C322   H328    1.106   .     S
C322   C391    1.530   .     S
C323   H325    1.111   .     S
H324   C391    1.109   .     S
H326   C391    1.111   .     S
C331   H340    1.111   .     S
C331   C332    1.537   .     S
C332   H337    1.105   .     S
C332   H338    1.111   .     S
C333   H334    1.111   .     S
C333   C400    1.530   .     S
C333   H403    1.110   .     S
C333   H404    1.111   .     S
H339   C399    1.075   .     S
C341   C347    1.437   .     S
C341   O381    1.301   .     A
C341   O383    1.310   .     A
C342   O382    1.301   .     A
C342   C348    1.437   .     S
C342   O384    1.310   .     A
C343   H375    1.075   .     S
C343   C345    1.387   .     A
C343   C364    1.416   .     A
C344   H376    1.074   .     S
C344   C346    1.386   .     A
C344   C363    1.416   .     A
C345   H367    1.085   .     S
C345   C973    1.390   1_554 S
C346   H368    1.085   .     S
C346   C974    1.389   .     S
C347   C552    1.341   .     S
C347   H581    1.087   .     S
C349   C351    1.469   .     S
C349   O385    1.315   .     A
C349   O387    1.312   .     A
C350   O386    1.315   .     A
C350   C352    1.466   .     S
C350   O388    1.311   .     A
C351   C357    1.400   .     A
C351   C355    1.399   .     A
C352   C358    1.399   .     A
C352   C356    1.398   .     A
C353   C361    1.404   .     A
C353   C355    1.392   .     A
C354   C362    1.404   .     A
C354   C356    1.392   .     A
C354   H238    1.084   1_655 S
C355   H372    1.083   .     S
C356   H371    1.083   .     S
C357   H370    1.074   .     S
C357   C359    1.407   .     A
C358   C360    1.406   .     A
C358   H369    1.075   .     S
C359   C363    1.429   .     A
C359   C361    1.418   .     A
C360   C362    1.418   .     A
C360   C364    1.429   .     A
C361   C957    1.390   .     S
C362   C958    1.389   1_554 S
C363   C976    1.425   .     S
C364   C975    1.425   1_554 S
Cu365  O381    1.949   .     S
Cu365  O388    1.933   .     S
Cu365  O384    1.954   .     S
Cu365  N380    2.057   .     S
Cu365  O385    1.947   .     S
Cu365  Cu366   2.737   .     S
Cu366  O387    1.933   .     S
Cu366  O383    1.954   .     S
Cu366  N379    2.057   .     S
Cu366  O386    1.947   .     S
Cu366  O382    1.949   .     S
H373   C217    1.084   1_655 S
H378   C552    1.086   .     S
N379   C389    1.461   .     S
N379   N244    1.281   1_655 S
N380   C399    1.461   .     S
C389   H397    1.111   .     S
C389   C390    1.536   .     S
C389   H262    1.074   1_655 S
C390   H395    1.111   .     S
C390   H396    1.106   .     S
C390   C255    1.530   1_655 S
C391   H393    1.111   .     S
H392   C255    1.109   1_655 S
H394   C255    1.111   1_655 S
C399   H408    1.111   .     S
C399   C400    1.537   .     S
C400   H405    1.105   .     S
C400   H406    1.111   .     S
C401   H402    1.111   .     S
C401   C264    1.530   1_655 S
C401   H267    1.110   1_655 S
C401   H268    1.111   1_655 S
H407   C263    1.075   1_655 S
C409   C415    1.437   .     S
C409   O449    1.301   .     A
C409   O451    1.310   .     A
C410   O450    1.301   .     A
C410   C416    1.437   .     S
C410   O452    1.310   .     A
C411   H443    1.075   .     S
C411   C413    1.387   .     A
C411   C432    1.416   .     A
C412   H444    1.074   .     S
C412   C414    1.386   .     A
C412   C431    1.416   .     A
C413   H435    1.085   .     S
C413   C1041   1.390   1_554 S
C414   H436    1.085   .     S
C414   C1042   1.389   .     S
C415   C8      1.341   1_565 S
C415   H37     1.087   1_565 S
C417   C419    1.469   .     S
C417   O453    1.315   .     A
C417   O455    1.312   .     A
C418   O454    1.315   .     A
C418   C420    1.466   .     S
C418   O456    1.311   .     A
C419   C425    1.400   .     A
C419   C423    1.399   .     A
C420   C426    1.399   .     A
C420   C424    1.398   .     A
C421   C429    1.404   .     A
C421   C423    1.392   .     A
C421   H577    1.084   1_455 S
C422   C430    1.404   .     A
C422   C424    1.392   .     A
C422   H510    1.084   .     S
C423   H440    1.083   .     S
C424   H439    1.083   .     S
C425   H438    1.074   .     S
C425   C427    1.407   .     A
C426   C428    1.406   .     A
C426   H437    1.075   .     S
C427   C431    1.429   .     A
C427   C429    1.418   .     A
C428   C430    1.418   .     A
C428   C432    1.429   .     A
C429   C1025   1.390   .     S
C430   C1026   1.389   1_554 S
C431   C1044   1.425   .     S
C432   C1043   1.425   1_554 S
Cu433  O449    1.949   .     S
Cu433  O456    1.933   .     S
Cu433  O452    1.954   .     S
Cu433  N448    2.057   .     S
Cu433  O453    1.947   .     S
Cu433  Cu434   2.737   .     S
Cu434  O455    1.933   .     S
Cu434  O451    1.954   .     S
Cu434  N447    2.057   .     S
Cu434  O454    1.947   .     S
Cu434  O450    1.949   .     S
H441   C489    1.084   .     S
H442   C558    1.084   1_455 S
H446   C8      1.086   1_565 S
N447   C457    1.461   .     S
N447   N516    1.281   .     S
N448   C467    1.461   .     S
N448   N583    1.281   1_455 S
C457   H465    1.111   .     S
C457   C458    1.536   .     S
C457   H534    1.074   .     S
C458   H463    1.111   .     S
C458   H464    1.106   .     S
C458   C527    1.530   .     S
C459   H461    1.111   .     S
C459   C594    1.530   1_455 S
C459   H596    1.109   1_455 S
C459   H598    1.111   1_455 S
H460   C527    1.109   .     S
H462   C527    1.111   .     S
H466   C593    1.074   1_455 S
C467   H476    1.111   .     S
C467   C468    1.537   .     S
C467   H611    1.075   1_455 S
C468   H473    1.105   .     S
C468   H474    1.111   .     S
C468   C605    1.530   1_455 S
C469   H470    1.111   .     S
C469   C536    1.530   .     S
C469   H539    1.110   .     S
C469   H540    1.111   .     S
H471   C605    1.110   1_455 S
H472   C605    1.111   1_455 S
H475   C535    1.075   .     S
C477   C483    1.437   .     S
C477   O517    1.301   .     A
C477   O519    1.310   .     A
C478   O518    1.301   .     A
C478   C484    1.437   .     S
C478   O520    1.310   .     A
C479   H511    1.075   .     S
C479   C481    1.387   .     A
C479   C500    1.416   .     A
C480   H512    1.074   .     S
C480   C482    1.386   .     A
C480   C499    1.416   .     A
C481   H503    1.085   .     S
C481   C1109   1.390   1_554 S
C482   H504    1.085   .     S
C482   C1110   1.389   .     S
C483   C76     1.341   1_565 S
C483   H105    1.087   1_565 S
C485   C487    1.469   .     S
C485   O521    1.315   .     A
C485   O523    1.312   .     A
C486   O522    1.315   .     A
C486   C488    1.466   .     S
C486   O524    1.311   .     A
C487   C493    1.400   .     A
C487   C491    1.399   .     A
C488   C494    1.399   .     A
C488   C492    1.398   .     A
C489   C497    1.404   .     A
C489   C491    1.392   .     A
C490   C498    1.404   .     A
C490   C492    1.392   .     A
C490   H578    1.084   .     S
C491   H508    1.083   .     S
C492   H507    1.083   .     S
C493   H506    1.074   .     S
C493   C495    1.407   .     A
C494   C496    1.406   .     A
C494   H505    1.075   .     S
C495   C499    1.429   .     A
C495   C497    1.418   .     A
C496   C498    1.418   .     A
C496   C500    1.429   .     A
C497   C1093   1.390   .     S
C498   C1094   1.389   1_554 S
C499   C1112   1.425   .     S
C500   C1111   1.425   1_554 S
Cu501  O517    1.949   .     S
Cu501  O524    1.933   .     S
Cu501  O520    1.954   .     S
Cu501  N516    2.057   .     S
Cu501  O521    1.947   .     S
Cu501  Cu502   2.737   .     S
Cu502  O523    1.933   .     S
Cu502  O519    1.954   .     S
Cu502  N515    2.057   .     S
Cu502  O522    1.947   .     S
Cu502  O518    1.949   .     S
H509   C557    1.084   .     S
H514   C76     1.086   1_565 S
N515   C525    1.461   .     S
N515   N584    1.281   .     S
N516   C535    1.461   .     S
C525   H533    1.111   .     S
C525   C526    1.536   .     S
C525   H602    1.074   .     S
C526   H531    1.111   .     S
C526   H532    1.106   .     S
C526   C595    1.530   .     S
C527   H529    1.111   .     S
H528   C595    1.109   .     S
H530   C595    1.111   .     S
C535   H544    1.111   .     S
C535   C536    1.537   .     S
C536   H541    1.105   .     S
C536   H542    1.111   .     S
C537   H538    1.111   .     S
C537   C604    1.530   .     S
C537   H607    1.110   .     S
C537   H608    1.111   .     S
H543   C603    1.075   .     S
C545   C551    1.437   .     S
C545   O585    1.301   .     A
C545   O587    1.310   .     A
C546   O586    1.301   .     A
C546   C552    1.437   .     S
C546   O588    1.310   .     A
C547   H579    1.075   .     S
C547   C549    1.387   .     A
C547   C568    1.416   .     A
C548   H580    1.074   .     S
C548   C550    1.386   .     A
C548   C567    1.416   .     A
C549   H571    1.085   .     S
C549   C1177   1.390   1_554 S
C550   H572    1.085   .     S
C550   C1178   1.389   .     S
C551   C144    1.341   1_565 S
C551   H173    1.087   1_565 S
C553   C555    1.469   .     S
C553   O589    1.315   .     A
C553   O591    1.312   .     A
C554   O590    1.315   .     A
C554   C556    1.466   .     S
C554   O592    1.311   .     A
C555   C561    1.400   .     A
C555   C559    1.399   .     A
C556   C562    1.399   .     A
C556   C560    1.398   .     A
C557   C565    1.404   .     A
C557   C559    1.392   .     A
C558   C566    1.404   .     A
C558   C560    1.392   .     A
C558   H442    1.084   1_655 S
C559   H576    1.083   .     S
C560   H575    1.083   .     S
C561   H574    1.074   .     S
C561   C563    1.407   .     A
C562   C564    1.406   .     A
C562   H573    1.075   .     S
C563   C567    1.429   .     A
C563   C565    1.418   .     A
C564   C566    1.418   .     A
C564   C568    1.429   .     A
C565   C1161   1.390   .     S
C566   C1162   1.389   1_554 S
C567   C1180   1.425   .     S
C568   C1179   1.425   1_554 S
Cu569  O585    1.949   .     S
Cu569  O592    1.933   .     S
Cu569  O588    1.954   .     S
Cu569  N584    2.057   .     S
Cu569  O589    1.947   .     S
Cu569  Cu570   2.737   .     S
Cu570  O591    1.933   .     S
Cu570  O587    1.954   .     S
Cu570  N583    2.057   .     S
Cu570  O590    1.947   .     S
Cu570  O586    1.949   .     S
H577   C421    1.084   1_655 S
H582   C144    1.086   1_565 S
N583   C593    1.461   .     S
N583   N448    1.281   1_655 S
N584   C603    1.461   .     S
C593   H601    1.111   .     S
C593   C594    1.536   .     S
C593   H466    1.074   1_655 S
C594   H599    1.111   .     S
C594   H600    1.106   .     S
C594   C459    1.530   1_655 S
C595   H597    1.111   .     S
H596   C459    1.109   1_655 S
H598   C459    1.111   1_655 S
C603   H612    1.111   .     S
C603   C604    1.537   .     S
C604   H609    1.105   .     S
C604   H610    1.111   .     S
C605   H606    1.111   .     S
C605   C468    1.530   1_655 S
C605   H471    1.110   1_655 S
C605   H472    1.111   1_655 S
H611   C467    1.075   1_655 S
C613   C619    1.437   .     S
C613   O653    1.301   .     A
C613   O655    1.310   .     A
C614   O654    1.301   .     A
C614   C620    1.437   .     S
C614   O656    1.310   .     A
C615   H647    1.075   .     S
C615   C617    1.387   .     A
C615   C636    1.416   .     A
C616   H648    1.074   .     S
C616   C618    1.386   .     A
C616   C635    1.416   .     A
C617   H639    1.085   .     S
C618   H640    1.085   .     S
C618   C22     1.389   1_556 S
C619   C824    1.341   .     S
C619   H853    1.087   .     S
C620   C1027   1.341   1_545 S
C620   H1058   1.086   1_545 S
C621   C623    1.469   .     S
C621   O657    1.315   .     A
C621   O659    1.312   .     A
C622   O658    1.315   .     A
C622   C624    1.466   .     S
C622   O660    1.311   .     A
C623   C629    1.400   .     A
C623   C627    1.399   .     A
C624   C630    1.399   .     A
C624   C628    1.398   .     A
C625   C633    1.404   .     A
C625   C627    1.392   .     A
C625   H781    1.084   1_455 S
C626   C634    1.404   .     A
C626   C628    1.392   .     A
C626   H714    1.084   .     S
C627   H644    1.083   .     S
C628   H643    1.083   .     S
C629   H642    1.074   .     S
C629   C631    1.407   .     A
C630   C632    1.406   .     A
C630   H641    1.075   .     S
C631   C635    1.429   .     A
C631   C633    1.418   .     A
C632   C634    1.418   .     A
C632   C636    1.429   .     A
C633   C5      1.390   1_556 S
C635   C24     1.425   1_556 S
Cu637  O653    1.949   .     S
Cu637  O660    1.933   .     S
Cu637  O656    1.954   .     S
Cu637  N652    2.057   .     S
Cu637  O657    1.947   .     S
Cu637  Cu638   2.737   .     S
Cu638  O659    1.933   .     S
Cu638  O655    1.954   .     S
Cu638  N651    2.057   .     S
Cu638  O658    1.947   .     S
Cu638  O654    1.949   .     S
H645   C693    1.084   .     S
H646   C762    1.084   1_455 S
H649   C1027   1.087   1_545 S
H650   C824    1.086   .     S
N651   C661    1.461   .     S
N651   N720    1.281   .     S
N652   C671    1.461   .     S
N652   N787    1.281   1_455 S
C661   H669    1.111   .     S
C661   C662    1.536   .     S
C661   H738    1.074   .     S
C662   H667    1.111   .     S
C662   H668    1.106   .     S
C662   C731    1.530   .     S
C663   H665    1.111   .     S
C663   C798    1.530   1_455 S
C663   H800    1.109   1_455 S
C663   H802    1.111   1_455 S
H664   C731    1.109   .     S
H666   C731    1.111   .     S
H670   C797    1.074   1_455 S
C671   H680    1.111   .     S
C671   C672    1.537   .     S
C671   H815    1.075   1_455 S
C672   H677    1.105   .     S
C672   H678    1.111   .     S
C672   C809    1.530   1_455 S
C673   H674    1.111   .     S
C673   C740    1.530   .     S
C673   H743    1.110   .     S
C673   H744    1.111   .     S
H675   C809    1.110   1_455 S
H676   C809    1.111   1_455 S
H679   C739    1.075   .     S
C681   C687    1.437   .     S
C681   O721    1.301   .     A
C681   O723    1.310   .     A
C682   O722    1.301   .     A
C682   C688    1.437   .     S
C682   O724    1.310   .     A
C683   H715    1.075   .     S
C683   C685    1.387   .     A
C683   C704    1.416   .     A
C684   H716    1.074   .     S
C684   C686    1.386   .     A
C684   C703    1.416   .     A
C685   H707    1.085   .     S
C686   H708    1.085   .     S
C686   C90     1.389   1_556 S
C687   C892    1.341   .     S
C687   H921    1.087   .     S
C688   C1095   1.341   1_545 S
C688   H1126   1.086   1_545 S
C689   C691    1.469   .     S
C689   O725    1.315   .     A
C689   O727    1.312   .     A
C690   O726    1.315   .     A
C690   C692    1.466   .     S
C690   O728    1.311   .     A
C691   C697    1.400   .     A
C691   C695    1.399   .     A
C692   C698    1.399   .     A
C692   C696    1.398   .     A
C693   C701    1.404   .     A
C693   C695    1.392   .     A
C694   C702    1.404   .     A
C694   C696    1.392   .     A
C694   H782    1.084   .     S
C695   H712    1.083   .     S
C696   H711    1.083   .     S
C697   H710    1.074   .     S
C697   C699    1.407   .     A
C698   C700    1.406   .     A
C698   H709    1.075   .     S
C699   C703    1.429   .     A
C699   C701    1.418   .     A
C700   C702    1.418   .     A
C700   C704    1.429   .     A
C701   C73     1.390   1_556 S
C703   C92     1.425   1_556 S
Cu705  O721    1.949   .     S
Cu705  O728    1.933   .     S
Cu705  O724    1.954   .     S
Cu705  N720    2.057   .     S
Cu705  O725    1.947   .     S
Cu705  Cu706   2.737   .     S
Cu706  O727    1.933   .     S
Cu706  O723    1.954   .     S
Cu706  N719    2.057   .     S
Cu706  O726    1.947   .     S
Cu706  O722    1.949   .     S
H713   C761    1.084   .     S
H717   C1095   1.087   1_545 S
H718   C892    1.086   .     S
N719   C729    1.461   .     S
N719   N788    1.281   .     S
N720   C739    1.461   .     S
C729   H737    1.111   .     S
C729   C730    1.536   .     S
C729   H806    1.074   .     S
C730   H735    1.111   .     S
C730   H736    1.106   .     S
C730   C799    1.530   .     S
C731   H733    1.111   .     S
H732   C799    1.109   .     S
H734   C799    1.111   .     S
C739   H748    1.111   .     S
C739   C740    1.537   .     S
C740   H745    1.105   .     S
C740   H746    1.111   .     S
C741   H742    1.111   .     S
C741   C808    1.530   .     S
C741   H811    1.110   .     S
C741   H812    1.111   .     S
H747   C807    1.075   .     S
C749   C755    1.437   .     S
C749   O789    1.301   .     A
C749   O791    1.310   .     A
C750   O790    1.301   .     A
C750   C756    1.437   .     S
C750   O792    1.310   .     A
C751   H783    1.075   .     S
C751   C753    1.387   .     A
C751   C772    1.416   .     A
C752   H784    1.074   .     S
C752   C754    1.386   .     A
C752   C771    1.416   .     A
C753   H775    1.085   .     S
C754   H776    1.085   .     S
C754   C158    1.389   1_556 S
C755   C960    1.341   .     S
C755   H989    1.087   .     S
C756   C1163   1.341   1_545 S
C756   H1194   1.086   1_545 S
C757   C759    1.469   .     S
C757   O793    1.315   .     A
C757   O795    1.312   .     A
C758   O794    1.315   .     A
C758   C760    1.466   .     S
C758   O796    1.311   .     A
C759   C765    1.400   .     A
C759   C763    1.399   .     A
C760   C766    1.399   .     A
C760   C764    1.398   .     A
C761   C769    1.404   .     A
C761   C763    1.392   .     A
C762   C770    1.404   .     A
C762   C764    1.392   .     A
C762   H646    1.084   1_655 S
C763   H780    1.083   .     S
C764   H779    1.083   .     S
C765   H778    1.074   .     S
C765   C767    1.407   .     A
C766   C768    1.406   .     A
C766   H777    1.075   .     S
C767   C771    1.429   .     A
C767   C769    1.418   .     A
C768   C770    1.418   .     A
C768   C772    1.429   .     A
C769   C141    1.390   1_556 S
C771   C160    1.425   1_556 S
Cu773  O789    1.949   .     S
Cu773  O796    1.933   .     S
Cu773  O792    1.954   .     S
Cu773  N788    2.057   .     S
Cu773  O793    1.947   .     S
Cu773  Cu774   2.737   .     S
Cu774  O795    1.933   .     S
Cu774  O791    1.954   .     S
Cu774  N787    2.057   .     S
Cu774  O794    1.947   .     S
Cu774  O790    1.949   .     S
H781   C625    1.084   1_655 S
H785   C1163   1.087   1_545 S
H786   C960    1.086   .     S
N787   C797    1.461   .     S
N787   N652    1.281   1_655 S
N788   C807    1.461   .     S
C797   H805    1.111   .     S
C797   C798    1.536   .     S
C797   H670    1.074   1_655 S
C798   H803    1.111   .     S
C798   H804    1.106   .     S
C798   C663    1.530   1_655 S
C799   H801    1.111   .     S
H800   C663    1.109   1_655 S
H802   C663    1.111   1_655 S
C807   H816    1.111   .     S
C807   C808    1.537   .     S
C808   H813    1.105   .     S
C808   H814    1.111   .     S
C809   H810    1.111   .     S
C809   C672    1.530   1_655 S
C809   H675    1.110   1_655 S
C809   H676    1.111   1_655 S
H815   C671    1.075   1_655 S
C817   C823    1.437   .     S
C817   O857    1.301   .     A
C817   O859    1.310   .     A
C818   O858    1.301   .     A
C818   C824    1.437   .     S
C818   O860    1.310   .     A
C819   H851    1.075   .     S
C819   C821    1.387   .     A
C819   C840    1.416   .     A
C820   H852    1.074   .     S
C820   C822    1.386   .     A
C820   C839    1.416   .     A
C821   H843    1.085   .     S
C822   H844    1.085   .     S
C822   C226    1.389   1_556 S
C823   C1028   1.341   .     S
C823   H1057   1.087   .     S
C825   C827    1.469   .     S
C825   O861    1.315   .     A
C825   O863    1.312   .     A
C826   O862    1.315   .     A
C826   C828    1.466   .     S
C826   O864    1.311   .     A
C827   C833    1.400   .     A
C827   C831    1.399   .     A
C828   C834    1.399   .     A
C828   C832    1.398   .     A
C829   C837    1.404   .     A
C829   C831    1.392   .     A
C829   H985    1.084   1_455 S
C830   C838    1.404   .     A
C830   C832    1.392   .     A
C830   H918    1.084   .     S
C831   H848    1.083   .     S
C832   H847    1.083   .     S
C833   H846    1.074   .     S
C833   C835    1.407   .     A
C834   C836    1.406   .     A
C834   H845    1.075   .     S
C835   C839    1.429   .     A
C835   C837    1.418   .     A
C836   C838    1.418   .     A
C836   C840    1.429   .     A
C837   C209    1.390   1_556 S
C839   C228    1.425   1_556 S
Cu841  O857    1.949   .     S
Cu841  O864    1.933   .     S
Cu841  O860    1.954   .     S
Cu841  N856    2.057   .     S
Cu841  O861    1.947   .     S
Cu841  Cu842   2.737   .     S
Cu842  O863    1.933   .     S
Cu842  O859    1.954   .     S
Cu842  N855    2.057   .     S
Cu842  O862    1.947   .     S
Cu842  O858    1.949   .     S
H849   C897    1.084   .     S
H850   C966    1.084   1_455 S
H854   C1028   1.086   .     S
N855   C865    1.461   .     S
N855   N924    1.281   .     S
N856   C875    1.461   .     S
N856   N991    1.281   1_455 S
C865   H873    1.111   .     S
C865   C866    1.536   .     S
C865   H942    1.074   .     S
C866   H871    1.111   .     S
C866   H872    1.106   .     S
C866   C935    1.530   .     S
C867   H869    1.111   .     S
C867   C1002   1.530   1_455 S
C867   H1004   1.109   1_455 S
C867   H1006   1.111   1_455 S
H868   C935    1.109   .     S
H870   C935    1.111   .     S
H874   C1001   1.074   1_455 S
C875   H884    1.111   .     S
C875   C876    1.537   .     S
C875   H1019   1.075   1_455 S
C876   H881    1.105   .     S
C876   H882    1.111   .     S
C876   C1013   1.530   1_455 S
C877   H878    1.111   .     S
C877   C944    1.530   .     S
C877   H947    1.110   .     S
C877   H948    1.111   .     S
H879   C1013   1.110   1_455 S
H880   C1013   1.111   1_455 S
H883   C943    1.075   .     S
C885   C891    1.437   .     S
C885   O925    1.301   .     A
C885   O927    1.310   .     A
C886   O926    1.301   .     A
C886   C892    1.437   .     S
C886   O928    1.310   .     A
C887   H919    1.075   .     S
C887   C889    1.387   .     A
C887   C908    1.416   .     A
C888   H920    1.074   .     S
C888   C890    1.386   .     A
C888   C907    1.416   .     A
C889   H911    1.085   .     S
C890   H912    1.085   .     S
C890   C294    1.389   1_556 S
C891   C1096   1.341   .     S
C891   H1125   1.087   .     S
C893   C895    1.469   .     S
C893   O929    1.315   .     A
C893   O931    1.312   .     A
C894   O930    1.315   .     A
C894   C896    1.466   .     S
C894   O932    1.311   .     A
C895   C901    1.400   .     A
C895   C899    1.399   .     A
C896   C902    1.399   .     A
C896   C900    1.398   .     A
C897   C905    1.404   .     A
C897   C899    1.392   .     A
C898   C906    1.404   .     A
C898   C900    1.392   .     A
C898   H986    1.084   .     S
C899   H916    1.083   .     S
C900   H915    1.083   .     S
C901   H914    1.074   .     S
C901   C903    1.407   .     A
C902   C904    1.406   .     A
C902   H913    1.075   .     S
C903   C907    1.429   .     A
C903   C905    1.418   .     A
C904   C906    1.418   .     A
C904   C908    1.429   .     A
C905   C277    1.390   1_556 S
C907   C296    1.425   1_556 S
Cu909  O925    1.949   .     S
Cu909  O932    1.933   .     S
Cu909  O928    1.954   .     S
Cu909  N924    2.057   .     S
Cu909  O929    1.947   .     S
Cu909  Cu910   2.737   .     S
Cu910  O931    1.933   .     S
Cu910  O927    1.954   .     S
Cu910  N923    2.057   .     S
Cu910  O930    1.947   .     S
Cu910  O926    1.949   .     S
H917   C965    1.084   .     S
H922   C1096   1.086   .     S
N923   C933    1.461   .     S
N923   N992    1.281   .     S
N924   C943    1.461   .     S
C933   H941    1.111   .     S
C933   C934    1.536   .     S
C933   H1010   1.074   .     S
C934   H939    1.111   .     S
C934   H940    1.106   .     S
C934   C1003   1.530   .     S
C935   H937    1.111   .     S
H936   C1003   1.109   .     S
H938   C1003   1.111   .     S
C943   H952    1.111   .     S
C943   C944    1.537   .     S
C944   H949    1.105   .     S
C944   H950    1.111   .     S
C945   H946    1.111   .     S
C945   C1012   1.530   .     S
C945   H1015   1.110   .     S
C945   H1016   1.111   .     S
H951   C1011   1.075   .     S
C953   C959    1.437   .     S
C953   O993    1.301   .     A
C953   O995    1.310   .     A
C954   O994    1.301   .     A
C954   C960    1.437   .     S
C954   O996    1.310   .     A
C955   H987    1.075   .     S
C955   C957    1.387   .     A
C955   C976    1.416   .     A
C956   H988    1.074   .     S
C956   C958    1.386   .     A
C956   C975    1.416   .     A
C957   H979    1.085   .     S
C958   H980    1.085   .     S
C958   C362    1.389   1_556 S
C959   C1164   1.341   .     S
C959   H1193   1.087   .     S
C961   C963    1.469   .     S
C961   O997    1.315   .     A
C961   O999    1.312   .     A
C962   O998    1.315   .     A
C962   C964    1.466   .     S
C962   O1000   1.311   .     A
C963   C969    1.400   .     A
C963   C967    1.399   .     A
C964   C970    1.399   .     A
C964   C968    1.398   .     A
C965   C973    1.404   .     A
C965   C967    1.392   .     A
C966   C974    1.404   .     A
C966   C968    1.392   .     A
C966   H850    1.084   1_655 S
C967   H984    1.083   .     S
C968   H983    1.083   .     S
C969   H982    1.074   .     S
C969   C971    1.407   .     A
C970   C972    1.406   .     A
C970   H981    1.075   .     S
C971   C975    1.429   .     A
C971   C973    1.418   .     A
C972   C974    1.418   .     A
C972   C976    1.429   .     A
C973   C345    1.390   1_556 S
C975   C364    1.425   1_556 S
Cu977  O993    1.949   .     S
Cu977  O1000   1.933   .     S
Cu977  O996    1.954   .     S
Cu977  N992    2.057   .     S
Cu977  O997    1.947   .     S
Cu977  Cu978   2.737   .     S
Cu978  O999    1.933   .     S
Cu978  O995    1.954   .     S
Cu978  N991    2.057   .     S
Cu978  O998    1.947   .     S
Cu978  O994    1.949   .     S
H985   C829    1.084   1_655 S
H990   C1164   1.086   .     S
N991   C1001   1.461   .     S
N991   N856    1.281   1_655 S
N992   C1011   1.461   .     S
C1001  H1009   1.111   .     S
C1001  C1002   1.536   .     S
C1001  H874    1.074   1_655 S
C1002  H1007   1.111   .     S
C1002  H1008   1.106   .     S
C1002  C867    1.530   1_655 S
C1003  H1005   1.111   .     S
H1004  C867    1.109   1_655 S
H1006  C867    1.111   1_655 S
C1011  H1020   1.111   .     S
C1011  C1012   1.537   .     S
C1012  H1017   1.105   .     S
C1012  H1018   1.111   .     S
C1013  H1014   1.111   .     S
C1013  C876    1.530   1_655 S
C1013  H879    1.110   1_655 S
C1013  H880    1.111   1_655 S
H1019  C875    1.075   1_655 S
C1021  C1027   1.437   .     S
C1021  O1061   1.301   .     A
C1021  O1063   1.310   .     A
C1022  O1062   1.301   .     A
C1022  C1028   1.437   .     S
C1022  O1064   1.310   .     A
C1023  H1055   1.075   .     S
C1023  C1025   1.387   .     A
C1023  C1044   1.416   .     A
C1024  H1056   1.074   .     S
C1024  C1026   1.386   .     A
C1024  C1043   1.416   .     A
C1025  H1047   1.085   .     S
C1026  H1048   1.085   .     S
C1026  C430    1.389   1_556 S
C1027  C620    1.341   1_565 S
C1027  H649    1.087   1_565 S
C1029  C1031   1.469   .     S
C1029  O1065   1.315   .     A
C1029  O1067   1.312   .     A
C1030  O1066   1.315   .     A
C1030  C1032   1.466   .     S
C1030  O1068   1.311   .     A
C1031  C1037   1.400   .     A
C1031  C1035   1.399   .     A
C1032  C1038   1.399   .     A
C1032  C1036   1.398   .     A
C1033  C1041   1.404   .     A
C1033  C1035   1.392   .     A
C1033  H1189   1.084   1_455 S
C1034  C1042   1.404   .     A
C1034  C1036   1.392   .     A
C1034  H1122   1.084   .     S
C1035  H1052   1.083   .     S
C1036  H1051   1.083   .     S
C1037  H1050   1.074   .     S
C1037  C1039   1.407   .     A
C1038  C1040   1.406   .     A
C1038  H1049   1.075   .     S
C1039  C1043   1.429   .     A
C1039  C1041   1.418   .     A
C1040  C1042   1.418   .     A
C1040  C1044   1.429   .     A
C1041  C413    1.390   1_556 S
C1043  C432    1.425   1_556 S
Cu1045 O1061   1.949   .     S
Cu1045 O1068   1.933   .     S
Cu1045 O1064   1.954   .     S
Cu1045 N1060   2.057   .     S
Cu1045 O1065   1.947   .     S
Cu1045 Cu1046  2.737   .     S
Cu1046 O1067   1.933   .     S
Cu1046 O1063   1.954   .     S
Cu1046 N1059   2.057   .     S
Cu1046 O1066   1.947   .     S
Cu1046 O1062   1.949   .     S
H1053  C1101   1.084   .     S
H1054  C1170   1.084   1_455 S
H1058  C620    1.086   1_565 S
N1059  C1069   1.461   .     S
N1059  N1128   1.281   .     S
N1060  C1079   1.461   .     S
N1060  N1195   1.281   1_455 S
C1069  H1077   1.111   .     S
C1069  C1070   1.536   .     S
C1069  H1146   1.074   .     S
C1070  H1075   1.111   .     S
C1070  H1076   1.106   .     S
C1070  C1139   1.530   .     S
C1071  H1073   1.111   .     S
C1071  C1206   1.530   1_455 S
C1071  H1208   1.109   1_455 S
C1071  H1210   1.111   1_455 S
H1072  C1139   1.109   .     S
H1074  C1139   1.111   .     S
H1078  C1205   1.074   1_455 S
C1079  H1088   1.111   .     S
C1079  C1080   1.537   .     S
C1079  H1223   1.075   1_455 S
C1080  H1085   1.105   .     S
C1080  H1086   1.111   .     S
C1080  C1217   1.530   1_455 S
C1081  H1082   1.111   .     S
C1081  C1148   1.530   .     S
C1081  H1151   1.110   .     S
C1081  H1152   1.111   .     S
H1083  C1217   1.110   1_455 S
H1084  C1217   1.111   1_455 S
H1087  C1147   1.075   .     S
C1089  C1095   1.437   .     S
C1089  O1129   1.301   .     A
C1089  O1131   1.310   .     A
C1090  O1130   1.301   .     A
C1090  C1096   1.437   .     S
C1090  O1132   1.310   .     A
C1091  H1123   1.075   .     S
C1091  C1093   1.387   .     A
C1091  C1112   1.416   .     A
C1092  H1124   1.074   .     S
C1092  C1094   1.386   .     A
C1092  C1111   1.416   .     A
C1093  H1115   1.085   .     S
C1094  H1116   1.085   .     S
C1094  C498    1.389   1_556 S
C1095  C688    1.341   1_565 S
C1095  H717    1.087   1_565 S
C1097  C1099   1.469   .     S
C1097  O1133   1.315   .     A
C1097  O1135   1.312   .     A
C1098  O1134   1.315   .     A
C1098  C1100   1.466   .     S
C1098  O1136   1.311   .     A
C1099  C1105   1.400   .     A
C1099  C1103   1.399   .     A
C1100  C1106   1.399   .     A
C1100  C1104   1.398   .     A
C1101  C1109   1.404   .     A
C1101  C1103   1.392   .     A
C1102  C1110   1.404   .     A
C1102  C1104   1.392   .     A
C1102  H1190   1.084   .     S
C1103  H1120   1.083   .     S
C1104  H1119   1.083   .     S
C1105  H1118   1.074   .     S
C1105  C1107   1.407   .     A
C1106  C1108   1.406   .     A
C1106  H1117   1.075   .     S
C1107  C1111   1.429   .     A
C1107  C1109   1.418   .     A
C1108  C1110   1.418   .     A
C1108  C1112   1.429   .     A
C1109  C481    1.390   1_556 S
C1111  C500    1.425   1_556 S
Cu1113 O1129   1.949   .     S
Cu1113 O1136   1.933   .     S
Cu1113 O1132   1.954   .     S
Cu1113 N1128   2.057   .     S
Cu1113 O1133   1.947   .     S
Cu1113 Cu1114  2.737   .     S
Cu1114 O1135   1.933   .     S
Cu1114 O1131   1.954   .     S
Cu1114 N1127   2.057   .     S
Cu1114 O1134   1.947   .     S
Cu1114 O1130   1.949   .     S
H1121  C1169   1.084   .     S
H1126  C688    1.086   1_565 S
N1127  C1137   1.461   .     S
N1127  N1196   1.281   .     S
N1128  C1147   1.461   .     S
C1137  H1145   1.111   .     S
C1137  C1138   1.536   .     S
C1137  H1214   1.074   .     S
C1138  H1143   1.111   .     S
C1138  H1144   1.106   .     S
C1138  C1207   1.530   .     S
C1139  H1141   1.111   .     S
H1140  C1207   1.109   .     S
H1142  C1207   1.111   .     S
C1147  H1156   1.111   .     S
C1147  C1148   1.537   .     S
C1148  H1153   1.105   .     S
C1148  H1154   1.111   .     S
C1149  H1150   1.111   .     S
C1149  C1216   1.530   .     S
C1149  H1219   1.110   .     S
C1149  H1220   1.111   .     S
H1155  C1215   1.075   .     S
C1157  C1163   1.437   .     S
C1157  O1197   1.301   .     A
C1157  O1199   1.310   .     A
C1158  O1198   1.301   .     A
C1158  C1164   1.437   .     S
C1158  O1200   1.310   .     A
C1159  H1191   1.075   .     S
C1159  C1161   1.387   .     A
C1159  C1180   1.416   .     A
C1160  H1192   1.074   .     S
C1160  C1162   1.386   .     A
C1160  C1179   1.416   .     A
C1161  H1183   1.085   .     S
C1162  H1184   1.085   .     S
C1162  C566    1.389   1_556 S
C1163  C756    1.341   1_565 S
C1163  H785    1.087   1_565 S
C1165  C1167   1.469   .     S
C1165  O1201   1.315   .     A
C1165  O1203   1.312   .     A
C1166  O1202   1.315   .     A
C1166  C1168   1.466   .     S
C1166  O1204   1.311   .     A
C1167  C1173   1.400   .     A
C1167  C1171   1.399   .     A
C1168  C1174   1.399   .     A
C1168  C1172   1.398   .     A
C1169  C1177   1.404   .     A
C1169  C1171   1.392   .     A
C1170  C1178   1.404   .     A
C1170  C1172   1.392   .     A
C1170  H1054   1.084   1_655 S
C1171  H1188   1.083   .     S
C1172  H1187   1.083   .     S
C1173  H1186   1.074   .     S
C1173  C1175   1.407   .     A
C1174  C1176   1.406   .     A
C1174  H1185   1.075   .     S
C1175  C1179   1.429   .     A
C1175  C1177   1.418   .     A
C1176  C1178   1.418   .     A
C1176  C1180   1.429   .     A
C1177  C549    1.390   1_556 S
C1179  C568    1.425   1_556 S
Cu1181 O1197   1.949   .     S
Cu1181 O1204   1.933   .     S
Cu1181 O1200   1.954   .     S
Cu1181 N1196   2.057   .     S
Cu1181 O1201   1.947   .     S
Cu1181 Cu1182  2.737   .     S
Cu1182 O1203   1.933   .     S
Cu1182 O1199   1.954   .     S
Cu1182 N1195   2.057   .     S
Cu1182 O1202   1.947   .     S
Cu1182 O1198   1.949   .     S
H1189  C1033   1.084   1_655 S
H1194  C756    1.086   1_565 S
N1195  C1205   1.461   .     S
N1195  N1060   1.281   1_655 S
N1196  C1215   1.461   .     S
C1205  H1213   1.111   .     S
C1205  C1206   1.536   .     S
C1205  H1078   1.074   1_655 S
C1206  H1211   1.111   .     S
C1206  H1212   1.106   .     S
C1206  C1071   1.530   1_655 S
C1207  H1209   1.111   .     S
H1208  C1071   1.109   1_655 S
H1210  C1071   1.111   1_655 S
C1215  H1224   1.111   .     S
C1215  C1216   1.537   .     S
C1216  H1221   1.105   .     S
C1216  H1222   1.111   .     S
C1217  H1218   1.111   .     S
C1217  C1080   1.530   1_655 S
C1217  H1083   1.110   1_655 S
C1217  H1084   1.111   1_655 S
H1223  C1079   1.075   1_655 S
