data_str_m2_o1_o10_pcu_sym.197
_audit_creation_date              2020-01-03
_audit_creation_method            'Materials Studio'
_symmetry_space_group_name_H-M    'P1'
_symmetry_Int_Tables_number       1
_symmetry_cell_setting            triclinic
loop_
_symmetry_equiv_pos_as_xyz
  x,y,z
_cell_length_a                    26.3237
_cell_length_b                    32.4169
_cell_length_c                    28.5883
_cell_angle_alpha                 90.0417
_cell_angle_beta                  96.6464
_cell_angle_gamma                 90.9711
loop_
_atom_site_label
_atom_site_type_symbol
_atom_site_fract_x
_atom_site_fract_y
_atom_site_fract_z
_atom_site_U_iso_or_equiv
_atom_site_adp_type
_atom_site_occupancy
C1     C     0.16846   0.08748   0.16684   0.00000  Uiso   1.00
C2     C     0.16490   0.24585   0.16650   0.00000  Uiso   1.00
C3     C     0.06828   0.16749   0.15530   0.00000  Uiso   1.00
C4     C     0.26505   0.16575   0.17804   0.00000  Uiso   1.00
C5     C     0.01473   0.17573   0.15151   0.00000  Uiso   1.00
C6     C     0.31858   0.15747   0.18184   0.00000  Uiso   1.00
C7     C     0.19859   0.02078   0.13725   0.00000  Uiso   1.00
C8     C     0.13477   0.31255   0.19609   0.00000  Uiso   1.00
C9     C     0.19434   0.31125   0.13660   0.00000  Uiso   1.00
C10    C     0.13905   0.02207   0.19675   0.00000  Uiso   1.00
C11    C     0.16373   0.29050   0.16621   0.00000  Uiso   1.00
C12    C     0.16964   0.04283   0.16712   0.00000  Uiso   1.00
C13    C     0.14592   0.13427   0.02252   0.00000  Uiso   1.00
C14    C     0.18744   0.19906   0.31081   0.00000  Uiso   1.00
C15    C     0.14612   0.13421   0.30635   0.00000  Uiso   1.00
C16    C     0.18724   0.19911   0.02699   0.00000  Uiso   1.00
Cu17   Cu    0.16667   0.16667   0.21355   0.00000  Uiso   1.00
Cu18   Cu    0.16667   0.16666   0.11978   0.00000  Uiso   1.00
H19    H     0.21641   0.29375   0.11404   0.00000  Uiso   1.00
H20    H     0.11701   0.03957   0.21934   0.00000  Uiso   1.00
H21    H     0.12898   0.10835   0.03919   0.00000  Uiso   1.00
H22    H     0.20438   0.22497   0.29414   0.00000  Uiso   1.00
H23    H     0.12958   0.10814   0.28606   0.00000  Uiso   1.00
H24    H     0.20382   0.22516   0.04728   0.00000  Uiso   1.00
N25    N     0.16668   0.16668   0.28403   0.00000  Uiso   1.00
N26    N     0.16665   0.16666   0.04931   0.00000  Uiso   1.00
O27    O     0.16666   0.10655   0.20625   0.00000  Uiso   1.00
O28    O     0.16667   0.22678   0.12709   0.00000  Uiso   1.00
O29    O     0.16666   0.10654   0.12706   0.00000  Uiso   1.00
O30    O     0.16667   0.22679   0.20628   0.00000  Uiso   1.00
O31    O     0.09161   0.16667   0.19712   0.00000  Uiso   1.00
O32    O     0.24172   0.16666   0.13621   0.00000  Uiso   1.00
O33    O     0.09161   0.16666   0.11793   0.00000  Uiso   1.00
O34    O     0.24172   0.16667   0.21540   0.00000  Uiso   1.00
S35    S     0.32810   0.21751   0.11365   0.00000  Uiso   1.00
O36    O     0.30228   0.20050   0.06791   0.00000  Uiso   1.00
O37    O     0.29180   0.24441   0.13617   0.00000  Uiso   1.00
O38    O     0.04589   0.24624   0.10276   0.00000  Uiso   1.00
H39    H     0.03171   0.26901   0.08244   0.00000  Uiso   1.00
S40    S     0.00528   0.11567   0.21968   0.00000  Uiso   1.00
O41    O     0.04182   0.08890   0.19734   0.00000  Uiso   1.00
O42    O     0.03124   0.13255   0.26545   0.00000  Uiso   1.00
O43    O     0.28783   0.08633   0.23037   0.00000  Uiso   1.00
H44    H     0.27767   0.09670   0.26049   0.00000  Uiso   1.00
C45    C     0.23563   0.04147   0.10897   0.00000  Uiso   1.00
H46    H     0.24770   0.07324   0.11592   0.00000  Uiso   1.00
O47    O     0.25394   0.02294   0.07787   0.00000  Uiso   1.00
C48    C     0.09772   0.29187   0.22435   0.00000  Uiso   1.00
H49    H     0.08561   0.26011   0.21735   0.00000  Uiso   1.00
O50    O     0.07946   0.31038   0.25549   0.00000  Uiso   1.00
C51    C     0.50179   0.08748   0.16684   0.00000  Uiso   1.00
C52    C     0.49823   0.24585   0.16650   0.00000  Uiso   1.00
C53    C     0.40161   0.16749   0.15530   0.00000  Uiso   1.00
C54    C     0.59838   0.16575   0.17804   0.00000  Uiso   1.00
C55    C     0.34806   0.17573   0.15151   0.00000  Uiso   1.00
C56    C     0.65192   0.15747   0.18184   0.00000  Uiso   1.00
C57    C     0.53193   0.02078   0.13725   0.00000  Uiso   1.00
C58    C     0.46811   0.31255   0.19609   0.00000  Uiso   1.00
C59    C     0.52767   0.31125   0.13660   0.00000  Uiso   1.00
C60    C     0.47238   0.02207   0.19675   0.00000  Uiso   1.00
C61    C     0.49706   0.29050   0.16621   0.00000  Uiso   1.00
C62    C     0.50297   0.04283   0.16712   0.00000  Uiso   1.00
C63    C     0.47925   0.13427   0.02252   0.00000  Uiso   1.00
C64    C     0.52077   0.19906   0.31081   0.00000  Uiso   1.00
C65    C     0.47946   0.13421   0.30635   0.00000  Uiso   1.00
C66    C     0.52057   0.19911   0.02699   0.00000  Uiso   1.00
Cu67   Cu    0.50000   0.16667   0.21355   0.00000  Uiso   1.00
Cu68   Cu    0.50000   0.16666   0.11978   0.00000  Uiso   1.00
H69    H     0.54974   0.29375   0.11404   0.00000  Uiso   1.00
H70    H     0.45034   0.03957   0.21934   0.00000  Uiso   1.00
H71    H     0.46232   0.10835   0.03919   0.00000  Uiso   1.00
H72    H     0.53771   0.22497   0.29414   0.00000  Uiso   1.00
H73    H     0.46291   0.10814   0.28606   0.00000  Uiso   1.00
H74    H     0.53716   0.22516   0.04728   0.00000  Uiso   1.00
N75    N     0.50001   0.16668   0.28403   0.00000  Uiso   1.00
N76    N     0.49999   0.16666   0.04931   0.00000  Uiso   1.00
O77    O     0.50000   0.10655   0.20625   0.00000  Uiso   1.00
O78    O     0.50000   0.22678   0.12709   0.00000  Uiso   1.00
O79    O     0.50000   0.10654   0.12706   0.00000  Uiso   1.00
O80    O     0.50000   0.22679   0.20628   0.00000  Uiso   1.00
O81    O     0.42495   0.16667   0.19712   0.00000  Uiso   1.00
O82    O     0.57505   0.16666   0.13621   0.00000  Uiso   1.00
O83    O     0.42494   0.16666   0.11793   0.00000  Uiso   1.00
O84    O     0.57506   0.16667   0.21540   0.00000  Uiso   1.00
S85    S     0.66143   0.21751   0.11365   0.00000  Uiso   1.00
O86    O     0.63562   0.20050   0.06791   0.00000  Uiso   1.00
O87    O     0.62513   0.24441   0.13617   0.00000  Uiso   1.00
O88    O     0.37922   0.24624   0.10276   0.00000  Uiso   1.00
H89    H     0.36504   0.26901   0.08244   0.00000  Uiso   1.00
S90    S     0.33861   0.11567   0.21968   0.00000  Uiso   1.00
O91    O     0.37516   0.08890   0.19734   0.00000  Uiso   1.00
O92    O     0.36458   0.13255   0.26545   0.00000  Uiso   1.00
O93    O     0.62116   0.08633   0.23037   0.00000  Uiso   1.00
H94    H     0.61101   0.09670   0.26049   0.00000  Uiso   1.00
C95    C     0.56896   0.04147   0.10897   0.00000  Uiso   1.00
H96    H     0.58103   0.07324   0.11592   0.00000  Uiso   1.00
O97    O     0.58727   0.02294   0.07787   0.00000  Uiso   1.00
C98    C     0.43106   0.29187   0.22435   0.00000  Uiso   1.00
H99    H     0.41894   0.26011   0.21735   0.00000  Uiso   1.00
O100   O     0.41279   0.31038   0.25549   0.00000  Uiso   1.00
C101   C     0.83512   0.08748   0.16684   0.00000  Uiso   1.00
C102   C     0.83156   0.24585   0.16650   0.00000  Uiso   1.00
C103   C     0.73495   0.16749   0.15530   0.00000  Uiso   1.00
C104   C     0.93171   0.16575   0.17804   0.00000  Uiso   1.00
C105   C     0.68140   0.17573   0.15151   0.00000  Uiso   1.00
C106   C     0.98525   0.15747   0.18184   0.00000  Uiso   1.00
C107   C     0.86526   0.02078   0.13725   0.00000  Uiso   1.00
C108   C     0.80144   0.31255   0.19609   0.00000  Uiso   1.00
C109   C     0.86101   0.31125   0.13660   0.00000  Uiso   1.00
C110   C     0.80571   0.02207   0.19675   0.00000  Uiso   1.00
C111   C     0.83040   0.29050   0.16621   0.00000  Uiso   1.00
C112   C     0.83630   0.04283   0.16712   0.00000  Uiso   1.00
C113   C     0.81258   0.13427   0.02252   0.00000  Uiso   1.00
C114   C     0.85410   0.19906   0.31081   0.00000  Uiso   1.00
C115   C     0.81279   0.13421   0.30635   0.00000  Uiso   1.00
C116   C     0.85391   0.19911   0.02699   0.00000  Uiso   1.00
Cu117  Cu    0.83333   0.16667   0.21355   0.00000  Uiso   1.00
Cu118  Cu    0.83333   0.16666   0.11978   0.00000  Uiso   1.00
H119   H     0.88307   0.29375   0.11404   0.00000  Uiso   1.00
H120   H     0.78367   0.03957   0.21934   0.00000  Uiso   1.00
H121   H     0.79565   0.10835   0.03919   0.00000  Uiso   1.00
H122   H     0.87105   0.22497   0.29414   0.00000  Uiso   1.00
H123   H     0.79625   0.10814   0.28606   0.00000  Uiso   1.00
H124   H     0.87049   0.22516   0.04728   0.00000  Uiso   1.00
N125   N     0.83335   0.16668   0.28403   0.00000  Uiso   1.00
N126   N     0.83332   0.16666   0.04931   0.00000  Uiso   1.00
O127   O     0.83333   0.10655   0.20625   0.00000  Uiso   1.00
O128   O     0.83334   0.22678   0.12709   0.00000  Uiso   1.00
O129   O     0.83333   0.10654   0.12706   0.00000  Uiso   1.00
O130   O     0.83334   0.22679   0.20628   0.00000  Uiso   1.00
O131   O     0.75828   0.16667   0.19712   0.00000  Uiso   1.00
O132   O     0.90839   0.16666   0.13621   0.00000  Uiso   1.00
O133   O     0.75828   0.16666   0.11793   0.00000  Uiso   1.00
O134   O     0.90839   0.16667   0.21540   0.00000  Uiso   1.00
S135   S     0.99476   0.21751   0.11365   0.00000  Uiso   1.00
O136   O     0.96895   0.20050   0.06791   0.00000  Uiso   1.00
O137   O     0.95847   0.24441   0.13617   0.00000  Uiso   1.00
O138   O     0.71256   0.24624   0.10276   0.00000  Uiso   1.00
H139   H     0.69837   0.26901   0.08244   0.00000  Uiso   1.00
S140   S     0.67194   0.11567   0.21968   0.00000  Uiso   1.00
O141   O     0.70849   0.08890   0.19734   0.00000  Uiso   1.00
O142   O     0.69791   0.13255   0.26545   0.00000  Uiso   1.00
O143   O     0.95449   0.08633   0.23037   0.00000  Uiso   1.00
H144   H     0.94434   0.09670   0.26049   0.00000  Uiso   1.00
C145   C     0.90230   0.04147   0.10897   0.00000  Uiso   1.00
H146   H     0.91436   0.07324   0.11592   0.00000  Uiso   1.00
O147   O     0.92061   0.02294   0.07787   0.00000  Uiso   1.00
C148   C     0.76439   0.29187   0.22435   0.00000  Uiso   1.00
H149   H     0.75228   0.26011   0.21735   0.00000  Uiso   1.00
O150   O     0.74613   0.31038   0.25549   0.00000  Uiso   1.00
C151   C     0.16846   0.42082   0.16684   0.00000  Uiso   1.00
C152   C     0.16490   0.57918   0.16650   0.00000  Uiso   1.00
C153   C     0.06828   0.50082   0.15530   0.00000  Uiso   1.00
C154   C     0.26505   0.49908   0.17804   0.00000  Uiso   1.00
C155   C     0.01473   0.50907   0.15151   0.00000  Uiso   1.00
C156   C     0.31858   0.49080   0.18184   0.00000  Uiso   1.00
C157   C     0.19859   0.35411   0.13725   0.00000  Uiso   1.00
C158   C     0.13477   0.64589   0.19609   0.00000  Uiso   1.00
C159   C     0.19434   0.64459   0.13660   0.00000  Uiso   1.00
C160   C     0.13905   0.35541   0.19675   0.00000  Uiso   1.00
C161   C     0.16373   0.62383   0.16621   0.00000  Uiso   1.00
C162   C     0.16964   0.37617   0.16712   0.00000  Uiso   1.00
C163   C     0.14592   0.46760   0.02252   0.00000  Uiso   1.00
C164   C     0.18744   0.53239   0.31081   0.00000  Uiso   1.00
C165   C     0.14612   0.46754   0.30635   0.00000  Uiso   1.00
C166   C     0.18724   0.53244   0.02699   0.00000  Uiso   1.00
Cu167  Cu    0.16667   0.50001   0.21355   0.00000  Uiso   1.00
Cu168  Cu    0.16667   0.49999   0.11978   0.00000  Uiso   1.00
H169   H     0.21641   0.62708   0.11404   0.00000  Uiso   1.00
H170   H     0.11701   0.37291   0.21934   0.00000  Uiso   1.00
H171   H     0.12898   0.44168   0.03919   0.00000  Uiso   1.00
H172   H     0.20438   0.55831   0.29414   0.00000  Uiso   1.00
H173   H     0.12958   0.44148   0.28606   0.00000  Uiso   1.00
H174   H     0.20382   0.55850   0.04728   0.00000  Uiso   1.00
N175   N     0.16668   0.50001   0.28403   0.00000  Uiso   1.00
N176   N     0.16665   0.49999   0.04931   0.00000  Uiso   1.00
O177   O     0.16666   0.43989   0.20625   0.00000  Uiso   1.00
O178   O     0.16667   0.56011   0.12709   0.00000  Uiso   1.00
O179   O     0.16666   0.43988   0.12706   0.00000  Uiso   1.00
O180   O     0.16667   0.56012   0.20628   0.00000  Uiso   1.00
O181   O     0.09161   0.50000   0.19712   0.00000  Uiso   1.00
O182   O     0.24172   0.50000   0.13621   0.00000  Uiso   1.00
O183   O     0.09161   0.49999   0.11793   0.00000  Uiso   1.00
O184   O     0.24172   0.50001   0.21540   0.00000  Uiso   1.00
S185   S     0.32810   0.55084   0.11365   0.00000  Uiso   1.00
O186   O     0.30228   0.53384   0.06791   0.00000  Uiso   1.00
O187   O     0.29180   0.57774   0.13617   0.00000  Uiso   1.00
O188   O     0.04589   0.57958   0.10276   0.00000  Uiso   1.00
H189   H     0.03171   0.60234   0.08244   0.00000  Uiso   1.00
S190   S     0.00528   0.44900   0.21968   0.00000  Uiso   1.00
O191   O     0.04182   0.42223   0.19734   0.00000  Uiso   1.00
O192   O     0.03124   0.46589   0.26545   0.00000  Uiso   1.00
O193   O     0.28783   0.41967   0.23037   0.00000  Uiso   1.00
H194   H     0.27767   0.43003   0.26049   0.00000  Uiso   1.00
C195   C     0.23563   0.37480   0.10897   0.00000  Uiso   1.00
H196   H     0.24770   0.40657   0.11592   0.00000  Uiso   1.00
O197   O     0.25394   0.35627   0.07787   0.00000  Uiso   1.00
C198   C     0.09772   0.62520   0.22435   0.00000  Uiso   1.00
H199   H     0.08561   0.59344   0.21735   0.00000  Uiso   1.00
O200   O     0.07946   0.64371   0.25549   0.00000  Uiso   1.00
C201   C     0.50179   0.42082   0.16684   0.00000  Uiso   1.00
C202   C     0.49823   0.57918   0.16650   0.00000  Uiso   1.00
C203   C     0.40161   0.50082   0.15530   0.00000  Uiso   1.00
C204   C     0.59838   0.49908   0.17804   0.00000  Uiso   1.00
C205   C     0.34806   0.50907   0.15151   0.00000  Uiso   1.00
C206   C     0.65192   0.49080   0.18184   0.00000  Uiso   1.00
C207   C     0.53193   0.35411   0.13725   0.00000  Uiso   1.00
C208   C     0.46811   0.64589   0.19609   0.00000  Uiso   1.00
C209   C     0.52767   0.64459   0.13660   0.00000  Uiso   1.00
C210   C     0.47238   0.35541   0.19675   0.00000  Uiso   1.00
C211   C     0.49706   0.62383   0.16621   0.00000  Uiso   1.00
C212   C     0.50297   0.37617   0.16712   0.00000  Uiso   1.00
C213   C     0.47925   0.46760   0.02252   0.00000  Uiso   1.00
C214   C     0.52077   0.53239   0.31081   0.00000  Uiso   1.00
C215   C     0.47946   0.46754   0.30635   0.00000  Uiso   1.00
C216   C     0.52057   0.53244   0.02699   0.00000  Uiso   1.00
Cu217  Cu    0.50000   0.50001   0.21355   0.00000  Uiso   1.00
Cu218  Cu    0.50000   0.49999   0.11978   0.00000  Uiso   1.00
H219   H     0.54974   0.62708   0.11404   0.00000  Uiso   1.00
H220   H     0.45034   0.37291   0.21934   0.00000  Uiso   1.00
H221   H     0.46232   0.44168   0.03919   0.00000  Uiso   1.00
H222   H     0.53771   0.55831   0.29414   0.00000  Uiso   1.00
H223   H     0.46291   0.44148   0.28606   0.00000  Uiso   1.00
H224   H     0.53716   0.55850   0.04728   0.00000  Uiso   1.00
N225   N     0.50001   0.50001   0.28403   0.00000  Uiso   1.00
N226   N     0.49999   0.49999   0.04931   0.00000  Uiso   1.00
O227   O     0.50000   0.43989   0.20625   0.00000  Uiso   1.00
O228   O     0.50000   0.56011   0.12709   0.00000  Uiso   1.00
O229   O     0.50000   0.43988   0.12706   0.00000  Uiso   1.00
O230   O     0.50000   0.56012   0.20628   0.00000  Uiso   1.00
O231   O     0.42495   0.50000   0.19712   0.00000  Uiso   1.00
O232   O     0.57505   0.50000   0.13621   0.00000  Uiso   1.00
O233   O     0.42494   0.49999   0.11793   0.00000  Uiso   1.00
O234   O     0.57506   0.50001   0.21540   0.00000  Uiso   1.00
S235   S     0.66143   0.55084   0.11365   0.00000  Uiso   1.00
O236   O     0.63562   0.53384   0.06791   0.00000  Uiso   1.00
O237   O     0.62513   0.57774   0.13617   0.00000  Uiso   1.00
O238   O     0.37922   0.57958   0.10276   0.00000  Uiso   1.00
H239   H     0.36504   0.60234   0.08244   0.00000  Uiso   1.00
S240   S     0.33861   0.44900   0.21968   0.00000  Uiso   1.00
O241   O     0.37516   0.42223   0.19734   0.00000  Uiso   1.00
O242   O     0.36458   0.46589   0.26545   0.00000  Uiso   1.00
O243   O     0.62116   0.41967   0.23037   0.00000  Uiso   1.00
H244   H     0.61101   0.43003   0.26049   0.00000  Uiso   1.00
C245   C     0.56896   0.37480   0.10897   0.00000  Uiso   1.00
H246   H     0.58103   0.40657   0.11592   0.00000  Uiso   1.00
O247   O     0.58727   0.35627   0.07787   0.00000  Uiso   1.00
C248   C     0.43106   0.62520   0.22435   0.00000  Uiso   1.00
H249   H     0.41894   0.59344   0.21735   0.00000  Uiso   1.00
O250   O     0.41279   0.64371   0.25549   0.00000  Uiso   1.00
C251   C     0.83512   0.42082   0.16684   0.00000  Uiso   1.00
C252   C     0.83156   0.57918   0.16650   0.00000  Uiso   1.00
C253   C     0.73495   0.50082   0.15530   0.00000  Uiso   1.00
C254   C     0.93171   0.49908   0.17804   0.00000  Uiso   1.00
C255   C     0.68140   0.50907   0.15151   0.00000  Uiso   1.00
C256   C     0.98525   0.49080   0.18184   0.00000  Uiso   1.00
C257   C     0.86526   0.35411   0.13725   0.00000  Uiso   1.00
C258   C     0.80144   0.64589   0.19609   0.00000  Uiso   1.00
C259   C     0.86101   0.64459   0.13660   0.00000  Uiso   1.00
C260   C     0.80571   0.35541   0.19675   0.00000  Uiso   1.00
C261   C     0.83040   0.62383   0.16621   0.00000  Uiso   1.00
C262   C     0.83630   0.37617   0.16712   0.00000  Uiso   1.00
C263   C     0.81258   0.46760   0.02252   0.00000  Uiso   1.00
C264   C     0.85410   0.53239   0.31081   0.00000  Uiso   1.00
C265   C     0.81279   0.46754   0.30635   0.00000  Uiso   1.00
C266   C     0.85391   0.53244   0.02699   0.00000  Uiso   1.00
Cu267  Cu    0.83333   0.50001   0.21355   0.00000  Uiso   1.00
Cu268  Cu    0.83333   0.49999   0.11978   0.00000  Uiso   1.00
H269   H     0.88307   0.62708   0.11404   0.00000  Uiso   1.00
H270   H     0.78367   0.37291   0.21934   0.00000  Uiso   1.00
H271   H     0.79565   0.44168   0.03919   0.00000  Uiso   1.00
H272   H     0.87105   0.55831   0.29414   0.00000  Uiso   1.00
H273   H     0.79625   0.44148   0.28606   0.00000  Uiso   1.00
H274   H     0.87049   0.55850   0.04728   0.00000  Uiso   1.00
N275   N     0.83335   0.50001   0.28403   0.00000  Uiso   1.00
N276   N     0.83332   0.49999   0.04931   0.00000  Uiso   1.00
O277   O     0.83333   0.43989   0.20625   0.00000  Uiso   1.00
O278   O     0.83334   0.56011   0.12709   0.00000  Uiso   1.00
O279   O     0.83333   0.43988   0.12706   0.00000  Uiso   1.00
O280   O     0.83334   0.56012   0.20628   0.00000  Uiso   1.00
O281   O     0.75828   0.50000   0.19712   0.00000  Uiso   1.00
O282   O     0.90839   0.50000   0.13621   0.00000  Uiso   1.00
O283   O     0.75828   0.49999   0.11793   0.00000  Uiso   1.00
O284   O     0.90839   0.50001   0.21540   0.00000  Uiso   1.00
S285   S     0.99476   0.55084   0.11365   0.00000  Uiso   1.00
O286   O     0.96895   0.53384   0.06791   0.00000  Uiso   1.00
O287   O     0.95847   0.57774   0.13617   0.00000  Uiso   1.00
O288   O     0.71256   0.57958   0.10276   0.00000  Uiso   1.00
H289   H     0.69837   0.60234   0.08244   0.00000  Uiso   1.00
S290   S     0.67194   0.44900   0.21968   0.00000  Uiso   1.00
O291   O     0.70849   0.42223   0.19734   0.00000  Uiso   1.00
O292   O     0.69791   0.46589   0.26545   0.00000  Uiso   1.00
O293   O     0.95449   0.41967   0.23037   0.00000  Uiso   1.00
H294   H     0.94434   0.43003   0.26049   0.00000  Uiso   1.00
C295   C     0.90230   0.37480   0.10897   0.00000  Uiso   1.00
H296   H     0.91436   0.40657   0.11592   0.00000  Uiso   1.00
O297   O     0.92061   0.35627   0.07787   0.00000  Uiso   1.00
C298   C     0.76439   0.62520   0.22435   0.00000  Uiso   1.00
H299   H     0.75228   0.59344   0.21735   0.00000  Uiso   1.00
O300   O     0.74613   0.64371   0.25549   0.00000  Uiso   1.00
C301   C     0.16846   0.75415   0.16684   0.00000  Uiso   1.00
C302   C     0.16490   0.91252   0.16650   0.00000  Uiso   1.00
C303   C     0.06828   0.83416   0.15530   0.00000  Uiso   1.00
C304   C     0.26505   0.83242   0.17804   0.00000  Uiso   1.00
C305   C     0.01473   0.84240   0.15151   0.00000  Uiso   1.00
C306   C     0.31858   0.82414   0.18184   0.00000  Uiso   1.00
C307   C     0.19859   0.68744   0.13725   0.00000  Uiso   1.00
C308   C     0.13477   0.97922   0.19609   0.00000  Uiso   1.00
C309   C     0.19434   0.97792   0.13660   0.00000  Uiso   1.00
C310   C     0.13905   0.68874   0.19675   0.00000  Uiso   1.00
C311   C     0.16373   0.95716   0.16621   0.00000  Uiso   1.00
C312   C     0.16964   0.70950   0.16712   0.00000  Uiso   1.00
C313   C     0.14592   0.80094   0.02252   0.00000  Uiso   1.00
C314   C     0.18744   0.86572   0.31081   0.00000  Uiso   1.00
C315   C     0.14612   0.80088   0.30635   0.00000  Uiso   1.00
C316   C     0.18724   0.86578   0.02699   0.00000  Uiso   1.00
Cu317  Cu    0.16667   0.83334   0.21355   0.00000  Uiso   1.00
Cu318  Cu    0.16667   0.83333   0.11978   0.00000  Uiso   1.00
H319   H     0.21641   0.96041   0.11404   0.00000  Uiso   1.00
H320   H     0.11701   0.70624   0.21934   0.00000  Uiso   1.00
H321   H     0.12898   0.77502   0.03919   0.00000  Uiso   1.00
H322   H     0.20438   0.89164   0.29414   0.00000  Uiso   1.00
H323   H     0.12958   0.77481   0.28606   0.00000  Uiso   1.00
H324   H     0.20382   0.89183   0.04728   0.00000  Uiso   1.00
N325   N     0.16668   0.83334   0.28403   0.00000  Uiso   1.00
N326   N     0.16665   0.83332   0.04931   0.00000  Uiso   1.00
O327   O     0.16666   0.77322   0.20625   0.00000  Uiso   1.00
O328   O     0.16667   0.89345   0.12709   0.00000  Uiso   1.00
O329   O     0.16666   0.77321   0.12706   0.00000  Uiso   1.00
O330   O     0.16667   0.89346   0.20628   0.00000  Uiso   1.00
O331   O     0.09161   0.83334   0.19712   0.00000  Uiso   1.00
O332   O     0.24172   0.83333   0.13621   0.00000  Uiso   1.00
O333   O     0.09161   0.83333   0.11793   0.00000  Uiso   1.00
O334   O     0.24172   0.83334   0.21540   0.00000  Uiso   1.00
S335   S     0.32810   0.88418   0.11365   0.00000  Uiso   1.00
O336   O     0.30228   0.86717   0.06791   0.00000  Uiso   1.00
O337   O     0.29180   0.91108   0.13617   0.00000  Uiso   1.00
O338   O     0.04589   0.91291   0.10276   0.00000  Uiso   1.00
H339   H     0.03171   0.93567   0.08244   0.00000  Uiso   1.00
S340   S     0.00528   0.78233   0.21968   0.00000  Uiso   1.00
O341   O     0.04182   0.75557   0.19734   0.00000  Uiso   1.00
O342   O     0.03124   0.79922   0.26545   0.00000  Uiso   1.00
O343   O     0.28783   0.75300   0.23037   0.00000  Uiso   1.00
H344   H     0.27767   0.76336   0.26049   0.00000  Uiso   1.00
C345   C     0.23563   0.70813   0.10897   0.00000  Uiso   1.00
H346   H     0.24770   0.73991   0.11592   0.00000  Uiso   1.00
O347   O     0.25394   0.68960   0.07787   0.00000  Uiso   1.00
C348   C     0.09772   0.95853   0.22435   0.00000  Uiso   1.00
H349   H     0.08561   0.92678   0.21735   0.00000  Uiso   1.00
O350   O     0.07946   0.97704   0.25549   0.00000  Uiso   1.00
C351   C     0.50179   0.75415   0.16684   0.00000  Uiso   1.00
C352   C     0.49823   0.91252   0.16650   0.00000  Uiso   1.00
C353   C     0.40161   0.83416   0.15530   0.00000  Uiso   1.00
C354   C     0.59838   0.83242   0.17804   0.00000  Uiso   1.00
C355   C     0.34806   0.84240   0.15151   0.00000  Uiso   1.00
C356   C     0.65192   0.82414   0.18184   0.00000  Uiso   1.00
C357   C     0.53193   0.68744   0.13725   0.00000  Uiso   1.00
C358   C     0.46811   0.97922   0.19609   0.00000  Uiso   1.00
C359   C     0.52767   0.97792   0.13660   0.00000  Uiso   1.00
C360   C     0.47238   0.68874   0.19675   0.00000  Uiso   1.00
C361   C     0.49706   0.95716   0.16621   0.00000  Uiso   1.00
C362   C     0.50297   0.70950   0.16712   0.00000  Uiso   1.00
C363   C     0.47925   0.80094   0.02252   0.00000  Uiso   1.00
C364   C     0.52077   0.86572   0.31081   0.00000  Uiso   1.00
C365   C     0.47946   0.80088   0.30635   0.00000  Uiso   1.00
C366   C     0.52057   0.86578   0.02699   0.00000  Uiso   1.00
Cu367  Cu    0.50000   0.83334   0.21355   0.00000  Uiso   1.00
Cu368  Cu    0.50000   0.83333   0.11978   0.00000  Uiso   1.00
H369   H     0.54974   0.96041   0.11404   0.00000  Uiso   1.00
H370   H     0.45034   0.70624   0.21934   0.00000  Uiso   1.00
H371   H     0.46232   0.77502   0.03919   0.00000  Uiso   1.00
H372   H     0.53771   0.89164   0.29414   0.00000  Uiso   1.00
H373   H     0.46291   0.77481   0.28606   0.00000  Uiso   1.00
H374   H     0.53716   0.89183   0.04728   0.00000  Uiso   1.00
N375   N     0.50001   0.83334   0.28403   0.00000  Uiso   1.00
N376   N     0.49999   0.83332   0.04931   0.00000  Uiso   1.00
O377   O     0.50000   0.77322   0.20625   0.00000  Uiso   1.00
O378   O     0.50000   0.89345   0.12709   0.00000  Uiso   1.00
O379   O     0.50000   0.77321   0.12706   0.00000  Uiso   1.00
O380   O     0.50000   0.89346   0.20628   0.00000  Uiso   1.00
O381   O     0.42495   0.83334   0.19712   0.00000  Uiso   1.00
O382   O     0.57505   0.83333   0.13621   0.00000  Uiso   1.00
O383   O     0.42494   0.83333   0.11793   0.00000  Uiso   1.00
O384   O     0.57506   0.83334   0.21540   0.00000  Uiso   1.00
S385   S     0.66143   0.88418   0.11365   0.00000  Uiso   1.00
O386   O     0.63562   0.86717   0.06791   0.00000  Uiso   1.00
O387   O     0.62513   0.91108   0.13617   0.00000  Uiso   1.00
O388   O     0.37922   0.91291   0.10276   0.00000  Uiso   1.00
H389   H     0.36504   0.93567   0.08244   0.00000  Uiso   1.00
S390   S     0.33861   0.78233   0.21968   0.00000  Uiso   1.00
O391   O     0.37516   0.75557   0.19734   0.00000  Uiso   1.00
O392   O     0.36458   0.79922   0.26545   0.00000  Uiso   1.00
O393   O     0.62116   0.75300   0.23037   0.00000  Uiso   1.00
H394   H     0.61101   0.76336   0.26049   0.00000  Uiso   1.00
C395   C     0.56896   0.70813   0.10897   0.00000  Uiso   1.00
H396   H     0.58103   0.73991   0.11592   0.00000  Uiso   1.00
O397   O     0.58727   0.68960   0.07787   0.00000  Uiso   1.00
C398   C     0.43106   0.95853   0.22435   0.00000  Uiso   1.00
H399   H     0.41894   0.92678   0.21735   0.00000  Uiso   1.00
O400   O     0.41279   0.97704   0.25549   0.00000  Uiso   1.00
C401   C     0.83512   0.75415   0.16684   0.00000  Uiso   1.00
C402   C     0.83156   0.91252   0.16650   0.00000  Uiso   1.00
C403   C     0.73495   0.83416   0.15530   0.00000  Uiso   1.00
C404   C     0.93171   0.83242   0.17804   0.00000  Uiso   1.00
C405   C     0.68140   0.84240   0.15151   0.00000  Uiso   1.00
C406   C     0.98525   0.82414   0.18184   0.00000  Uiso   1.00
C407   C     0.86526   0.68744   0.13725   0.00000  Uiso   1.00
C408   C     0.80144   0.97922   0.19609   0.00000  Uiso   1.00
C409   C     0.86101   0.97792   0.13660   0.00000  Uiso   1.00
C410   C     0.80571   0.68874   0.19675   0.00000  Uiso   1.00
C411   C     0.83040   0.95716   0.16621   0.00000  Uiso   1.00
C412   C     0.83630   0.70950   0.16712   0.00000  Uiso   1.00
C413   C     0.81258   0.80094   0.02252   0.00000  Uiso   1.00
C414   C     0.85410   0.86572   0.31081   0.00000  Uiso   1.00
C415   C     0.81279   0.80088   0.30635   0.00000  Uiso   1.00
C416   C     0.85391   0.86578   0.02699   0.00000  Uiso   1.00
Cu417  Cu    0.83333   0.83334   0.21355   0.00000  Uiso   1.00
Cu418  Cu    0.83333   0.83333   0.11978   0.00000  Uiso   1.00
H419   H     0.88307   0.96041   0.11404   0.00000  Uiso   1.00
H420   H     0.78367   0.70624   0.21934   0.00000  Uiso   1.00
H421   H     0.79565   0.77502   0.03919   0.00000  Uiso   1.00
H422   H     0.87105   0.89164   0.29414   0.00000  Uiso   1.00
H423   H     0.79625   0.77481   0.28606   0.00000  Uiso   1.00
H424   H     0.87049   0.89183   0.04728   0.00000  Uiso   1.00
N425   N     0.83335   0.83334   0.28403   0.00000  Uiso   1.00
N426   N     0.83332   0.83332   0.04931   0.00000  Uiso   1.00
O427   O     0.83333   0.77322   0.20625   0.00000  Uiso   1.00
O428   O     0.83334   0.89345   0.12709   0.00000  Uiso   1.00
O429   O     0.83333   0.77321   0.12706   0.00000  Uiso   1.00
O430   O     0.83334   0.89346   0.20628   0.00000  Uiso   1.00
O431   O     0.75828   0.83334   0.19712   0.00000  Uiso   1.00
O432   O     0.90839   0.83333   0.13621   0.00000  Uiso   1.00
O433   O     0.75828   0.83333   0.11793   0.00000  Uiso   1.00
O434   O     0.90839   0.83334   0.21540   0.00000  Uiso   1.00
S435   S     0.99476   0.88418   0.11365   0.00000  Uiso   1.00
O436   O     0.96895   0.86717   0.06791   0.00000  Uiso   1.00
O437   O     0.95847   0.91108   0.13617   0.00000  Uiso   1.00
O438   O     0.71256   0.91291   0.10276   0.00000  Uiso   1.00
H439   H     0.69837   0.93567   0.08244   0.00000  Uiso   1.00
S440   S     0.67194   0.78233   0.21968   0.00000  Uiso   1.00
O441   O     0.70849   0.75557   0.19734   0.00000  Uiso   1.00
O442   O     0.69791   0.79922   0.26545   0.00000  Uiso   1.00
O443   O     0.95449   0.75300   0.23037   0.00000  Uiso   1.00
H444   H     0.94434   0.76336   0.26049   0.00000  Uiso   1.00
C445   C     0.90230   0.70813   0.10897   0.00000  Uiso   1.00
H446   H     0.91436   0.73991   0.11592   0.00000  Uiso   1.00
O447   O     0.92061   0.68960   0.07787   0.00000  Uiso   1.00
C448   C     0.76439   0.95853   0.22435   0.00000  Uiso   1.00
H449   H     0.75228   0.92678   0.21735   0.00000  Uiso   1.00
O450   O     0.74613   0.97704   0.25549   0.00000  Uiso   1.00
C451   C     0.16846   0.08748   0.50017   0.00000  Uiso   1.00
C452   C     0.16490   0.24585   0.49983   0.00000  Uiso   1.00
C453   C     0.06828   0.16749   0.48863   0.00000  Uiso   1.00
C454   C     0.26505   0.16575   0.51137   0.00000  Uiso   1.00
C455   C     0.01473   0.17573   0.48484   0.00000  Uiso   1.00
C456   C     0.31858   0.15747   0.51518   0.00000  Uiso   1.00
C457   C     0.19859   0.02078   0.47058   0.00000  Uiso   1.00
C458   C     0.13477   0.31255   0.52942   0.00000  Uiso   1.00
C459   C     0.19434   0.31125   0.46993   0.00000  Uiso   1.00
C460   C     0.13905   0.02207   0.53008   0.00000  Uiso   1.00
C461   C     0.16373   0.29050   0.49955   0.00000  Uiso   1.00
C462   C     0.16964   0.04283   0.50045   0.00000  Uiso   1.00
C463   C     0.14592   0.13427   0.35586   0.00000  Uiso   1.00
C464   C     0.18744   0.19906   0.64415   0.00000  Uiso   1.00
C465   C     0.14612   0.13421   0.63968   0.00000  Uiso   1.00
C466   C     0.18724   0.19911   0.36032   0.00000  Uiso   1.00
Cu467  Cu    0.16667   0.16667   0.54689   0.00000  Uiso   1.00
Cu468  Cu    0.16667   0.16666   0.45311   0.00000  Uiso   1.00
H469   H     0.21641   0.29375   0.44737   0.00000  Uiso   1.00
H470   H     0.11701   0.03957   0.55267   0.00000  Uiso   1.00
H471   H     0.12898   0.10835   0.37252   0.00000  Uiso   1.00
H472   H     0.20438   0.22497   0.62748   0.00000  Uiso   1.00
H473   H     0.12958   0.10814   0.61940   0.00000  Uiso   1.00
H474   H     0.20382   0.22516   0.38061   0.00000  Uiso   1.00
N475   N     0.16668   0.16668   0.61736   0.00000  Uiso   1.00
N476   N     0.16665   0.16666   0.38264   0.00000  Uiso   1.00
O477   O     0.16666   0.10655   0.53958   0.00000  Uiso   1.00
O478   O     0.16667   0.22678   0.46042   0.00000  Uiso   1.00
O479   O     0.16666   0.10654   0.46039   0.00000  Uiso   1.00
O480   O     0.16667   0.22679   0.53961   0.00000  Uiso   1.00
O481   O     0.09161   0.16667   0.53046   0.00000  Uiso   1.00
O482   O     0.24172   0.16666   0.46954   0.00000  Uiso   1.00
O483   O     0.09161   0.16666   0.45127   0.00000  Uiso   1.00
O484   O     0.24172   0.16667   0.54873   0.00000  Uiso   1.00
S485   S     0.32810   0.21751   0.44699   0.00000  Uiso   1.00
O486   O     0.30228   0.20050   0.40124   0.00000  Uiso   1.00
O487   O     0.29180   0.24441   0.46950   0.00000  Uiso   1.00
O488   O     0.04589   0.24624   0.43609   0.00000  Uiso   1.00
H489   H     0.03171   0.26901   0.41577   0.00000  Uiso   1.00
S490   S     0.00528   0.11567   0.55301   0.00000  Uiso   1.00
O491   O     0.04182   0.08890   0.53067   0.00000  Uiso   1.00
O492   O     0.03124   0.13255   0.59878   0.00000  Uiso   1.00
O493   O     0.28783   0.08633   0.56371   0.00000  Uiso   1.00
H494   H     0.27767   0.09670   0.59382   0.00000  Uiso   1.00
C495   C     0.23563   0.04147   0.44230   0.00000  Uiso   1.00
H496   H     0.24770   0.07324   0.44926   0.00000  Uiso   1.00
O497   O     0.25394   0.02294   0.41120   0.00000  Uiso   1.00
C498   C     0.09772   0.29187   0.55768   0.00000  Uiso   1.00
H499   H     0.08561   0.26011   0.55068   0.00000  Uiso   1.00
O500   O     0.07946   0.31038   0.58883   0.00000  Uiso   1.00
C501   C     0.50179   0.08748   0.50017   0.00000  Uiso   1.00
C502   C     0.49823   0.24585   0.49983   0.00000  Uiso   1.00
C503   C     0.40161   0.16749   0.48863   0.00000  Uiso   1.00
C504   C     0.59838   0.16575   0.51137   0.00000  Uiso   1.00
C505   C     0.34806   0.17573   0.48484   0.00000  Uiso   1.00
C506   C     0.65192   0.15747   0.51518   0.00000  Uiso   1.00
C507   C     0.53193   0.02078   0.47058   0.00000  Uiso   1.00
C508   C     0.46811   0.31255   0.52942   0.00000  Uiso   1.00
C509   C     0.52767   0.31125   0.46993   0.00000  Uiso   1.00
C510   C     0.47238   0.02207   0.53008   0.00000  Uiso   1.00
C511   C     0.49706   0.29050   0.49955   0.00000  Uiso   1.00
C512   C     0.50297   0.04283   0.50045   0.00000  Uiso   1.00
C513   C     0.47925   0.13427   0.35586   0.00000  Uiso   1.00
C514   C     0.52077   0.19906   0.64415   0.00000  Uiso   1.00
C515   C     0.47946   0.13421   0.63968   0.00000  Uiso   1.00
C516   C     0.52057   0.19911   0.36032   0.00000  Uiso   1.00
Cu517  Cu    0.50000   0.16667   0.54689   0.00000  Uiso   1.00
Cu518  Cu    0.50000   0.16666   0.45311   0.00000  Uiso   1.00
H519   H     0.54974   0.29375   0.44737   0.00000  Uiso   1.00
H520   H     0.45034   0.03957   0.55267   0.00000  Uiso   1.00
H521   H     0.46232   0.10835   0.37252   0.00000  Uiso   1.00
H522   H     0.53771   0.22497   0.62748   0.00000  Uiso   1.00
H523   H     0.46291   0.10814   0.61940   0.00000  Uiso   1.00
H524   H     0.53716   0.22516   0.38061   0.00000  Uiso   1.00
N525   N     0.50001   0.16668   0.61736   0.00000  Uiso   1.00
N526   N     0.49999   0.16666   0.38264   0.00000  Uiso   1.00
O527   O     0.50000   0.10655   0.53958   0.00000  Uiso   1.00
O528   O     0.50000   0.22678   0.46042   0.00000  Uiso   1.00
O529   O     0.50000   0.10654   0.46039   0.00000  Uiso   1.00
O530   O     0.50000   0.22679   0.53961   0.00000  Uiso   1.00
O531   O     0.42495   0.16667   0.53046   0.00000  Uiso   1.00
O532   O     0.57505   0.16666   0.46954   0.00000  Uiso   1.00
O533   O     0.42494   0.16666   0.45127   0.00000  Uiso   1.00
O534   O     0.57506   0.16667   0.54873   0.00000  Uiso   1.00
S535   S     0.66143   0.21751   0.44699   0.00000  Uiso   1.00
O536   O     0.63562   0.20050   0.40124   0.00000  Uiso   1.00
O537   O     0.62513   0.24441   0.46950   0.00000  Uiso   1.00
O538   O     0.37922   0.24624   0.43609   0.00000  Uiso   1.00
H539   H     0.36504   0.26901   0.41577   0.00000  Uiso   1.00
S540   S     0.33861   0.11567   0.55301   0.00000  Uiso   1.00
O541   O     0.37516   0.08890   0.53067   0.00000  Uiso   1.00
O542   O     0.36458   0.13255   0.59878   0.00000  Uiso   1.00
O543   O     0.62116   0.08633   0.56371   0.00000  Uiso   1.00
H544   H     0.61101   0.09670   0.59382   0.00000  Uiso   1.00
C545   C     0.56896   0.04147   0.44230   0.00000  Uiso   1.00
H546   H     0.58103   0.07324   0.44926   0.00000  Uiso   1.00
O547   O     0.58727   0.02294   0.41120   0.00000  Uiso   1.00
C548   C     0.43106   0.29187   0.55768   0.00000  Uiso   1.00
H549   H     0.41894   0.26011   0.55068   0.00000  Uiso   1.00
O550   O     0.41279   0.31038   0.58883   0.00000  Uiso   1.00
C551   C     0.83512   0.08748   0.50017   0.00000  Uiso   1.00
C552   C     0.83156   0.24585   0.49983   0.00000  Uiso   1.00
C553   C     0.73495   0.16749   0.48863   0.00000  Uiso   1.00
C554   C     0.93171   0.16575   0.51137   0.00000  Uiso   1.00
C555   C     0.68140   0.17573   0.48484   0.00000  Uiso   1.00
C556   C     0.98525   0.15747   0.51518   0.00000  Uiso   1.00
C557   C     0.86526   0.02078   0.47058   0.00000  Uiso   1.00
C558   C     0.80144   0.31255   0.52942   0.00000  Uiso   1.00
C559   C     0.86101   0.31125   0.46993   0.00000  Uiso   1.00
C560   C     0.80571   0.02207   0.53008   0.00000  Uiso   1.00
C561   C     0.83040   0.29050   0.49955   0.00000  Uiso   1.00
C562   C     0.83630   0.04283   0.50045   0.00000  Uiso   1.00
C563   C     0.81258   0.13427   0.35586   0.00000  Uiso   1.00
C564   C     0.85410   0.19906   0.64415   0.00000  Uiso   1.00
C565   C     0.81279   0.13421   0.63968   0.00000  Uiso   1.00
C566   C     0.85391   0.19911   0.36032   0.00000  Uiso   1.00
Cu567  Cu    0.83333   0.16667   0.54689   0.00000  Uiso   1.00
Cu568  Cu    0.83333   0.16666   0.45311   0.00000  Uiso   1.00
H569   H     0.88307   0.29375   0.44737   0.00000  Uiso   1.00
H570   H     0.78367   0.03957   0.55267   0.00000  Uiso   1.00
H571   H     0.79565   0.10835   0.37252   0.00000  Uiso   1.00
H572   H     0.87105   0.22497   0.62748   0.00000  Uiso   1.00
H573   H     0.79625   0.10814   0.61940   0.00000  Uiso   1.00
H574   H     0.87049   0.22516   0.38061   0.00000  Uiso   1.00
N575   N     0.83335   0.16668   0.61736   0.00000  Uiso   1.00
N576   N     0.83332   0.16666   0.38264   0.00000  Uiso   1.00
O577   O     0.83333   0.10655   0.53958   0.00000  Uiso   1.00
O578   O     0.83334   0.22678   0.46042   0.00000  Uiso   1.00
O579   O     0.83333   0.10654   0.46039   0.00000  Uiso   1.00
O580   O     0.83334   0.22679   0.53961   0.00000  Uiso   1.00
O581   O     0.75828   0.16667   0.53046   0.00000  Uiso   1.00
O582   O     0.90839   0.16666   0.46954   0.00000  Uiso   1.00
O583   O     0.75828   0.16666   0.45127   0.00000  Uiso   1.00
O584   O     0.90839   0.16667   0.54873   0.00000  Uiso   1.00
S585   S     0.99476   0.21751   0.44699   0.00000  Uiso   1.00
O586   O     0.96895   0.20050   0.40124   0.00000  Uiso   1.00
O587   O     0.95847   0.24441   0.46950   0.00000  Uiso   1.00
O588   O     0.71256   0.24624   0.43609   0.00000  Uiso   1.00
H589   H     0.69837   0.26901   0.41577   0.00000  Uiso   1.00
S590   S     0.67194   0.11567   0.55301   0.00000  Uiso   1.00
O591   O     0.70849   0.08890   0.53067   0.00000  Uiso   1.00
O592   O     0.69791   0.13255   0.59878   0.00000  Uiso   1.00
O593   O     0.95449   0.08633   0.56371   0.00000  Uiso   1.00
H594   H     0.94434   0.09670   0.59382   0.00000  Uiso   1.00
C595   C     0.90230   0.04147   0.44230   0.00000  Uiso   1.00
H596   H     0.91436   0.07324   0.44926   0.00000  Uiso   1.00
O597   O     0.92061   0.02294   0.41120   0.00000  Uiso   1.00
C598   C     0.76439   0.29187   0.55768   0.00000  Uiso   1.00
H599   H     0.75228   0.26011   0.55068   0.00000  Uiso   1.00
O600   O     0.74613   0.31038   0.58883   0.00000  Uiso   1.00
C601   C     0.16846   0.42082   0.50017   0.00000  Uiso   1.00
C602   C     0.16490   0.57918   0.49983   0.00000  Uiso   1.00
C603   C     0.06828   0.50082   0.48863   0.00000  Uiso   1.00
C604   C     0.26505   0.49908   0.51137   0.00000  Uiso   1.00
C605   C     0.01473   0.50907   0.48484   0.00000  Uiso   1.00
C606   C     0.31858   0.49080   0.51518   0.00000  Uiso   1.00
C607   C     0.19859   0.35411   0.47058   0.00000  Uiso   1.00
C608   C     0.13477   0.64589   0.52942   0.00000  Uiso   1.00
C609   C     0.19434   0.64459   0.46993   0.00000  Uiso   1.00
C610   C     0.13905   0.35541   0.53008   0.00000  Uiso   1.00
C611   C     0.16373   0.62383   0.49955   0.00000  Uiso   1.00
C612   C     0.16964   0.37617   0.50045   0.00000  Uiso   1.00
C613   C     0.14592   0.46760   0.35586   0.00000  Uiso   1.00
C614   C     0.18744   0.53239   0.64415   0.00000  Uiso   1.00
C615   C     0.14612   0.46754   0.63968   0.00000  Uiso   1.00
C616   C     0.18724   0.53244   0.36032   0.00000  Uiso   1.00
Cu617  Cu    0.16667   0.50001   0.54689   0.00000  Uiso   1.00
Cu618  Cu    0.16667   0.49999   0.45311   0.00000  Uiso   1.00
H619   H     0.21641   0.62708   0.44737   0.00000  Uiso   1.00
H620   H     0.11701   0.37291   0.55267   0.00000  Uiso   1.00
H621   H     0.12898   0.44168   0.37252   0.00000  Uiso   1.00
H622   H     0.20438   0.55831   0.62748   0.00000  Uiso   1.00
H623   H     0.12958   0.44148   0.61940   0.00000  Uiso   1.00
H624   H     0.20382   0.55850   0.38061   0.00000  Uiso   1.00
N625   N     0.16668   0.50001   0.61736   0.00000  Uiso   1.00
N626   N     0.16665   0.49999   0.38264   0.00000  Uiso   1.00
O627   O     0.16666   0.43989   0.53958   0.00000  Uiso   1.00
O628   O     0.16667   0.56011   0.46042   0.00000  Uiso   1.00
O629   O     0.16666   0.43988   0.46039   0.00000  Uiso   1.00
O630   O     0.16667   0.56012   0.53961   0.00000  Uiso   1.00
O631   O     0.09161   0.50000   0.53046   0.00000  Uiso   1.00
O632   O     0.24172   0.50000   0.46954   0.00000  Uiso   1.00
O633   O     0.09161   0.49999   0.45127   0.00000  Uiso   1.00
O634   O     0.24172   0.50001   0.54873   0.00000  Uiso   1.00
S635   S     0.32810   0.55084   0.44699   0.00000  Uiso   1.00
O636   O     0.30228   0.53384   0.40124   0.00000  Uiso   1.00
O637   O     0.29180   0.57774   0.46950   0.00000  Uiso   1.00
O638   O     0.04589   0.57958   0.43609   0.00000  Uiso   1.00
H639   H     0.03171   0.60234   0.41577   0.00000  Uiso   1.00
S640   S     0.00528   0.44900   0.55301   0.00000  Uiso   1.00
O641   O     0.04182   0.42223   0.53067   0.00000  Uiso   1.00
O642   O     0.03124   0.46589   0.59878   0.00000  Uiso   1.00
O643   O     0.28783   0.41967   0.56371   0.00000  Uiso   1.00
H644   H     0.27767   0.43003   0.59382   0.00000  Uiso   1.00
C645   C     0.23563   0.37480   0.44230   0.00000  Uiso   1.00
H646   H     0.24770   0.40657   0.44926   0.00000  Uiso   1.00
O647   O     0.25394   0.35627   0.41120   0.00000  Uiso   1.00
C648   C     0.09772   0.62520   0.55768   0.00000  Uiso   1.00
H649   H     0.08561   0.59344   0.55068   0.00000  Uiso   1.00
O650   O     0.07946   0.64371   0.58883   0.00000  Uiso   1.00
C651   C     0.50179   0.42082   0.50017   0.00000  Uiso   1.00
C652   C     0.49823   0.57918   0.49983   0.00000  Uiso   1.00
C653   C     0.40161   0.50082   0.48863   0.00000  Uiso   1.00
C654   C     0.59838   0.49908   0.51137   0.00000  Uiso   1.00
C655   C     0.34806   0.50907   0.48484   0.00000  Uiso   1.00
C656   C     0.65192   0.49080   0.51518   0.00000  Uiso   1.00
C657   C     0.53193   0.35411   0.47058   0.00000  Uiso   1.00
C658   C     0.46811   0.64589   0.52942   0.00000  Uiso   1.00
C659   C     0.52767   0.64459   0.46993   0.00000  Uiso   1.00
C660   C     0.47238   0.35541   0.53008   0.00000  Uiso   1.00
C661   C     0.49706   0.62383   0.49955   0.00000  Uiso   1.00
C662   C     0.50297   0.37617   0.50045   0.00000  Uiso   1.00
C663   C     0.47925   0.46760   0.35586   0.00000  Uiso   1.00
C664   C     0.52077   0.53239   0.64415   0.00000  Uiso   1.00
C665   C     0.47946   0.46754   0.63968   0.00000  Uiso   1.00
C666   C     0.52057   0.53244   0.36032   0.00000  Uiso   1.00
Cu667  Cu    0.50000   0.50001   0.54689   0.00000  Uiso   1.00
Cu668  Cu    0.50000   0.49999   0.45311   0.00000  Uiso   1.00
H669   H     0.54974   0.62708   0.44737   0.00000  Uiso   1.00
H670   H     0.45034   0.37291   0.55267   0.00000  Uiso   1.00
H671   H     0.46232   0.44168   0.37252   0.00000  Uiso   1.00
H672   H     0.53771   0.55831   0.62748   0.00000  Uiso   1.00
H673   H     0.46291   0.44148   0.61940   0.00000  Uiso   1.00
H674   H     0.53716   0.55850   0.38061   0.00000  Uiso   1.00
N675   N     0.50001   0.50001   0.61736   0.00000  Uiso   1.00
N676   N     0.49999   0.49999   0.38264   0.00000  Uiso   1.00
O677   O     0.50000   0.43989   0.53958   0.00000  Uiso   1.00
O678   O     0.50000   0.56011   0.46042   0.00000  Uiso   1.00
O679   O     0.50000   0.43988   0.46039   0.00000  Uiso   1.00
O680   O     0.50000   0.56012   0.53961   0.00000  Uiso   1.00
O681   O     0.42495   0.50000   0.53046   0.00000  Uiso   1.00
O682   O     0.57505   0.50000   0.46954   0.00000  Uiso   1.00
O683   O     0.42494   0.49999   0.45127   0.00000  Uiso   1.00
O684   O     0.57506   0.50001   0.54873   0.00000  Uiso   1.00
S685   S     0.66143   0.55084   0.44699   0.00000  Uiso   1.00
O686   O     0.63562   0.53384   0.40124   0.00000  Uiso   1.00
O687   O     0.62513   0.57774   0.46950   0.00000  Uiso   1.00
O688   O     0.37922   0.57958   0.43609   0.00000  Uiso   1.00
H689   H     0.36504   0.60234   0.41577   0.00000  Uiso   1.00
S690   S     0.33861   0.44900   0.55301   0.00000  Uiso   1.00
O691   O     0.37516   0.42223   0.53067   0.00000  Uiso   1.00
O692   O     0.36458   0.46589   0.59878   0.00000  Uiso   1.00
O693   O     0.62116   0.41967   0.56371   0.00000  Uiso   1.00
H694   H     0.61101   0.43003   0.59382   0.00000  Uiso   1.00
C695   C     0.56896   0.37480   0.44230   0.00000  Uiso   1.00
H696   H     0.58103   0.40657   0.44926   0.00000  Uiso   1.00
O697   O     0.58727   0.35627   0.41120   0.00000  Uiso   1.00
C698   C     0.43106   0.62520   0.55768   0.00000  Uiso   1.00
H699   H     0.41894   0.59344   0.55068   0.00000  Uiso   1.00
O700   O     0.41279   0.64371   0.58883   0.00000  Uiso   1.00
C701   C     0.83512   0.42082   0.50017   0.00000  Uiso   1.00
C702   C     0.83156   0.57918   0.49983   0.00000  Uiso   1.00
C703   C     0.73495   0.50082   0.48863   0.00000  Uiso   1.00
C704   C     0.93171   0.49908   0.51137   0.00000  Uiso   1.00
C705   C     0.68140   0.50907   0.48484   0.00000  Uiso   1.00
C706   C     0.98525   0.49080   0.51518   0.00000  Uiso   1.00
C707   C     0.86526   0.35411   0.47058   0.00000  Uiso   1.00
C708   C     0.80144   0.64589   0.52942   0.00000  Uiso   1.00
C709   C     0.86101   0.64459   0.46993   0.00000  Uiso   1.00
C710   C     0.80571   0.35541   0.53008   0.00000  Uiso   1.00
C711   C     0.83040   0.62383   0.49955   0.00000  Uiso   1.00
C712   C     0.83630   0.37617   0.50045   0.00000  Uiso   1.00
C713   C     0.81258   0.46760   0.35586   0.00000  Uiso   1.00
C714   C     0.85410   0.53239   0.64415   0.00000  Uiso   1.00
C715   C     0.81279   0.46754   0.63968   0.00000  Uiso   1.00
C716   C     0.85391   0.53244   0.36032   0.00000  Uiso   1.00
Cu717  Cu    0.83333   0.50001   0.54689   0.00000  Uiso   1.00
Cu718  Cu    0.83333   0.49999   0.45311   0.00000  Uiso   1.00
H719   H     0.88307   0.62708   0.44737   0.00000  Uiso   1.00
H720   H     0.78367   0.37291   0.55267   0.00000  Uiso   1.00
H721   H     0.79565   0.44168   0.37252   0.00000  Uiso   1.00
H722   H     0.87105   0.55831   0.62748   0.00000  Uiso   1.00
H723   H     0.79625   0.44148   0.61940   0.00000  Uiso   1.00
H724   H     0.87049   0.55850   0.38061   0.00000  Uiso   1.00
N725   N     0.83335   0.50001   0.61736   0.00000  Uiso   1.00
N726   N     0.83332   0.49999   0.38264   0.00000  Uiso   1.00
O727   O     0.83333   0.43989   0.53958   0.00000  Uiso   1.00
O728   O     0.83334   0.56011   0.46042   0.00000  Uiso   1.00
O729   O     0.83333   0.43988   0.46039   0.00000  Uiso   1.00
O730   O     0.83334   0.56012   0.53961   0.00000  Uiso   1.00
O731   O     0.75828   0.50000   0.53046   0.00000  Uiso   1.00
O732   O     0.90839   0.50000   0.46954   0.00000  Uiso   1.00
O733   O     0.75828   0.49999   0.45127   0.00000  Uiso   1.00
O734   O     0.90839   0.50001   0.54873   0.00000  Uiso   1.00
S735   S     0.99476   0.55084   0.44699   0.00000  Uiso   1.00
O736   O     0.96895   0.53384   0.40124   0.00000  Uiso   1.00
O737   O     0.95847   0.57774   0.46950   0.00000  Uiso   1.00
O738   O     0.71256   0.57958   0.43609   0.00000  Uiso   1.00
H739   H     0.69837   0.60234   0.41577   0.00000  Uiso   1.00
S740   S     0.67194   0.44900   0.55301   0.00000  Uiso   1.00
O741   O     0.70849   0.42223   0.53067   0.00000  Uiso   1.00
O742   O     0.69791   0.46589   0.59878   0.00000  Uiso   1.00
O743   O     0.95449   0.41967   0.56371   0.00000  Uiso   1.00
H744   H     0.94434   0.43003   0.59382   0.00000  Uiso   1.00
C745   C     0.90230   0.37480   0.44230   0.00000  Uiso   1.00
H746   H     0.91436   0.40657   0.44926   0.00000  Uiso   1.00
O747   O     0.92061   0.35627   0.41120   0.00000  Uiso   1.00
C748   C     0.76439   0.62520   0.55768   0.00000  Uiso   1.00
H749   H     0.75228   0.59344   0.55068   0.00000  Uiso   1.00
O750   O     0.74613   0.64371   0.58883   0.00000  Uiso   1.00
C751   C     0.16846   0.75415   0.50017   0.00000  Uiso   1.00
C752   C     0.16490   0.91252   0.49983   0.00000  Uiso   1.00
C753   C     0.06828   0.83416   0.48863   0.00000  Uiso   1.00
C754   C     0.26505   0.83242   0.51137   0.00000  Uiso   1.00
C755   C     0.01473   0.84240   0.48484   0.00000  Uiso   1.00
C756   C     0.31858   0.82414   0.51518   0.00000  Uiso   1.00
C757   C     0.19859   0.68744   0.47058   0.00000  Uiso   1.00
C758   C     0.13477   0.97922   0.52942   0.00000  Uiso   1.00
C759   C     0.19434   0.97792   0.46993   0.00000  Uiso   1.00
C760   C     0.13905   0.68874   0.53008   0.00000  Uiso   1.00
C761   C     0.16373   0.95716   0.49955   0.00000  Uiso   1.00
C762   C     0.16964   0.70950   0.50045   0.00000  Uiso   1.00
C763   C     0.14592   0.80094   0.35586   0.00000  Uiso   1.00
C764   C     0.18744   0.86572   0.64415   0.00000  Uiso   1.00
C765   C     0.14612   0.80088   0.63968   0.00000  Uiso   1.00
C766   C     0.18724   0.86578   0.36032   0.00000  Uiso   1.00
Cu767  Cu    0.16667   0.83334   0.54689   0.00000  Uiso   1.00
Cu768  Cu    0.16667   0.83333   0.45311   0.00000  Uiso   1.00
H769   H     0.21641   0.96041   0.44737   0.00000  Uiso   1.00
H770   H     0.11701   0.70624   0.55267   0.00000  Uiso   1.00
H771   H     0.12898   0.77502   0.37252   0.00000  Uiso   1.00
H772   H     0.20438   0.89164   0.62748   0.00000  Uiso   1.00
H773   H     0.12958   0.77481   0.61940   0.00000  Uiso   1.00
H774   H     0.20382   0.89183   0.38061   0.00000  Uiso   1.00
N775   N     0.16668   0.83334   0.61736   0.00000  Uiso   1.00
N776   N     0.16665   0.83332   0.38264   0.00000  Uiso   1.00
O777   O     0.16666   0.77322   0.53958   0.00000  Uiso   1.00
O778   O     0.16667   0.89345   0.46042   0.00000  Uiso   1.00
O779   O     0.16666   0.77321   0.46039   0.00000  Uiso   1.00
O780   O     0.16667   0.89346   0.53961   0.00000  Uiso   1.00
O781   O     0.09161   0.83334   0.53046   0.00000  Uiso   1.00
O782   O     0.24172   0.83333   0.46954   0.00000  Uiso   1.00
O783   O     0.09161   0.83333   0.45127   0.00000  Uiso   1.00
O784   O     0.24172   0.83334   0.54873   0.00000  Uiso   1.00
S785   S     0.32810   0.88418   0.44699   0.00000  Uiso   1.00
O786   O     0.30228   0.86717   0.40124   0.00000  Uiso   1.00
O787   O     0.29180   0.91108   0.46950   0.00000  Uiso   1.00
O788   O     0.04589   0.91291   0.43609   0.00000  Uiso   1.00
H789   H     0.03171   0.93567   0.41577   0.00000  Uiso   1.00
S790   S     0.00528   0.78233   0.55301   0.00000  Uiso   1.00
O791   O     0.04182   0.75557   0.53067   0.00000  Uiso   1.00
O792   O     0.03124   0.79922   0.59878   0.00000  Uiso   1.00
O793   O     0.28783   0.75300   0.56371   0.00000  Uiso   1.00
H794   H     0.27767   0.76336   0.59382   0.00000  Uiso   1.00
C795   C     0.23563   0.70813   0.44230   0.00000  Uiso   1.00
H796   H     0.24770   0.73991   0.44926   0.00000  Uiso   1.00
O797   O     0.25394   0.68960   0.41120   0.00000  Uiso   1.00
C798   C     0.09772   0.95853   0.55768   0.00000  Uiso   1.00
H799   H     0.08561   0.92678   0.55068   0.00000  Uiso   1.00
O800   O     0.07946   0.97704   0.58883   0.00000  Uiso   1.00
C801   C     0.50179   0.75415   0.50017   0.00000  Uiso   1.00
C802   C     0.49823   0.91252   0.49983   0.00000  Uiso   1.00
C803   C     0.40161   0.83416   0.48863   0.00000  Uiso   1.00
C804   C     0.59838   0.83242   0.51137   0.00000  Uiso   1.00
C805   C     0.34806   0.84240   0.48484   0.00000  Uiso   1.00
C806   C     0.65192   0.82414   0.51518   0.00000  Uiso   1.00
C807   C     0.53193   0.68744   0.47058   0.00000  Uiso   1.00
C808   C     0.46811   0.97922   0.52942   0.00000  Uiso   1.00
C809   C     0.52767   0.97792   0.46993   0.00000  Uiso   1.00
C810   C     0.47238   0.68874   0.53008   0.00000  Uiso   1.00
C811   C     0.49706   0.95716   0.49955   0.00000  Uiso   1.00
C812   C     0.50297   0.70950   0.50045   0.00000  Uiso   1.00
C813   C     0.47925   0.80094   0.35586   0.00000  Uiso   1.00
C814   C     0.52077   0.86572   0.64415   0.00000  Uiso   1.00
C815   C     0.47946   0.80088   0.63968   0.00000  Uiso   1.00
C816   C     0.52057   0.86578   0.36032   0.00000  Uiso   1.00
Cu817  Cu    0.50000   0.83334   0.54689   0.00000  Uiso   1.00
Cu818  Cu    0.50000   0.83333   0.45311   0.00000  Uiso   1.00
H819   H     0.54974   0.96041   0.44737   0.00000  Uiso   1.00
H820   H     0.45034   0.70624   0.55267   0.00000  Uiso   1.00
H821   H     0.46232   0.77502   0.37252   0.00000  Uiso   1.00
H822   H     0.53771   0.89164   0.62748   0.00000  Uiso   1.00
H823   H     0.46291   0.77481   0.61940   0.00000  Uiso   1.00
H824   H     0.53716   0.89183   0.38061   0.00000  Uiso   1.00
N825   N     0.50001   0.83334   0.61736   0.00000  Uiso   1.00
N826   N     0.49999   0.83332   0.38264   0.00000  Uiso   1.00
O827   O     0.50000   0.77322   0.53958   0.00000  Uiso   1.00
O828   O     0.50000   0.89345   0.46042   0.00000  Uiso   1.00
O829   O     0.50000   0.77321   0.46039   0.00000  Uiso   1.00
O830   O     0.50000   0.89346   0.53961   0.00000  Uiso   1.00
O831   O     0.42495   0.83334   0.53046   0.00000  Uiso   1.00
O832   O     0.57505   0.83333   0.46954   0.00000  Uiso   1.00
O833   O     0.42494   0.83333   0.45127   0.00000  Uiso   1.00
O834   O     0.57506   0.83334   0.54873   0.00000  Uiso   1.00
S835   S     0.66143   0.88418   0.44699   0.00000  Uiso   1.00
O836   O     0.63562   0.86717   0.40124   0.00000  Uiso   1.00
O837   O     0.62513   0.91108   0.46950   0.00000  Uiso   1.00
O838   O     0.37922   0.91291   0.43609   0.00000  Uiso   1.00
H839   H     0.36504   0.93567   0.41577   0.00000  Uiso   1.00
S840   S     0.33861   0.78233   0.55301   0.00000  Uiso   1.00
O841   O     0.37516   0.75557   0.53067   0.00000  Uiso   1.00
O842   O     0.36458   0.79922   0.59878   0.00000  Uiso   1.00
O843   O     0.62116   0.75300   0.56371   0.00000  Uiso   1.00
H844   H     0.61101   0.76336   0.59382   0.00000  Uiso   1.00
C845   C     0.56896   0.70813   0.44230   0.00000  Uiso   1.00
H846   H     0.58103   0.73991   0.44926   0.00000  Uiso   1.00
O847   O     0.58727   0.68960   0.41120   0.00000  Uiso   1.00
C848   C     0.43106   0.95853   0.55768   0.00000  Uiso   1.00
H849   H     0.41894   0.92678   0.55068   0.00000  Uiso   1.00
O850   O     0.41279   0.97704   0.58883   0.00000  Uiso   1.00
C851   C     0.83512   0.75415   0.50017   0.00000  Uiso   1.00
C852   C     0.83156   0.91252   0.49983   0.00000  Uiso   1.00
C853   C     0.73495   0.83416   0.48863   0.00000  Uiso   1.00
C854   C     0.93171   0.83242   0.51137   0.00000  Uiso   1.00
C855   C     0.68140   0.84240   0.48484   0.00000  Uiso   1.00
C856   C     0.98525   0.82414   0.51518   0.00000  Uiso   1.00
C857   C     0.86526   0.68744   0.47058   0.00000  Uiso   1.00
C858   C     0.80144   0.97922   0.52942   0.00000  Uiso   1.00
C859   C     0.86101   0.97792   0.46993   0.00000  Uiso   1.00
C860   C     0.80571   0.68874   0.53008   0.00000  Uiso   1.00
C861   C     0.83040   0.95716   0.49955   0.00000  Uiso   1.00
C862   C     0.83630   0.70950   0.50045   0.00000  Uiso   1.00
C863   C     0.81258   0.80094   0.35586   0.00000  Uiso   1.00
C864   C     0.85410   0.86572   0.64415   0.00000  Uiso   1.00
C865   C     0.81279   0.80088   0.63968   0.00000  Uiso   1.00
C866   C     0.85391   0.86578   0.36032   0.00000  Uiso   1.00
Cu867  Cu    0.83333   0.83334   0.54689   0.00000  Uiso   1.00
Cu868  Cu    0.83333   0.83333   0.45311   0.00000  Uiso   1.00
H869   H     0.88307   0.96041   0.44737   0.00000  Uiso   1.00
H870   H     0.78367   0.70624   0.55267   0.00000  Uiso   1.00
H871   H     0.79565   0.77502   0.37252   0.00000  Uiso   1.00
H872   H     0.87105   0.89164   0.62748   0.00000  Uiso   1.00
H873   H     0.79625   0.77481   0.61940   0.00000  Uiso   1.00
H874   H     0.87049   0.89183   0.38061   0.00000  Uiso   1.00
N875   N     0.83335   0.83334   0.61736   0.00000  Uiso   1.00
N876   N     0.83332   0.83332   0.38264   0.00000  Uiso   1.00
O877   O     0.83333   0.77322   0.53958   0.00000  Uiso   1.00
O878   O     0.83334   0.89345   0.46042   0.00000  Uiso   1.00
O879   O     0.83333   0.77321   0.46039   0.00000  Uiso   1.00
O880   O     0.83334   0.89346   0.53961   0.00000  Uiso   1.00
O881   O     0.75828   0.83334   0.53046   0.00000  Uiso   1.00
O882   O     0.90839   0.83333   0.46954   0.00000  Uiso   1.00
O883   O     0.75828   0.83333   0.45127   0.00000  Uiso   1.00
O884   O     0.90839   0.83334   0.54873   0.00000  Uiso   1.00
S885   S     0.99476   0.88418   0.44699   0.00000  Uiso   1.00
O886   O     0.96895   0.86717   0.40124   0.00000  Uiso   1.00
O887   O     0.95847   0.91108   0.46950   0.00000  Uiso   1.00
O888   O     0.71256   0.91291   0.43609   0.00000  Uiso   1.00
H889   H     0.69837   0.93567   0.41577   0.00000  Uiso   1.00
S890   S     0.67194   0.78233   0.55301   0.00000  Uiso   1.00
O891   O     0.70849   0.75557   0.53067   0.00000  Uiso   1.00
O892   O     0.69791   0.79922   0.59878   0.00000  Uiso   1.00
O893   O     0.95449   0.75300   0.56371   0.00000  Uiso   1.00
H894   H     0.94434   0.76336   0.59382   0.00000  Uiso   1.00
C895   C     0.90230   0.70813   0.44230   0.00000  Uiso   1.00
H896   H     0.91436   0.73991   0.44926   0.00000  Uiso   1.00
O897   O     0.92061   0.68960   0.41120   0.00000  Uiso   1.00
C898   C     0.76439   0.95853   0.55768   0.00000  Uiso   1.00
H899   H     0.75228   0.92678   0.55068   0.00000  Uiso   1.00
O900   O     0.74613   0.97704   0.58883   0.00000  Uiso   1.00
C901   C     0.16846   0.08748   0.83351   0.00000  Uiso   1.00
C902   C     0.16490   0.24585   0.83316   0.00000  Uiso   1.00
C903   C     0.06828   0.16749   0.82197   0.00000  Uiso   1.00
C904   C     0.26505   0.16575   0.84470   0.00000  Uiso   1.00
C905   C     0.01473   0.17573   0.81818   0.00000  Uiso   1.00
C906   C     0.31858   0.15747   0.84851   0.00000  Uiso   1.00
C907   C     0.19859   0.02078   0.80391   0.00000  Uiso   1.00
C908   C     0.13477   0.31255   0.86275   0.00000  Uiso   1.00
C909   C     0.19434   0.31125   0.80327   0.00000  Uiso   1.00
C910   C     0.13905   0.02207   0.86342   0.00000  Uiso   1.00
C911   C     0.16373   0.29050   0.83288   0.00000  Uiso   1.00
C912   C     0.16964   0.04283   0.83379   0.00000  Uiso   1.00
C913   C     0.14592   0.13427   0.68919   0.00000  Uiso   1.00
C914   C     0.18744   0.19906   0.97748   0.00000  Uiso   1.00
C915   C     0.14612   0.13421   0.97302   0.00000  Uiso   1.00
C916   C     0.18724   0.19911   0.69365   0.00000  Uiso   1.00
Cu917  Cu    0.16667   0.16667   0.88022   0.00000  Uiso   1.00
Cu918  Cu    0.16667   0.16666   0.78645   0.00000  Uiso   1.00
H919   H     0.21641   0.29375   0.78070   0.00000  Uiso   1.00
H920   H     0.11701   0.03957   0.88600   0.00000  Uiso   1.00
H921   H     0.12898   0.10835   0.70586   0.00000  Uiso   1.00
H922   H     0.20438   0.22497   0.96081   0.00000  Uiso   1.00
H923   H     0.12958   0.10814   0.95273   0.00000  Uiso   1.00
H924   H     0.20382   0.22516   0.71395   0.00000  Uiso   1.00
N925   N     0.16668   0.16668   0.95069   0.00000  Uiso   1.00
N926   N     0.16665   0.16666   0.71597   0.00000  Uiso   1.00
O927   O     0.16666   0.10655   0.87291   0.00000  Uiso   1.00
O928   O     0.16667   0.22678   0.79375   0.00000  Uiso   1.00
O929   O     0.16666   0.10654   0.79372   0.00000  Uiso   1.00
O930   O     0.16667   0.22679   0.87294   0.00000  Uiso   1.00
O931   O     0.09161   0.16667   0.86379   0.00000  Uiso   1.00
O932   O     0.24172   0.16666   0.80288   0.00000  Uiso   1.00
O933   O     0.09161   0.16666   0.78460   0.00000  Uiso   1.00
O934   O     0.24172   0.16667   0.88207   0.00000  Uiso   1.00
S935   S     0.32810   0.21751   0.78032   0.00000  Uiso   1.00
O936   O     0.30228   0.20050   0.73458   0.00000  Uiso   1.00
O937   O     0.29180   0.24441   0.80283   0.00000  Uiso   1.00
O938   O     0.04589   0.24624   0.76942   0.00000  Uiso   1.00
H939   H     0.03171   0.26901   0.74910   0.00000  Uiso   1.00
S940   S     0.00528   0.11567   0.88634   0.00000  Uiso   1.00
O941   O     0.04182   0.08890   0.86401   0.00000  Uiso   1.00
O942   O     0.03124   0.13255   0.93212   0.00000  Uiso   1.00
O943   O     0.28783   0.08633   0.89704   0.00000  Uiso   1.00
H944   H     0.27767   0.09670   0.92715   0.00000  Uiso   1.00
C945   C     0.23563   0.04147   0.77563   0.00000  Uiso   1.00
H946   H     0.24770   0.07324   0.78259   0.00000  Uiso   1.00
O947   O     0.25394   0.02294   0.74453   0.00000  Uiso   1.00
C948   C     0.09772   0.29187   0.89102   0.00000  Uiso   1.00
H949   H     0.08561   0.26011   0.88402   0.00000  Uiso   1.00
O950   O     0.07946   0.31038   0.92216   0.00000  Uiso   1.00
C951   C     0.50179   0.08748   0.83351   0.00000  Uiso   1.00
C952   C     0.49823   0.24585   0.83316   0.00000  Uiso   1.00
C953   C     0.40161   0.16749   0.82197   0.00000  Uiso   1.00
C954   C     0.59838   0.16575   0.84470   0.00000  Uiso   1.00
C955   C     0.34806   0.17573   0.81818   0.00000  Uiso   1.00
C956   C     0.65192   0.15747   0.84851   0.00000  Uiso   1.00
C957   C     0.53193   0.02078   0.80391   0.00000  Uiso   1.00
C958   C     0.46811   0.31255   0.86275   0.00000  Uiso   1.00
C959   C     0.52767   0.31125   0.80327   0.00000  Uiso   1.00
C960   C     0.47238   0.02207   0.86342   0.00000  Uiso   1.00
C961   C     0.49706   0.29050   0.83288   0.00000  Uiso   1.00
C962   C     0.50297   0.04283   0.83379   0.00000  Uiso   1.00
C963   C     0.47925   0.13427   0.68919   0.00000  Uiso   1.00
C964   C     0.52077   0.19906   0.97748   0.00000  Uiso   1.00
C965   C     0.47946   0.13421   0.97302   0.00000  Uiso   1.00
C966   C     0.52057   0.19911   0.69365   0.00000  Uiso   1.00
Cu967  Cu    0.50000   0.16667   0.88022   0.00000  Uiso   1.00
Cu968  Cu    0.50000   0.16666   0.78645   0.00000  Uiso   1.00
H969   H     0.54974   0.29375   0.78070   0.00000  Uiso   1.00
H970   H     0.45034   0.03957   0.88600   0.00000  Uiso   1.00
H971   H     0.46232   0.10835   0.70586   0.00000  Uiso   1.00
H972   H     0.53771   0.22497   0.96081   0.00000  Uiso   1.00
H973   H     0.46291   0.10814   0.95273   0.00000  Uiso   1.00
H974   H     0.53716   0.22516   0.71395   0.00000  Uiso   1.00
N975   N     0.50001   0.16668   0.95069   0.00000  Uiso   1.00
N976   N     0.49999   0.16666   0.71597   0.00000  Uiso   1.00
O977   O     0.50000   0.10655   0.87291   0.00000  Uiso   1.00
O978   O     0.50000   0.22678   0.79375   0.00000  Uiso   1.00
O979   O     0.50000   0.10654   0.79372   0.00000  Uiso   1.00
O980   O     0.50000   0.22679   0.87294   0.00000  Uiso   1.00
O981   O     0.42495   0.16667   0.86379   0.00000  Uiso   1.00
O982   O     0.57505   0.16666   0.80288   0.00000  Uiso   1.00
O983   O     0.42494   0.16666   0.78460   0.00000  Uiso   1.00
O984   O     0.57506   0.16667   0.88207   0.00000  Uiso   1.00
S985   S     0.66143   0.21751   0.78032   0.00000  Uiso   1.00
O986   O     0.63562   0.20050   0.73458   0.00000  Uiso   1.00
O987   O     0.62513   0.24441   0.80283   0.00000  Uiso   1.00
O988   O     0.37922   0.24624   0.76942   0.00000  Uiso   1.00
H989   H     0.36504   0.26901   0.74910   0.00000  Uiso   1.00
S990   S     0.33861   0.11567   0.88634   0.00000  Uiso   1.00
O991   O     0.37516   0.08890   0.86401   0.00000  Uiso   1.00
O992   O     0.36458   0.13255   0.93212   0.00000  Uiso   1.00
O993   O     0.62116   0.08633   0.89704   0.00000  Uiso   1.00
H994   H     0.61101   0.09670   0.92715   0.00000  Uiso   1.00
C995   C     0.56896   0.04147   0.77563   0.00000  Uiso   1.00
H996   H     0.58103   0.07324   0.78259   0.00000  Uiso   1.00
O997   O     0.58727   0.02294   0.74453   0.00000  Uiso   1.00
C998   C     0.43106   0.29187   0.89102   0.00000  Uiso   1.00
H999   H     0.41894   0.26011   0.88402   0.00000  Uiso   1.00
O1000  O     0.41279   0.31038   0.92216   0.00000  Uiso   1.00
C1001  C     0.83512   0.08748   0.83351   0.00000  Uiso   1.00
C1002  C     0.83156   0.24585   0.83316   0.00000  Uiso   1.00
C1003  C     0.73495   0.16749   0.82197   0.00000  Uiso   1.00
C1004  C     0.93171   0.16575   0.84470   0.00000  Uiso   1.00
C1005  C     0.68140   0.17573   0.81818   0.00000  Uiso   1.00
C1006  C     0.98525   0.15747   0.84851   0.00000  Uiso   1.00
C1007  C     0.86526   0.02078   0.80391   0.00000  Uiso   1.00
C1008  C     0.80144   0.31255   0.86275   0.00000  Uiso   1.00
C1009  C     0.86101   0.31125   0.80327   0.00000  Uiso   1.00
C1010  C     0.80571   0.02207   0.86342   0.00000  Uiso   1.00
C1011  C     0.83040   0.29050   0.83288   0.00000  Uiso   1.00
C1012  C     0.83630   0.04283   0.83379   0.00000  Uiso   1.00
C1013  C     0.81258   0.13427   0.68919   0.00000  Uiso   1.00
C1014  C     0.85410   0.19906   0.97748   0.00000  Uiso   1.00
C1015  C     0.81279   0.13421   0.97302   0.00000  Uiso   1.00
C1016  C     0.85391   0.19911   0.69365   0.00000  Uiso   1.00
Cu1017 Cu    0.83333   0.16667   0.88022   0.00000  Uiso   1.00
Cu1018 Cu    0.83333   0.16666   0.78645   0.00000  Uiso   1.00
H1019  H     0.88307   0.29375   0.78070   0.00000  Uiso   1.00
H1020  H     0.78367   0.03957   0.88600   0.00000  Uiso   1.00
H1021  H     0.79565   0.10835   0.70586   0.00000  Uiso   1.00
H1022  H     0.87105   0.22497   0.96081   0.00000  Uiso   1.00
H1023  H     0.79625   0.10814   0.95273   0.00000  Uiso   1.00
H1024  H     0.87049   0.22516   0.71395   0.00000  Uiso   1.00
N1025  N     0.83335   0.16668   0.95069   0.00000  Uiso   1.00
N1026  N     0.83332   0.16666   0.71597   0.00000  Uiso   1.00
O1027  O     0.83333   0.10655   0.87291   0.00000  Uiso   1.00
O1028  O     0.83334   0.22678   0.79375   0.00000  Uiso   1.00
O1029  O     0.83333   0.10654   0.79372   0.00000  Uiso   1.00
O1030  O     0.83334   0.22679   0.87294   0.00000  Uiso   1.00
O1031  O     0.75828   0.16667   0.86379   0.00000  Uiso   1.00
O1032  O     0.90839   0.16666   0.80288   0.00000  Uiso   1.00
O1033  O     0.75828   0.16666   0.78460   0.00000  Uiso   1.00
O1034  O     0.90839   0.16667   0.88207   0.00000  Uiso   1.00
S1035  S     0.99476   0.21751   0.78032   0.00000  Uiso   1.00
O1036  O     0.96895   0.20050   0.73458   0.00000  Uiso   1.00
O1037  O     0.95847   0.24441   0.80283   0.00000  Uiso   1.00
O1038  O     0.71256   0.24624   0.76942   0.00000  Uiso   1.00
H1039  H     0.69837   0.26901   0.74910   0.00000  Uiso   1.00
S1040  S     0.67194   0.11567   0.88634   0.00000  Uiso   1.00
O1041  O     0.70849   0.08890   0.86401   0.00000  Uiso   1.00
O1042  O     0.69791   0.13255   0.93212   0.00000  Uiso   1.00
O1043  O     0.95449   0.08633   0.89704   0.00000  Uiso   1.00
H1044  H     0.94434   0.09670   0.92715   0.00000  Uiso   1.00
C1045  C     0.90230   0.04147   0.77563   0.00000  Uiso   1.00
H1046  H     0.91436   0.07324   0.78259   0.00000  Uiso   1.00
O1047  O     0.92061   0.02294   0.74453   0.00000  Uiso   1.00
C1048  C     0.76439   0.29187   0.89102   0.00000  Uiso   1.00
H1049  H     0.75228   0.26011   0.88402   0.00000  Uiso   1.00
O1050  O     0.74613   0.31038   0.92216   0.00000  Uiso   1.00
C1051  C     0.16846   0.42082   0.83351   0.00000  Uiso   1.00
C1052  C     0.16490   0.57918   0.83316   0.00000  Uiso   1.00
C1053  C     0.06828   0.50082   0.82197   0.00000  Uiso   1.00
C1054  C     0.26505   0.49908   0.84470   0.00000  Uiso   1.00
C1055  C     0.01473   0.50907   0.81818   0.00000  Uiso   1.00
C1056  C     0.31858   0.49080   0.84851   0.00000  Uiso   1.00
C1057  C     0.19859   0.35411   0.80391   0.00000  Uiso   1.00
C1058  C     0.13477   0.64589   0.86275   0.00000  Uiso   1.00
C1059  C     0.19434   0.64459   0.80327   0.00000  Uiso   1.00
C1060  C     0.13905   0.35541   0.86342   0.00000  Uiso   1.00
C1061  C     0.16373   0.62383   0.83288   0.00000  Uiso   1.00
C1062  C     0.16964   0.37617   0.83379   0.00000  Uiso   1.00
C1063  C     0.14592   0.46760   0.68919   0.00000  Uiso   1.00
C1064  C     0.18744   0.53239   0.97748   0.00000  Uiso   1.00
C1065  C     0.14612   0.46754   0.97302   0.00000  Uiso   1.00
C1066  C     0.18724   0.53244   0.69365   0.00000  Uiso   1.00
Cu1067 Cu    0.16667   0.50001   0.88022   0.00000  Uiso   1.00
Cu1068 Cu    0.16667   0.49999   0.78645   0.00000  Uiso   1.00
H1069  H     0.21641   0.62708   0.78070   0.00000  Uiso   1.00
H1070  H     0.11701   0.37291   0.88600   0.00000  Uiso   1.00
H1071  H     0.12898   0.44168   0.70586   0.00000  Uiso   1.00
H1072  H     0.20438   0.55831   0.96081   0.00000  Uiso   1.00
H1073  H     0.12958   0.44148   0.95273   0.00000  Uiso   1.00
H1074  H     0.20382   0.55850   0.71395   0.00000  Uiso   1.00
N1075  N     0.16668   0.50001   0.95069   0.00000  Uiso   1.00
N1076  N     0.16665   0.49999   0.71597   0.00000  Uiso   1.00
O1077  O     0.16666   0.43989   0.87291   0.00000  Uiso   1.00
O1078  O     0.16667   0.56011   0.79375   0.00000  Uiso   1.00
O1079  O     0.16666   0.43988   0.79372   0.00000  Uiso   1.00
O1080  O     0.16667   0.56012   0.87294   0.00000  Uiso   1.00
O1081  O     0.09161   0.50000   0.86379   0.00000  Uiso   1.00
O1082  O     0.24172   0.50000   0.80288   0.00000  Uiso   1.00
O1083  O     0.09161   0.49999   0.78460   0.00000  Uiso   1.00
O1084  O     0.24172   0.50001   0.88207   0.00000  Uiso   1.00
S1085  S     0.32810   0.55084   0.78032   0.00000  Uiso   1.00
O1086  O     0.30228   0.53384   0.73458   0.00000  Uiso   1.00
O1087  O     0.29180   0.57774   0.80283   0.00000  Uiso   1.00
O1088  O     0.04589   0.57958   0.76942   0.00000  Uiso   1.00
H1089  H     0.03171   0.60234   0.74910   0.00000  Uiso   1.00
S1090  S     0.00528   0.44900   0.88634   0.00000  Uiso   1.00
O1091  O     0.04182   0.42223   0.86401   0.00000  Uiso   1.00
O1092  O     0.03124   0.46589   0.93212   0.00000  Uiso   1.00
O1093  O     0.28783   0.41967   0.89704   0.00000  Uiso   1.00
H1094  H     0.27767   0.43003   0.92715   0.00000  Uiso   1.00
C1095  C     0.23563   0.37480   0.77563   0.00000  Uiso   1.00
H1096  H     0.24770   0.40657   0.78259   0.00000  Uiso   1.00
O1097  O     0.25394   0.35627   0.74453   0.00000  Uiso   1.00
C1098  C     0.09772   0.62520   0.89102   0.00000  Uiso   1.00
H1099  H     0.08561   0.59344   0.88402   0.00000  Uiso   1.00
O1100  O     0.07946   0.64371   0.92216   0.00000  Uiso   1.00
C1101  C     0.50179   0.42082   0.83351   0.00000  Uiso   1.00
C1102  C     0.49823   0.57918   0.83316   0.00000  Uiso   1.00
C1103  C     0.40161   0.50082   0.82197   0.00000  Uiso   1.00
C1104  C     0.59838   0.49908   0.84470   0.00000  Uiso   1.00
C1105  C     0.34806   0.50907   0.81818   0.00000  Uiso   1.00
C1106  C     0.65192   0.49080   0.84851   0.00000  Uiso   1.00
C1107  C     0.53193   0.35411   0.80391   0.00000  Uiso   1.00
C1108  C     0.46811   0.64589   0.86275   0.00000  Uiso   1.00
C1109  C     0.52767   0.64459   0.80327   0.00000  Uiso   1.00
C1110  C     0.47238   0.35541   0.86342   0.00000  Uiso   1.00
C1111  C     0.49706   0.62383   0.83288   0.00000  Uiso   1.00
C1112  C     0.50297   0.37617   0.83379   0.00000  Uiso   1.00
C1113  C     0.47925   0.46760   0.68919   0.00000  Uiso   1.00
C1114  C     0.52077   0.53239   0.97748   0.00000  Uiso   1.00
C1115  C     0.47946   0.46754   0.97302   0.00000  Uiso   1.00
C1116  C     0.52057   0.53244   0.69365   0.00000  Uiso   1.00
Cu1117 Cu    0.50000   0.50001   0.88022   0.00000  Uiso   1.00
Cu1118 Cu    0.50000   0.49999   0.78645   0.00000  Uiso   1.00
H1119  H     0.54974   0.62708   0.78070   0.00000  Uiso   1.00
H1120  H     0.45034   0.37291   0.88600   0.00000  Uiso   1.00
H1121  H     0.46232   0.44168   0.70586   0.00000  Uiso   1.00
H1122  H     0.53771   0.55831   0.96081   0.00000  Uiso   1.00
H1123  H     0.46291   0.44148   0.95273   0.00000  Uiso   1.00
H1124  H     0.53716   0.55850   0.71395   0.00000  Uiso   1.00
N1125  N     0.50001   0.50001   0.95069   0.00000  Uiso   1.00
N1126  N     0.49999   0.49999   0.71597   0.00000  Uiso   1.00
O1127  O     0.50000   0.43989   0.87291   0.00000  Uiso   1.00
O1128  O     0.50000   0.56011   0.79375   0.00000  Uiso   1.00
O1129  O     0.50000   0.43988   0.79372   0.00000  Uiso   1.00
O1130  O     0.50000   0.56012   0.87294   0.00000  Uiso   1.00
O1131  O     0.42495   0.50000   0.86379   0.00000  Uiso   1.00
O1132  O     0.57505   0.50000   0.80288   0.00000  Uiso   1.00
O1133  O     0.42494   0.49999   0.78460   0.00000  Uiso   1.00
O1134  O     0.57506   0.50001   0.88207   0.00000  Uiso   1.00
S1135  S     0.66143   0.55084   0.78032   0.00000  Uiso   1.00
O1136  O     0.63562   0.53384   0.73458   0.00000  Uiso   1.00
O1137  O     0.62513   0.57774   0.80283   0.00000  Uiso   1.00
O1138  O     0.37922   0.57958   0.76942   0.00000  Uiso   1.00
H1139  H     0.36504   0.60234   0.74910   0.00000  Uiso   1.00
S1140  S     0.33861   0.44900   0.88634   0.00000  Uiso   1.00
O1141  O     0.37516   0.42223   0.86401   0.00000  Uiso   1.00
O1142  O     0.36458   0.46589   0.93212   0.00000  Uiso   1.00
O1143  O     0.62116   0.41967   0.89704   0.00000  Uiso   1.00
H1144  H     0.61101   0.43003   0.92715   0.00000  Uiso   1.00
C1145  C     0.56896   0.37480   0.77563   0.00000  Uiso   1.00
H1146  H     0.58103   0.40657   0.78259   0.00000  Uiso   1.00
O1147  O     0.58727   0.35627   0.74453   0.00000  Uiso   1.00
C1148  C     0.43106   0.62520   0.89102   0.00000  Uiso   1.00
H1149  H     0.41894   0.59344   0.88402   0.00000  Uiso   1.00
O1150  O     0.41279   0.64371   0.92216   0.00000  Uiso   1.00
C1151  C     0.83512   0.42082   0.83351   0.00000  Uiso   1.00
C1152  C     0.83156   0.57918   0.83316   0.00000  Uiso   1.00
C1153  C     0.73495   0.50082   0.82197   0.00000  Uiso   1.00
C1154  C     0.93171   0.49908   0.84470   0.00000  Uiso   1.00
C1155  C     0.68140   0.50907   0.81818   0.00000  Uiso   1.00
C1156  C     0.98525   0.49080   0.84851   0.00000  Uiso   1.00
C1157  C     0.86526   0.35411   0.80391   0.00000  Uiso   1.00
C1158  C     0.80144   0.64589   0.86275   0.00000  Uiso   1.00
C1159  C     0.86101   0.64459   0.80327   0.00000  Uiso   1.00
C1160  C     0.80571   0.35541   0.86342   0.00000  Uiso   1.00
C1161  C     0.83040   0.62383   0.83288   0.00000  Uiso   1.00
C1162  C     0.83630   0.37617   0.83379   0.00000  Uiso   1.00
C1163  C     0.81258   0.46760   0.68919   0.00000  Uiso   1.00
C1164  C     0.85410   0.53239   0.97748   0.00000  Uiso   1.00
C1165  C     0.81279   0.46754   0.97302   0.00000  Uiso   1.00
C1166  C     0.85391   0.53244   0.69365   0.00000  Uiso   1.00
Cu1167 Cu    0.83333   0.50001   0.88022   0.00000  Uiso   1.00
Cu1168 Cu    0.83333   0.49999   0.78645   0.00000  Uiso   1.00
H1169  H     0.88307   0.62708   0.78070   0.00000  Uiso   1.00
H1170  H     0.78367   0.37291   0.88600   0.00000  Uiso   1.00
H1171  H     0.79565   0.44168   0.70586   0.00000  Uiso   1.00
H1172  H     0.87105   0.55831   0.96081   0.00000  Uiso   1.00
H1173  H     0.79625   0.44148   0.95273   0.00000  Uiso   1.00
H1174  H     0.87049   0.55850   0.71395   0.00000  Uiso   1.00
N1175  N     0.83335   0.50001   0.95069   0.00000  Uiso   1.00
N1176  N     0.83332   0.49999   0.71597   0.00000  Uiso   1.00
O1177  O     0.83333   0.43989   0.87291   0.00000  Uiso   1.00
O1178  O     0.83334   0.56011   0.79375   0.00000  Uiso   1.00
O1179  O     0.83333   0.43988   0.79372   0.00000  Uiso   1.00
O1180  O     0.83334   0.56012   0.87294   0.00000  Uiso   1.00
O1181  O     0.75828   0.50000   0.86379   0.00000  Uiso   1.00
O1182  O     0.90839   0.50000   0.80288   0.00000  Uiso   1.00
O1183  O     0.75828   0.49999   0.78460   0.00000  Uiso   1.00
O1184  O     0.90839   0.50001   0.88207   0.00000  Uiso   1.00
S1185  S     0.99476   0.55084   0.78032   0.00000  Uiso   1.00
O1186  O     0.96895   0.53384   0.73458   0.00000  Uiso   1.00
O1187  O     0.95847   0.57774   0.80283   0.00000  Uiso   1.00
O1188  O     0.71256   0.57958   0.76942   0.00000  Uiso   1.00
H1189  H     0.69837   0.60234   0.74910   0.00000  Uiso   1.00
S1190  S     0.67194   0.44900   0.88634   0.00000  Uiso   1.00
O1191  O     0.70849   0.42223   0.86401   0.00000  Uiso   1.00
O1192  O     0.69791   0.46589   0.93212   0.00000  Uiso   1.00
O1193  O     0.95449   0.41967   0.89704   0.00000  Uiso   1.00
H1194  H     0.94434   0.43003   0.92715   0.00000  Uiso   1.00
C1195  C     0.90230   0.37480   0.77563   0.00000  Uiso   1.00
H1196  H     0.91436   0.40657   0.78259   0.00000  Uiso   1.00
O1197  O     0.92061   0.35627   0.74453   0.00000  Uiso   1.00
C1198  C     0.76439   0.62520   0.89102   0.00000  Uiso   1.00
H1199  H     0.75228   0.59344   0.88402   0.00000  Uiso   1.00
O1200  O     0.74613   0.64371   0.92216   0.00000  Uiso   1.00
C1201  C     0.16846   0.75415   0.83351   0.00000  Uiso   1.00
C1202  C     0.16490   0.91252   0.83316   0.00000  Uiso   1.00
C1203  C     0.06828   0.83416   0.82197   0.00000  Uiso   1.00
C1204  C     0.26505   0.83242   0.84470   0.00000  Uiso   1.00
C1205  C     0.01473   0.84240   0.81818   0.00000  Uiso   1.00
C1206  C     0.31858   0.82414   0.84851   0.00000  Uiso   1.00
C1207  C     0.19859   0.68744   0.80391   0.00000  Uiso   1.00
C1208  C     0.13477   0.97922   0.86275   0.00000  Uiso   1.00
C1209  C     0.19434   0.97792   0.80327   0.00000  Uiso   1.00
C1210  C     0.13905   0.68874   0.86342   0.00000  Uiso   1.00
C1211  C     0.16373   0.95716   0.83288   0.00000  Uiso   1.00
C1212  C     0.16964   0.70950   0.83379   0.00000  Uiso   1.00
C1213  C     0.14592   0.80094   0.68919   0.00000  Uiso   1.00
C1214  C     0.18744   0.86572   0.97748   0.00000  Uiso   1.00
C1215  C     0.14612   0.80088   0.97302   0.00000  Uiso   1.00
C1216  C     0.18724   0.86578   0.69365   0.00000  Uiso   1.00
Cu1217 Cu    0.16667   0.83334   0.88022   0.00000  Uiso   1.00
Cu1218 Cu    0.16667   0.83333   0.78645   0.00000  Uiso   1.00
H1219  H     0.21641   0.96041   0.78070   0.00000  Uiso   1.00
H1220  H     0.11701   0.70624   0.88600   0.00000  Uiso   1.00
H1221  H     0.12898   0.77502   0.70586   0.00000  Uiso   1.00
H1222  H     0.20438   0.89164   0.96081   0.00000  Uiso   1.00
H1223  H     0.12958   0.77481   0.95273   0.00000  Uiso   1.00
H1224  H     0.20382   0.89183   0.71395   0.00000  Uiso   1.00
N1225  N     0.16668   0.83334   0.95069   0.00000  Uiso   1.00
N1226  N     0.16665   0.83332   0.71597   0.00000  Uiso   1.00
O1227  O     0.16666   0.77322   0.87291   0.00000  Uiso   1.00
O1228  O     0.16667   0.89345   0.79375   0.00000  Uiso   1.00
O1229  O     0.16666   0.77321   0.79372   0.00000  Uiso   1.00
O1230  O     0.16667   0.89346   0.87294   0.00000  Uiso   1.00
O1231  O     0.09161   0.83334   0.86379   0.00000  Uiso   1.00
O1232  O     0.24172   0.83333   0.80288   0.00000  Uiso   1.00
O1233  O     0.09161   0.83333   0.78460   0.00000  Uiso   1.00
O1234  O     0.24172   0.83334   0.88207   0.00000  Uiso   1.00
S1235  S     0.32810   0.88418   0.78032   0.00000  Uiso   1.00
O1236  O     0.30228   0.86717   0.73458   0.00000  Uiso   1.00
O1237  O     0.29180   0.91108   0.80283   0.00000  Uiso   1.00
O1238  O     0.04589   0.91291   0.76942   0.00000  Uiso   1.00
H1239  H     0.03171   0.93567   0.74910   0.00000  Uiso   1.00
S1240  S     0.00528   0.78233   0.88634   0.00000  Uiso   1.00
O1241  O     0.04182   0.75557   0.86401   0.00000  Uiso   1.00
O1242  O     0.03124   0.79922   0.93212   0.00000  Uiso   1.00
O1243  O     0.28783   0.75300   0.89704   0.00000  Uiso   1.00
H1244  H     0.27767   0.76336   0.92715   0.00000  Uiso   1.00
C1245  C     0.23563   0.70813   0.77563   0.00000  Uiso   1.00
H1246  H     0.24770   0.73991   0.78259   0.00000  Uiso   1.00
O1247  O     0.25394   0.68960   0.74453   0.00000  Uiso   1.00
C1248  C     0.09772   0.95853   0.89102   0.00000  Uiso   1.00
H1249  H     0.08561   0.92678   0.88402   0.00000  Uiso   1.00
O1250  O     0.07946   0.97704   0.92216   0.00000  Uiso   1.00
C1251  C     0.50179   0.75415   0.83351   0.00000  Uiso   1.00
C1252  C     0.49823   0.91252   0.83316   0.00000  Uiso   1.00
C1253  C     0.40161   0.83416   0.82197   0.00000  Uiso   1.00
C1254  C     0.59838   0.83242   0.84470   0.00000  Uiso   1.00
C1255  C     0.34806   0.84240   0.81818   0.00000  Uiso   1.00
C1256  C     0.65192   0.82414   0.84851   0.00000  Uiso   1.00
C1257  C     0.53193   0.68744   0.80391   0.00000  Uiso   1.00
C1258  C     0.46811   0.97922   0.86275   0.00000  Uiso   1.00
C1259  C     0.52767   0.97792   0.80327   0.00000  Uiso   1.00
C1260  C     0.47238   0.68874   0.86342   0.00000  Uiso   1.00
C1261  C     0.49706   0.95716   0.83288   0.00000  Uiso   1.00
C1262  C     0.50297   0.70950   0.83379   0.00000  Uiso   1.00
C1263  C     0.47925   0.80094   0.68919   0.00000  Uiso   1.00
C1264  C     0.52077   0.86572   0.97748   0.00000  Uiso   1.00
C1265  C     0.47946   0.80088   0.97302   0.00000  Uiso   1.00
C1266  C     0.52057   0.86578   0.69365   0.00000  Uiso   1.00
Cu1267 Cu    0.50000   0.83334   0.88022   0.00000  Uiso   1.00
Cu1268 Cu    0.50000   0.83333   0.78645   0.00000  Uiso   1.00
H1269  H     0.54974   0.96041   0.78070   0.00000  Uiso   1.00
H1270  H     0.45034   0.70624   0.88600   0.00000  Uiso   1.00
H1271  H     0.46232   0.77502   0.70586   0.00000  Uiso   1.00
H1272  H     0.53771   0.89164   0.96081   0.00000  Uiso   1.00
H1273  H     0.46291   0.77481   0.95273   0.00000  Uiso   1.00
H1274  H     0.53716   0.89183   0.71395   0.00000  Uiso   1.00
N1275  N     0.50001   0.83334   0.95069   0.00000  Uiso   1.00
N1276  N     0.49999   0.83332   0.71597   0.00000  Uiso   1.00
O1277  O     0.50000   0.77322   0.87291   0.00000  Uiso   1.00
O1278  O     0.50000   0.89345   0.79375   0.00000  Uiso   1.00
O1279  O     0.50000   0.77321   0.79372   0.00000  Uiso   1.00
O1280  O     0.50000   0.89346   0.87294   0.00000  Uiso   1.00
O1281  O     0.42495   0.83334   0.86379   0.00000  Uiso   1.00
O1282  O     0.57505   0.83333   0.80288   0.00000  Uiso   1.00
O1283  O     0.42494   0.83333   0.78460   0.00000  Uiso   1.00
O1284  O     0.57506   0.83334   0.88207   0.00000  Uiso   1.00
S1285  S     0.66143   0.88418   0.78032   0.00000  Uiso   1.00
O1286  O     0.63562   0.86717   0.73458   0.00000  Uiso   1.00
O1287  O     0.62513   0.91108   0.80283   0.00000  Uiso   1.00
O1288  O     0.37922   0.91291   0.76942   0.00000  Uiso   1.00
H1289  H     0.36504   0.93567   0.74910   0.00000  Uiso   1.00
S1290  S     0.33861   0.78233   0.88634   0.00000  Uiso   1.00
O1291  O     0.37516   0.75557   0.86401   0.00000  Uiso   1.00
O1292  O     0.36458   0.79922   0.93212   0.00000  Uiso   1.00
O1293  O     0.62116   0.75300   0.89704   0.00000  Uiso   1.00
H1294  H     0.61101   0.76336   0.92715   0.00000  Uiso   1.00
C1295  C     0.56896   0.70813   0.77563   0.00000  Uiso   1.00
H1296  H     0.58103   0.73991   0.78259   0.00000  Uiso   1.00
O1297  O     0.58727   0.68960   0.74453   0.00000  Uiso   1.00
C1298  C     0.43106   0.95853   0.89102   0.00000  Uiso   1.00
H1299  H     0.41894   0.92678   0.88402   0.00000  Uiso   1.00
O1300  O     0.41279   0.97704   0.92216   0.00000  Uiso   1.00
C1301  C     0.83512   0.75415   0.83351   0.00000  Uiso   1.00
C1302  C     0.83156   0.91252   0.83316   0.00000  Uiso   1.00
C1303  C     0.73495   0.83416   0.82197   0.00000  Uiso   1.00
C1304  C     0.93171   0.83242   0.84470   0.00000  Uiso   1.00
C1305  C     0.68140   0.84240   0.81818   0.00000  Uiso   1.00
C1306  C     0.98525   0.82414   0.84851   0.00000  Uiso   1.00
C1307  C     0.86526   0.68744   0.80391   0.00000  Uiso   1.00
C1308  C     0.80144   0.97922   0.86275   0.00000  Uiso   1.00
C1309  C     0.86101   0.97792   0.80327   0.00000  Uiso   1.00
C1310  C     0.80571   0.68874   0.86342   0.00000  Uiso   1.00
C1311  C     0.83040   0.95716   0.83288   0.00000  Uiso   1.00
C1312  C     0.83630   0.70950   0.83379   0.00000  Uiso   1.00
C1313  C     0.81258   0.80094   0.68919   0.00000  Uiso   1.00
C1314  C     0.85410   0.86572   0.97748   0.00000  Uiso   1.00
C1315  C     0.81279   0.80088   0.97302   0.00000  Uiso   1.00
C1316  C     0.85391   0.86578   0.69365   0.00000  Uiso   1.00
Cu1317 Cu    0.83333   0.83334   0.88022   0.00000  Uiso   1.00
Cu1318 Cu    0.83333   0.83333   0.78645   0.00000  Uiso   1.00
H1319  H     0.88307   0.96041   0.78070   0.00000  Uiso   1.00
H1320  H     0.78367   0.70624   0.88600   0.00000  Uiso   1.00
H1321  H     0.79565   0.77502   0.70586   0.00000  Uiso   1.00
H1322  H     0.87105   0.89164   0.96081   0.00000  Uiso   1.00
H1323  H     0.79625   0.77481   0.95273   0.00000  Uiso   1.00
H1324  H     0.87049   0.89183   0.71395   0.00000  Uiso   1.00
N1325  N     0.83335   0.83334   0.95069   0.00000  Uiso   1.00
N1326  N     0.83332   0.83332   0.71597   0.00000  Uiso   1.00
O1327  O     0.83333   0.77322   0.87291   0.00000  Uiso   1.00
O1328  O     0.83334   0.89345   0.79375   0.00000  Uiso   1.00
O1329  O     0.83333   0.77321   0.79372   0.00000  Uiso   1.00
O1330  O     0.83334   0.89346   0.87294   0.00000  Uiso   1.00
O1331  O     0.75828   0.83334   0.86379   0.00000  Uiso   1.00
O1332  O     0.90839   0.83333   0.80288   0.00000  Uiso   1.00
O1333  O     0.75828   0.83333   0.78460   0.00000  Uiso   1.00
O1334  O     0.90839   0.83334   0.88207   0.00000  Uiso   1.00
S1335  S     0.99476   0.88418   0.78032   0.00000  Uiso   1.00
O1336  O     0.96895   0.86717   0.73458   0.00000  Uiso   1.00
O1337  O     0.95847   0.91108   0.80283   0.00000  Uiso   1.00
O1338  O     0.71256   0.91291   0.76942   0.00000  Uiso   1.00
H1339  H     0.69837   0.93567   0.74910   0.00000  Uiso   1.00
S1340  S     0.67194   0.78233   0.88634   0.00000  Uiso   1.00
O1341  O     0.70849   0.75557   0.86401   0.00000  Uiso   1.00
O1342  O     0.69791   0.79922   0.93212   0.00000  Uiso   1.00
O1343  O     0.95449   0.75300   0.89704   0.00000  Uiso   1.00
H1344  H     0.94434   0.76336   0.92715   0.00000  Uiso   1.00
C1345  C     0.90230   0.70813   0.77563   0.00000  Uiso   1.00
H1346  H     0.91436   0.73991   0.78259   0.00000  Uiso   1.00
O1347  O     0.92061   0.68960   0.74453   0.00000  Uiso   1.00
C1348  C     0.76439   0.95853   0.89102   0.00000  Uiso   1.00
H1349  H     0.75228   0.92678   0.88402   0.00000  Uiso   1.00
O1350  O     0.74613   0.97704   0.92216   0.00000  Uiso   1.00
loop_
_geom_bond_atom_site_label_1
_geom_bond_atom_site_label_2
_geom_bond_distance
_geom_bond_site_symmetry_2
_ccdc_geom_bond_type
C1     O29     1.291   .     A
C1     C12     1.448   .     S
C1     O27     1.291   .     A
C2     O30     1.291   .     A
C2     C11     1.448   .     S
C2     O28     1.291   .     A
C3     O31     1.280   .     A
C3     O33     1.293   .     A
C3     C5      1.431   .     S
C4     O32     1.280   .     A
C4     O34     1.293   .     A
C4     C6      1.431   .     S
C5     C106    1.359   1_455 S
C5     S135    1.782   1_455 S
C6     C55     1.359   .     S
C6     S90     1.783   .     S
C7     C45     1.488   .     S
C7     C12     1.411   .     A
C7     C309    1.392   1_545 S
C8     C48     1.488   .     S
C8     C11     1.411   .     A
C8     C160    1.392   .     S
C9     C11     1.400   .     A
C9     H19     1.083   .     S
C9     C157    1.392   .     S
C10    C12     1.400   .     A
C10    H20     1.083   .     S
C10    C308    1.392   1_545 S
C13    H21     1.081   .     S
C13    N26     1.367   .     A
C13    C915    1.416   1_554 S
C14    H22     1.081   .     S
C14    N25     1.367   .     A
C14    C466    1.416   .     S
C15    H23     1.081   .     S
C15    N25     1.367   .     A
C15    C463    1.416   .     S
C16    H24     1.081   .     S
C16    N26     1.367   .     A
C16    C914    1.416   1_554 S
Cu17   N25     2.015   .     S
Cu17   Cu18    2.681   .     S
Cu17   O30     1.960   .     S
Cu17   O31     1.977   .     S
Cu17   O34     1.970   .     S
Cu17   O27     1.960   .     S
Cu18   O28     1.960   .     S
Cu18   N26     2.015   .     S
Cu18   O29     1.960   .     S
Cu18   O33     1.970   .     S
Cu18   O32     1.977   .     S
S35    O36     1.502   .     D
S35    O37     1.502   .     D
S35    C55     1.782   .     S
S35    O88     1.683   .     S
O38    H39     0.990   .     S
O38    S135    1.683   1_455 S
S40    O42     1.503   .     D
S40    O41     1.502   .     D
S40    C106    1.783   1_455 S
S40    O143    1.684   1_455 S
O43    H44     0.991   .     S
O43    S90     1.684   .     S
C45    H46     1.084   .     S
C45    O47     1.221   .     D
C48    H49     1.084   .     S
C48    O50     1.221   .     D
C51    O79     1.291   .     A
C51    C62     1.448   .     S
C51    O77     1.291   .     A
C52    O80     1.291   .     A
C52    C61     1.448   .     S
C52    O78     1.291   .     A
C53    O81     1.280   .     A
C53    O83     1.293   .     A
C53    C55     1.431   .     S
C54    O82     1.280   .     A
C54    O84     1.293   .     A
C54    C56     1.431   .     S
C56    C105    1.359   .     S
C56    S140    1.783   .     S
C57    C95     1.488   .     S
C57    C62     1.411   .     A
C57    C359    1.392   1_545 S
C58    C98     1.488   .     S
C58    C61     1.411   .     A
C58    C210    1.392   .     S
C59    C61     1.400   .     A
C59    H69     1.083   .     S
C59    C207    1.392   .     S
C60    C62     1.400   .     A
C60    H70     1.083   .     S
C60    C358    1.392   1_545 S
C63    H71     1.081   .     S
C63    N76     1.367   .     A
C63    C965    1.416   1_554 S
C64    H72     1.081   .     S
C64    N75     1.367   .     A
C64    C516    1.416   .     S
C65    H73     1.081   .     S
C65    N75     1.367   .     A
C65    C513    1.416   .     S
C66    H74     1.081   .     S
C66    N76     1.367   .     A
C66    C964    1.416   1_554 S
Cu67   N75     2.015   .     S
Cu67   Cu68    2.681   .     S
Cu67   O80     1.960   .     S
Cu67   O81     1.977   .     S
Cu67   O84     1.970   .     S
Cu67   O77     1.960   .     S
Cu68   O78     1.960   .     S
Cu68   N76     2.015   .     S
Cu68   O79     1.960   .     S
Cu68   O83     1.970   .     S
Cu68   O82     1.977   .     S
S85    O86     1.502   .     D
S85    O87     1.502   .     D
S85    C105    1.782   .     S
S85    O138    1.683   .     S
O88    H89     0.990   .     S
S90    O92     1.503   .     D
S90    O91     1.502   .     D
O93    H94     0.991   .     S
O93    S140    1.684   .     S
C95    H96     1.084   .     S
C95    O97     1.221   .     D
C98    H99     1.084   .     S
C98    O100    1.221   .     D
C101   O129    1.291   .     A
C101   C112    1.448   .     S
C101   O127    1.291   .     A
C102   O130    1.291   .     A
C102   C111    1.448   .     S
C102   O128    1.291   .     A
C103   O131    1.280   .     A
C103   O133    1.293   .     A
C103   C105    1.431   .     S
C104   O132    1.280   .     A
C104   O134    1.293   .     A
C104   C106    1.431   .     S
C106   C5      1.359   1_655 S
C106   S40     1.783   1_655 S
C107   C145    1.488   .     S
C107   C112    1.411   .     A
C107   C409    1.392   1_545 S
C108   C148    1.488   .     S
C108   C111    1.411   .     A
C108   C260    1.392   .     S
C109   C111    1.400   .     A
C109   H119    1.083   .     S
C109   C257    1.392   .     S
C110   C112    1.400   .     A
C110   H120    1.083   .     S
C110   C408    1.392   1_545 S
C113   H121    1.081   .     S
C113   N126    1.367   .     A
C113   C1015   1.416   1_554 S
C114   H122    1.081   .     S
C114   N125    1.367   .     A
C114   C566    1.416   .     S
C115   H123    1.081   .     S
C115   N125    1.367   .     A
C115   C563    1.416   .     S
C116   H124    1.081   .     S
C116   N126    1.367   .     A
C116   C1014   1.416   1_554 S
Cu117  N125    2.015   .     S
Cu117  Cu118   2.681   .     S
Cu117  O130    1.960   .     S
Cu117  O131    1.977   .     S
Cu117  O134    1.970   .     S
Cu117  O127    1.960   .     S
Cu118  O128    1.960   .     S
Cu118  N126    2.015   .     S
Cu118  O129    1.960   .     S
Cu118  O133    1.970   .     S
Cu118  O132    1.977   .     S
S135   O136    1.502   .     D
S135   O137    1.502   .     D
S135   C5      1.782   1_655 S
S135   O38     1.683   1_655 S
O138   H139    0.990   .     S
S140   O142    1.503   .     D
S140   O141    1.502   .     D
O143   H144    0.991   .     S
O143   S40     1.684   1_655 S
C145   H146    1.084   .     S
C145   O147    1.221   .     D
C148   H149    1.084   .     S
C148   O150    1.221   .     D
C151   O179    1.291   .     A
C151   C162    1.448   .     S
C151   O177    1.291   .     A
C152   O180    1.291   .     A
C152   C161    1.448   .     S
C152   O178    1.291   .     A
C153   O181    1.280   .     A
C153   O183    1.293   .     A
C153   C155    1.431   .     S
C154   O182    1.280   .     A
C154   O184    1.293   .     A
C154   C156    1.431   .     S
C155   C256    1.359   1_455 S
C155   S285    1.782   1_455 S
C156   C205    1.359   .     S
C156   S240    1.783   .     S
C157   C195    1.488   .     S
C157   C162    1.411   .     A
C158   C198    1.488   .     S
C158   C161    1.411   .     A
C158   C310    1.392   .     S
C159   C161    1.400   .     A
C159   H169    1.083   .     S
C159   C307    1.392   .     S
C160   C162    1.400   .     A
C160   H170    1.083   .     S
C163   H171    1.081   .     S
C163   N176    1.367   .     A
C163   C1065   1.416   1_554 S
C164   H172    1.081   .     S
C164   N175    1.367   .     A
C164   C616    1.416   .     S
C165   H173    1.081   .     S
C165   N175    1.367   .     A
C165   C613    1.416   .     S
C166   H174    1.081   .     S
C166   N176    1.367   .     A
C166   C1064   1.416   1_554 S
Cu167  N175    2.015   .     S
Cu167  Cu168   2.681   .     S
Cu167  O180    1.960   .     S
Cu167  O181    1.977   .     S
Cu167  O184    1.970   .     S
Cu167  O177    1.960   .     S
Cu168  O178    1.960   .     S
Cu168  N176    2.015   .     S
Cu168  O179    1.960   .     S
Cu168  O183    1.970   .     S
Cu168  O182    1.977   .     S
S185   O186    1.502   .     D
S185   O187    1.502   .     D
S185   C205    1.782   .     S
S185   O238    1.683   .     S
O188   H189    0.990   .     S
O188   S285    1.683   1_455 S
S190   O192    1.503   .     D
S190   O191    1.502   .     D
S190   C256    1.783   1_455 S
S190   O293    1.684   1_455 S
O193   H194    0.991   .     S
O193   S240    1.684   .     S
C195   H196    1.084   .     S
C195   O197    1.221   .     D
C198   H199    1.084   .     S
C198   O200    1.221   .     D
C201   O229    1.291   .     A
C201   C212    1.448   .     S
C201   O227    1.291   .     A
C202   O230    1.291   .     A
C202   C211    1.448   .     S
C202   O228    1.291   .     A
C203   O231    1.280   .     A
C203   O233    1.293   .     A
C203   C205    1.431   .     S
C204   O232    1.280   .     A
C204   O234    1.293   .     A
C204   C206    1.431   .     S
C206   C255    1.359   .     S
C206   S290    1.783   .     S
C207   C245    1.488   .     S
C207   C212    1.411   .     A
C208   C248    1.488   .     S
C208   C211    1.411   .     A
C208   C360    1.392   .     S
C209   C211    1.400   .     A
C209   H219    1.083   .     S
C209   C357    1.392   .     S
C210   C212    1.400   .     A
C210   H220    1.083   .     S
C213   H221    1.081   .     S
C213   N226    1.367   .     A
C213   C1115   1.416   1_554 S
C214   H222    1.081   .     S
C214   N225    1.367   .     A
C214   C666    1.416   .     S
C215   H223    1.081   .     S
C215   N225    1.367   .     A
C215   C663    1.416   .     S
C216   H224    1.081   .     S
C216   N226    1.367   .     A
C216   C1114   1.416   1_554 S
Cu217  N225    2.015   .     S
Cu217  Cu218   2.681   .     S
Cu217  O230    1.960   .     S
Cu217  O231    1.977   .     S
Cu217  O234    1.970   .     S
Cu217  O227    1.960   .     S
Cu218  O228    1.960   .     S
Cu218  N226    2.015   .     S
Cu218  O229    1.960   .     S
Cu218  O233    1.970   .     S
Cu218  O232    1.977   .     S
S235   O236    1.502   .     D
S235   O237    1.502   .     D
S235   C255    1.782   .     S
S235   O288    1.683   .     S
O238   H239    0.990   .     S
S240   O242    1.503   .     D
S240   O241    1.502   .     D
O243   H244    0.991   .     S
O243   S290    1.684   .     S
C245   H246    1.084   .     S
C245   O247    1.221   .     D
C248   H249    1.084   .     S
C248   O250    1.221   .     D
C251   O279    1.291   .     A
C251   C262    1.448   .     S
C251   O277    1.291   .     A
C252   O280    1.291   .     A
C252   C261    1.448   .     S
C252   O278    1.291   .     A
C253   O281    1.280   .     A
C253   O283    1.293   .     A
C253   C255    1.431   .     S
C254   O282    1.280   .     A
C254   O284    1.293   .     A
C254   C256    1.431   .     S
C256   C155    1.359   1_655 S
C256   S190    1.783   1_655 S
C257   C295    1.488   .     S
C257   C262    1.411   .     A
C258   C298    1.488   .     S
C258   C261    1.411   .     A
C258   C410    1.392   .     S
C259   C261    1.400   .     A
C259   H269    1.083   .     S
C259   C407    1.392   .     S
C260   C262    1.400   .     A
C260   H270    1.083   .     S
C263   H271    1.081   .     S
C263   N276    1.367   .     A
C263   C1165   1.416   1_554 S
C264   H272    1.081   .     S
C264   N275    1.367   .     A
C264   C716    1.416   .     S
C265   H273    1.081   .     S
C265   N275    1.367   .     A
C265   C713    1.416   .     S
C266   H274    1.081   .     S
C266   N276    1.367   .     A
C266   C1164   1.416   1_554 S
Cu267  N275    2.015   .     S
Cu267  Cu268   2.681   .     S
Cu267  O280    1.960   .     S
Cu267  O281    1.977   .     S
Cu267  O284    1.970   .     S
Cu267  O277    1.960   .     S
Cu268  O278    1.960   .     S
Cu268  N276    2.015   .     S
Cu268  O279    1.960   .     S
Cu268  O283    1.970   .     S
Cu268  O282    1.977   .     S
S285   O286    1.502   .     D
S285   O287    1.502   .     D
S285   C155    1.782   1_655 S
S285   O188    1.683   1_655 S
O288   H289    0.990   .     S
S290   O292    1.503   .     D
S290   O291    1.502   .     D
O293   H294    0.991   .     S
O293   S190    1.684   1_655 S
C295   H296    1.084   .     S
C295   O297    1.221   .     D
C298   H299    1.084   .     S
C298   O300    1.221   .     D
C301   O329    1.291   .     A
C301   C312    1.448   .     S
C301   O327    1.291   .     A
C302   O330    1.291   .     A
C302   C311    1.448   .     S
C302   O328    1.291   .     A
C303   O331    1.280   .     A
C303   O333    1.293   .     A
C303   C305    1.431   .     S
C304   O332    1.280   .     A
C304   O334    1.293   .     A
C304   C306    1.431   .     S
C305   C406    1.359   1_455 S
C305   S435    1.782   1_455 S
C306   C355    1.359   .     S
C306   S390    1.783   .     S
C307   C345    1.488   .     S
C307   C312    1.411   .     A
C308   C348    1.488   .     S
C308   C311    1.411   .     A
C308   C10     1.392   1_565 S
C309   C311    1.400   .     A
C309   H319    1.083   .     S
C309   C7      1.392   1_565 S
C310   C312    1.400   .     A
C310   H320    1.083   .     S
C313   H321    1.081   .     S
C313   N326    1.367   .     A
C313   C1215   1.416   1_554 S
C314   H322    1.081   .     S
C314   N325    1.367   .     A
C314   C766    1.416   .     S
C315   H323    1.081   .     S
C315   N325    1.367   .     A
C315   C763    1.416   .     S
C316   H324    1.081   .     S
C316   N326    1.367   .     A
C316   C1214   1.416   1_554 S
Cu317  N325    2.015   .     S
Cu317  Cu318   2.681   .     S
Cu317  O330    1.960   .     S
Cu317  O331    1.977   .     S
Cu317  O334    1.970   .     S
Cu317  O327    1.960   .     S
Cu318  O328    1.960   .     S
Cu318  N326    2.015   .     S
Cu318  O329    1.960   .     S
Cu318  O333    1.970   .     S
Cu318  O332    1.977   .     S
S335   O336    1.502   .     D
S335   O337    1.502   .     D
S335   C355    1.782   .     S
S335   O388    1.683   .     S
O338   H339    0.990   .     S
O338   S435    1.683   1_455 S
S340   O342    1.503   .     D
S340   O341    1.502   .     D
S340   C406    1.783   1_455 S
S340   O443    1.684   1_455 S
O343   H344    0.991   .     S
O343   S390    1.684   .     S
C345   H346    1.084   .     S
C345   O347    1.221   .     D
C348   H349    1.084   .     S
C348   O350    1.221   .     D
C351   O379    1.291   .     A
C351   C362    1.448   .     S
C351   O377    1.291   .     A
C352   O380    1.291   .     A
C352   C361    1.448   .     S
C352   O378    1.291   .     A
C353   O381    1.280   .     A
C353   O383    1.293   .     A
C353   C355    1.431   .     S
C354   O382    1.280   .     A
C354   O384    1.293   .     A
C354   C356    1.431   .     S
C356   C405    1.359   .     S
C356   S440    1.783   .     S
C357   C395    1.488   .     S
C357   C362    1.411   .     A
C358   C398    1.488   .     S
C358   C361    1.411   .     A
C358   C60     1.392   1_565 S
C359   C361    1.400   .     A
C359   H369    1.083   .     S
C359   C57     1.392   1_565 S
C360   C362    1.400   .     A
C360   H370    1.083   .     S
C363   H371    1.081   .     S
C363   N376    1.367   .     A
C363   C1265   1.416   1_554 S
C364   H372    1.081   .     S
C364   N375    1.367   .     A
C364   C816    1.416   .     S
C365   H373    1.081   .     S
C365   N375    1.367   .     A
C365   C813    1.416   .     S
C366   H374    1.081   .     S
C366   N376    1.367   .     A
C366   C1264   1.416   1_554 S
Cu367  N375    2.015   .     S
Cu367  Cu368   2.681   .     S
Cu367  O380    1.960   .     S
Cu367  O381    1.977   .     S
Cu367  O384    1.970   .     S
Cu367  O377    1.960   .     S
Cu368  O378    1.960   .     S
Cu368  N376    2.015   .     S
Cu368  O379    1.960   .     S
Cu368  O383    1.970   .     S
Cu368  O382    1.977   .     S
S385   O386    1.502   .     D
S385   O387    1.502   .     D
S385   C405    1.782   .     S
S385   O438    1.683   .     S
O388   H389    0.990   .     S
S390   O392    1.503   .     D
S390   O391    1.502   .     D
O393   H394    0.991   .     S
O393   S440    1.684   .     S
C395   H396    1.084   .     S
C395   O397    1.221   .     D
C398   H399    1.084   .     S
C398   O400    1.221   .     D
C401   O429    1.291   .     A
C401   C412    1.448   .     S
C401   O427    1.291   .     A
C402   O430    1.291   .     A
C402   C411    1.448   .     S
C402   O428    1.291   .     A
C403   O431    1.280   .     A
C403   O433    1.293   .     A
C403   C405    1.431   .     S
C404   O432    1.280   .     A
C404   O434    1.293   .     A
C404   C406    1.431   .     S
C406   C305    1.359   1_655 S
C406   S340    1.783   1_655 S
C407   C445    1.488   .     S
C407   C412    1.411   .     A
C408   C448    1.488   .     S
C408   C411    1.411   .     A
C408   C110    1.392   1_565 S
C409   C411    1.400   .     A
C409   H419    1.083   .     S
C409   C107    1.392   1_565 S
C410   C412    1.400   .     A
C410   H420    1.083   .     S
C413   H421    1.081   .     S
C413   N426    1.367   .     A
C413   C1315   1.416   1_554 S
C414   H422    1.081   .     S
C414   N425    1.367   .     A
C414   C866    1.416   .     S
C415   H423    1.081   .     S
C415   N425    1.367   .     A
C415   C863    1.416   .     S
C416   H424    1.081   .     S
C416   N426    1.367   .     A
C416   C1314   1.416   1_554 S
Cu417  N425    2.015   .     S
Cu417  Cu418   2.681   .     S
Cu417  O430    1.960   .     S
Cu417  O431    1.977   .     S
Cu417  O434    1.970   .     S
Cu417  O427    1.960   .     S
Cu418  O428    1.960   .     S
Cu418  N426    2.015   .     S
Cu418  O429    1.960   .     S
Cu418  O433    1.970   .     S
Cu418  O432    1.977   .     S
S435   O436    1.502   .     D
S435   O437    1.502   .     D
S435   C305    1.782   1_655 S
S435   O338    1.683   1_655 S
O438   H439    0.990   .     S
S440   O442    1.503   .     D
S440   O441    1.502   .     D
O443   H444    0.991   .     S
O443   S340    1.684   1_655 S
C445   H446    1.084   .     S
C445   O447    1.221   .     D
C448   H449    1.084   .     S
C448   O450    1.221   .     D
C451   O479    1.291   .     A
C451   C462    1.448   .     S
C451   O477    1.291   .     A
C452   O480    1.291   .     A
C452   C461    1.448   .     S
C452   O478    1.291   .     A
C453   O481    1.280   .     A
C453   O483    1.293   .     A
C453   C455    1.431   .     S
C454   O482    1.280   .     A
C454   O484    1.293   .     A
C454   C456    1.431   .     S
C455   C556    1.359   1_455 S
C455   S585    1.782   1_455 S
C456   C505    1.359   .     S
C456   S540    1.783   .     S
C457   C495    1.488   .     S
C457   C462    1.411   .     A
C457   C759    1.392   1_545 S
C458   C498    1.488   .     S
C458   C461    1.411   .     A
C458   C610    1.392   .     S
C459   C461    1.400   .     A
C459   H469    1.083   .     S
C459   C607    1.392   .     S
C460   C462    1.400   .     A
C460   H470    1.083   .     S
C460   C758    1.392   1_545 S
C463   H471    1.081   .     S
C463   N476    1.367   .     A
C464   H472    1.081   .     S
C464   N475    1.367   .     A
C464   C916    1.416   .     S
C465   H473    1.081   .     S
C465   N475    1.367   .     A
C465   C913    1.416   .     S
C466   H474    1.081   .     S
C466   N476    1.367   .     A
Cu467  N475    2.015   .     S
Cu467  Cu468   2.681   .     S
Cu467  O480    1.960   .     S
Cu467  O481    1.977   .     S
Cu467  O484    1.970   .     S
Cu467  O477    1.960   .     S
Cu468  O478    1.960   .     S
Cu468  N476    2.015   .     S
Cu468  O479    1.960   .     S
Cu468  O483    1.970   .     S
Cu468  O482    1.977   .     S
S485   O486    1.502   .     D
S485   O487    1.502   .     D
S485   C505    1.782   .     S
S485   O538    1.683   .     S
O488   H489    0.990   .     S
O488   S585    1.683   1_455 S
S490   O492    1.503   .     D
S490   O491    1.502   .     D
S490   C556    1.783   1_455 S
S490   O593    1.684   1_455 S
O493   H494    0.991   .     S
O493   S540    1.684   .     S
C495   H496    1.084   .     S
C495   O497    1.221   .     D
C498   H499    1.084   .     S
C498   O500    1.221   .     D
C501   O529    1.291   .     A
C501   C512    1.448   .     S
C501   O527    1.291   .     A
C502   O530    1.291   .     A
C502   C511    1.448   .     S
C502   O528    1.291   .     A
C503   O531    1.280   .     A
C503   O533    1.293   .     A
C503   C505    1.431   .     S
C504   O532    1.280   .     A
C504   O534    1.293   .     A
C504   C506    1.431   .     S
C506   C555    1.359   .     S
C506   S590    1.783   .     S
C507   C545    1.488   .     S
C507   C512    1.411   .     A
C507   C809    1.392   1_545 S
C508   C548    1.488   .     S
C508   C511    1.411   .     A
C508   C660    1.392   .     S
C509   C511    1.400   .     A
C509   H519    1.083   .     S
C509   C657    1.392   .     S
C510   C512    1.400   .     A
C510   H520    1.083   .     S
C510   C808    1.392   1_545 S
C513   H521    1.081   .     S
C513   N526    1.367   .     A
C514   H522    1.081   .     S
C514   N525    1.367   .     A
C514   C966    1.416   .     S
C515   H523    1.081   .     S
C515   N525    1.367   .     A
C515   C963    1.416   .     S
C516   H524    1.081   .     S
C516   N526    1.367   .     A
Cu517  N525    2.015   .     S
Cu517  Cu518   2.681   .     S
Cu517  O530    1.960   .     S
Cu517  O531    1.977   .     S
Cu517  O534    1.970   .     S
Cu517  O527    1.960   .     S
Cu518  O528    1.960   .     S
Cu518  N526    2.015   .     S
Cu518  O529    1.960   .     S
Cu518  O533    1.970   .     S
Cu518  O532    1.977   .     S
S535   O536    1.502   .     D
S535   O537    1.502   .     D
S535   C555    1.782   .     S
S535   O588    1.683   .     S
O538   H539    0.990   .     S
S540   O542    1.503   .     D
S540   O541    1.502   .     D
O543   H544    0.991   .     S
O543   S590    1.684   .     S
C545   H546    1.084   .     S
C545   O547    1.221   .     D
C548   H549    1.084   .     S
C548   O550    1.221   .     D
C551   O579    1.291   .     A
C551   C562    1.448   .     S
C551   O577    1.291   .     A
C552   O580    1.291   .     A
C552   C561    1.448   .     S
C552   O578    1.291   .     A
C553   O581    1.280   .     A
C553   O583    1.293   .     A
C553   C555    1.431   .     S
C554   O582    1.280   .     A
C554   O584    1.293   .     A
C554   C556    1.431   .     S
C556   C455    1.359   1_655 S
C556   S490    1.783   1_655 S
C557   C595    1.488   .     S
C557   C562    1.411   .     A
C557   C859    1.392   1_545 S
C558   C598    1.488   .     S
C558   C561    1.411   .     A
C558   C710    1.392   .     S
C559   C561    1.400   .     A
C559   H569    1.083   .     S
C559   C707    1.392   .     S
C560   C562    1.400   .     A
C560   H570    1.083   .     S
C560   C858    1.392   1_545 S
C563   H571    1.081   .     S
C563   N576    1.367   .     A
C564   H572    1.081   .     S
C564   N575    1.367   .     A
C564   C1016   1.416   .     S
C565   H573    1.081   .     S
C565   N575    1.367   .     A
C565   C1013   1.416   .     S
C566   H574    1.081   .     S
C566   N576    1.367   .     A
Cu567  N575    2.015   .     S
Cu567  Cu568   2.681   .     S
Cu567  O580    1.960   .     S
Cu567  O581    1.977   .     S
Cu567  O584    1.970   .     S
Cu567  O577    1.960   .     S
Cu568  O578    1.960   .     S
Cu568  N576    2.015   .     S
Cu568  O579    1.960   .     S
Cu568  O583    1.970   .     S
Cu568  O582    1.977   .     S
S585   O586    1.502   .     D
S585   O587    1.502   .     D
S585   C455    1.782   1_655 S
S585   O488    1.683   1_655 S
O588   H589    0.990   .     S
S590   O592    1.503   .     D
S590   O591    1.502   .     D
O593   H594    0.991   .     S
O593   S490    1.684   1_655 S
C595   H596    1.084   .     S
C595   O597    1.221   .     D
C598   H599    1.084   .     S
C598   O600    1.221   .     D
C601   O629    1.291   .     A
C601   C612    1.448   .     S
C601   O627    1.291   .     A
C602   O630    1.291   .     A
C602   C611    1.448   .     S
C602   O628    1.291   .     A
C603   O631    1.280   .     A
C603   O633    1.293   .     A
C603   C605    1.431   .     S
C604   O632    1.280   .     A
C604   O634    1.293   .     A
C604   C606    1.431   .     S
C605   C706    1.359   1_455 S
C605   S735    1.782   1_455 S
C606   C655    1.359   .     S
C606   S690    1.783   .     S
C607   C645    1.488   .     S
C607   C612    1.411   .     A
C608   C648    1.488   .     S
C608   C611    1.411   .     A
C608   C760    1.392   .     S
C609   C611    1.400   .     A
C609   H619    1.083   .     S
C609   C757    1.392   .     S
C610   C612    1.400   .     A
C610   H620    1.083   .     S
C613   H621    1.081   .     S
C613   N626    1.367   .     A
C614   H622    1.081   .     S
C614   N625    1.367   .     A
C614   C1066   1.416   .     S
C615   H623    1.081   .     S
C615   N625    1.367   .     A
C615   C1063   1.416   .     S
C616   H624    1.081   .     S
C616   N626    1.367   .     A
Cu617  N625    2.015   .     S
Cu617  Cu618   2.681   .     S
Cu617  O630    1.960   .     S
Cu617  O631    1.977   .     S
Cu617  O634    1.970   .     S
Cu617  O627    1.960   .     S
Cu618  O628    1.960   .     S
Cu618  N626    2.015   .     S
Cu618  O629    1.960   .     S
Cu618  O633    1.970   .     S
Cu618  O632    1.977   .     S
S635   O636    1.502   .     D
S635   O637    1.502   .     D
S635   C655    1.782   .     S
S635   O688    1.683   .     S
O638   H639    0.990   .     S
O638   S735    1.683   1_455 S
S640   O642    1.503   .     D
S640   O641    1.502   .     D
S640   C706    1.783   1_455 S
S640   O743    1.684   1_455 S
O643   H644    0.991   .     S
O643   S690    1.684   .     S
C645   H646    1.084   .     S
C645   O647    1.221   .     D
C648   H649    1.084   .     S
C648   O650    1.221   .     D
C651   O679    1.291   .     A
C651   C662    1.448   .     S
C651   O677    1.291   .     A
C652   O680    1.291   .     A
C652   C661    1.448   .     S
C652   O678    1.291   .     A
C653   O681    1.280   .     A
C653   O683    1.293   .     A
C653   C655    1.431   .     S
C654   O682    1.280   .     A
C654   O684    1.293   .     A
C654   C656    1.431   .     S
C656   C705    1.359   .     S
C656   S740    1.783   .     S
C657   C695    1.488   .     S
C657   C662    1.411   .     A
C658   C698    1.488   .     S
C658   C661    1.411   .     A
C658   C810    1.392   .     S
C659   C661    1.400   .     A
C659   H669    1.083   .     S
C659   C807    1.392   .     S
C660   C662    1.400   .     A
C660   H670    1.083   .     S
C663   H671    1.081   .     S
C663   N676    1.367   .     A
C664   H672    1.081   .     S
C664   N675    1.367   .     A
C664   C1116   1.416   .     S
C665   H673    1.081   .     S
C665   N675    1.367   .     A
C665   C1113   1.416   .     S
C666   H674    1.081   .     S
C666   N676    1.367   .     A
Cu667  N675    2.015   .     S
Cu667  Cu668   2.681   .     S
Cu667  O680    1.960   .     S
Cu667  O681    1.977   .     S
Cu667  O684    1.970   .     S
Cu667  O677    1.960   .     S
Cu668  O678    1.960   .     S
Cu668  N676    2.015   .     S
Cu668  O679    1.960   .     S
Cu668  O683    1.970   .     S
Cu668  O682    1.977   .     S
S685   O686    1.502   .     D
S685   O687    1.502   .     D
S685   C705    1.782   .     S
S685   O738    1.683   .     S
O688   H689    0.990   .     S
S690   O692    1.503   .     D
S690   O691    1.502   .     D
O693   H694    0.991   .     S
O693   S740    1.684   .     S
C695   H696    1.084   .     S
C695   O697    1.221   .     D
C698   H699    1.084   .     S
C698   O700    1.221   .     D
C701   O729    1.291   .     A
C701   C712    1.448   .     S
C701   O727    1.291   .     A
C702   O730    1.291   .     A
C702   C711    1.448   .     S
C702   O728    1.291   .     A
C703   O731    1.280   .     A
C703   O733    1.293   .     A
C703   C705    1.431   .     S
C704   O732    1.280   .     A
C704   O734    1.293   .     A
C704   C706    1.431   .     S
C706   C605    1.359   1_655 S
C706   S640    1.783   1_655 S
C707   C745    1.488   .     S
C707   C712    1.411   .     A
C708   C748    1.488   .     S
C708   C711    1.411   .     A
C708   C860    1.392   .     S
C709   C711    1.400   .     A
C709   H719    1.083   .     S
C709   C857    1.392   .     S
C710   C712    1.400   .     A
C710   H720    1.083   .     S
C713   H721    1.081   .     S
C713   N726    1.367   .     A
C714   H722    1.081   .     S
C714   N725    1.367   .     A
C714   C1166   1.416   .     S
C715   H723    1.081   .     S
C715   N725    1.367   .     A
C715   C1163   1.416   .     S
C716   H724    1.081   .     S
C716   N726    1.367   .     A
Cu717  N725    2.015   .     S
Cu717  Cu718   2.681   .     S
Cu717  O730    1.960   .     S
Cu717  O731    1.977   .     S
Cu717  O734    1.970   .     S
Cu717  O727    1.960   .     S
Cu718  O728    1.960   .     S
Cu718  N726    2.015   .     S
Cu718  O729    1.960   .     S
Cu718  O733    1.970   .     S
Cu718  O732    1.977   .     S
S735   O736    1.502   .     D
S735   O737    1.502   .     D
S735   C605    1.782   1_655 S
S735   O638    1.683   1_655 S
O738   H739    0.990   .     S
S740   O742    1.503   .     D
S740   O741    1.502   .     D
O743   H744    0.991   .     S
O743   S640    1.684   1_655 S
C745   H746    1.084   .     S
C745   O747    1.221   .     D
C748   H749    1.084   .     S
C748   O750    1.221   .     D
C751   O779    1.291   .     A
C751   C762    1.448   .     S
C751   O777    1.291   .     A
C752   O780    1.291   .     A
C752   C761    1.448   .     S
C752   O778    1.291   .     A
C753   O781    1.280   .     A
C753   O783    1.293   .     A
C753   C755    1.431   .     S
C754   O782    1.280   .     A
C754   O784    1.293   .     A
C754   C756    1.431   .     S
C755   C856    1.359   1_455 S
C755   S885    1.782   1_455 S
C756   C805    1.359   .     S
C756   S840    1.783   .     S
C757   C795    1.488   .     S
C757   C762    1.411   .     A
C758   C798    1.488   .     S
C758   C761    1.411   .     A
C758   C460    1.392   1_565 S
C759   C761    1.400   .     A
C759   H769    1.083   .     S
C759   C457    1.392   1_565 S
C760   C762    1.400   .     A
C760   H770    1.083   .     S
C763   H771    1.081   .     S
C763   N776    1.367   .     A
C764   H772    1.081   .     S
C764   N775    1.367   .     A
C764   C1216   1.416   .     S
C765   H773    1.081   .     S
C765   N775    1.367   .     A
C765   C1213   1.416   .     S
C766   H774    1.081   .     S
C766   N776    1.367   .     A
Cu767  N775    2.015   .     S
Cu767  Cu768   2.681   .     S
Cu767  O780    1.960   .     S
Cu767  O781    1.977   .     S
Cu767  O784    1.970   .     S
Cu767  O777    1.960   .     S
Cu768  O778    1.960   .     S
Cu768  N776    2.015   .     S
Cu768  O779    1.960   .     S
Cu768  O783    1.970   .     S
Cu768  O782    1.977   .     S
S785   O786    1.502   .     D
S785   O787    1.502   .     D
S785   C805    1.782   .     S
S785   O838    1.683   .     S
O788   H789    0.990   .     S
O788   S885    1.683   1_455 S
S790   O792    1.503   .     D
S790   O791    1.502   .     D
S790   C856    1.783   1_455 S
S790   O893    1.684   1_455 S
O793   H794    0.991   .     S
O793   S840    1.684   .     S
C795   H796    1.084   .     S
C795   O797    1.221   .     D
C798   H799    1.084   .     S
C798   O800    1.221   .     D
C801   O829    1.291   .     A
C801   C812    1.448   .     S
C801   O827    1.291   .     A
C802   O830    1.291   .     A
C802   C811    1.448   .     S
C802   O828    1.291   .     A
C803   O831    1.280   .     A
C803   O833    1.293   .     A
C803   C805    1.431   .     S
C804   O832    1.280   .     A
C804   O834    1.293   .     A
C804   C806    1.431   .     S
C806   C855    1.359   .     S
C806   S890    1.783   .     S
C807   C845    1.488   .     S
C807   C812    1.411   .     A
C808   C848    1.488   .     S
C808   C811    1.411   .     A
C808   C510    1.392   1_565 S
C809   C811    1.400   .     A
C809   H819    1.083   .     S
C809   C507    1.392   1_565 S
C810   C812    1.400   .     A
C810   H820    1.083   .     S
C813   H821    1.081   .     S
C813   N826    1.367   .     A
C814   H822    1.081   .     S
C814   N825    1.367   .     A
C814   C1266   1.416   .     S
C815   H823    1.081   .     S
C815   N825    1.367   .     A
C815   C1263   1.416   .     S
C816   H824    1.081   .     S
C816   N826    1.367   .     A
Cu817  N825    2.015   .     S
Cu817  Cu818   2.681   .     S
Cu817  O830    1.960   .     S
Cu817  O831    1.977   .     S
Cu817  O834    1.970   .     S
Cu817  O827    1.960   .     S
Cu818  O828    1.960   .     S
Cu818  N826    2.015   .     S
Cu818  O829    1.960   .     S
Cu818  O833    1.970   .     S
Cu818  O832    1.977   .     S
S835   O836    1.502   .     D
S835   O837    1.502   .     D
S835   C855    1.782   .     S
S835   O888    1.683   .     S
O838   H839    0.990   .     S
S840   O842    1.503   .     D
S840   O841    1.502   .     D
O843   H844    0.991   .     S
O843   S890    1.684   .     S
C845   H846    1.084   .     S
C845   O847    1.221   .     D
C848   H849    1.084   .     S
C848   O850    1.221   .     D
C851   O879    1.291   .     A
C851   C862    1.448   .     S
C851   O877    1.291   .     A
C852   O880    1.291   .     A
C852   C861    1.448   .     S
C852   O878    1.291   .     A
C853   O881    1.280   .     A
C853   O883    1.293   .     A
C853   C855    1.431   .     S
C854   O882    1.280   .     A
C854   O884    1.293   .     A
C854   C856    1.431   .     S
C856   C755    1.359   1_655 S
C856   S790    1.783   1_655 S
C857   C895    1.488   .     S
C857   C862    1.411   .     A
C858   C898    1.488   .     S
C858   C861    1.411   .     A
C858   C560    1.392   1_565 S
C859   C861    1.400   .     A
C859   H869    1.083   .     S
C859   C557    1.392   1_565 S
C860   C862    1.400   .     A
C860   H870    1.083   .     S
C863   H871    1.081   .     S
C863   N876    1.367   .     A
C864   H872    1.081   .     S
C864   N875    1.367   .     A
C864   C1316   1.416   .     S
C865   H873    1.081   .     S
C865   N875    1.367   .     A
C865   C1313   1.416   .     S
C866   H874    1.081   .     S
C866   N876    1.367   .     A
Cu867  N875    2.015   .     S
Cu867  Cu868   2.681   .     S
Cu867  O880    1.960   .     S
Cu867  O881    1.977   .     S
Cu867  O884    1.970   .     S
Cu867  O877    1.960   .     S
Cu868  O878    1.960   .     S
Cu868  N876    2.015   .     S
Cu868  O879    1.960   .     S
Cu868  O883    1.970   .     S
Cu868  O882    1.977   .     S
S885   O886    1.502   .     D
S885   O887    1.502   .     D
S885   C755    1.782   1_655 S
S885   O788    1.683   1_655 S
O888   H889    0.990   .     S
S890   O892    1.503   .     D
S890   O891    1.502   .     D
O893   H894    0.991   .     S
O893   S790    1.684   1_655 S
C895   H896    1.084   .     S
C895   O897    1.221   .     D
C898   H899    1.084   .     S
C898   O900    1.221   .     D
C901   O929    1.291   .     A
C901   C912    1.448   .     S
C901   O927    1.291   .     A
C902   O930    1.291   .     A
C902   C911    1.448   .     S
C902   O928    1.291   .     A
C903   O931    1.280   .     A
C903   O933    1.293   .     A
C903   C905    1.431   .     S
C904   O932    1.280   .     A
C904   O934    1.293   .     A
C904   C906    1.431   .     S
C905   C1006   1.359   1_455 S
C905   S1035   1.782   1_455 S
C906   C955    1.359   .     S
C906   S990    1.783   .     S
C907   C945    1.488   .     S
C907   C912    1.411   .     A
C907   C1209   1.392   1_545 S
C908   C948    1.488   .     S
C908   C911    1.411   .     A
C908   C1060   1.392   .     S
C909   C911    1.400   .     A
C909   H919    1.083   .     S
C909   C1057   1.392   .     S
C910   C912    1.400   .     A
C910   H920    1.083   .     S
C910   C1208   1.392   1_545 S
C913   H921    1.081   .     S
C913   N926    1.367   .     A
C914   H922    1.081   .     S
C914   N925    1.367   .     A
C914   C16     1.416   1_556 S
C915   H923    1.081   .     S
C915   N925    1.367   .     A
C915   C13     1.416   1_556 S
C916   H924    1.081   .     S
C916   N926    1.367   .     A
Cu917  N925    2.015   .     S
Cu917  Cu918   2.681   .     S
Cu917  O930    1.960   .     S
Cu917  O931    1.977   .     S
Cu917  O934    1.970   .     S
Cu917  O927    1.960   .     S
Cu918  O928    1.960   .     S
Cu918  N926    2.015   .     S
Cu918  O929    1.960   .     S
Cu918  O933    1.970   .     S
Cu918  O932    1.977   .     S
S935   O936    1.502   .     D
S935   O937    1.502   .     D
S935   C955    1.782   .     S
S935   O988    1.683   .     S
O938   H939    0.990   .     S
O938   S1035   1.683   1_455 S
S940   O942    1.503   .     D
S940   O941    1.502   .     D
S940   C1006   1.783   1_455 S
S940   O1043   1.684   1_455 S
O943   H944    0.991   .     S
O943   S990    1.684   .     S
C945   H946    1.084   .     S
C945   O947    1.221   .     D
C948   H949    1.084   .     S
C948   O950    1.221   .     D
C951   O979    1.291   .     A
C951   C962    1.448   .     S
C951   O977    1.291   .     A
C952   O980    1.291   .     A
C952   C961    1.448   .     S
C952   O978    1.291   .     A
C953   O981    1.280   .     A
C953   O983    1.293   .     A
C953   C955    1.431   .     S
C954   O982    1.280   .     A
C954   O984    1.293   .     A
C954   C956    1.431   .     S
C956   C1005   1.359   .     S
C956   S1040   1.783   .     S
C957   C995    1.488   .     S
C957   C962    1.411   .     A
C957   C1259   1.392   1_545 S
C958   C998    1.488   .     S
C958   C961    1.411   .     A
C958   C1110   1.392   .     S
C959   C961    1.400   .     A
C959   H969    1.083   .     S
C959   C1107   1.392   .     S
C960   C962    1.400   .     A
C960   H970    1.083   .     S
C960   C1258   1.392   1_545 S
C963   H971    1.081   .     S
C963   N976    1.367   .     A
C964   H972    1.081   .     S
C964   N975    1.367   .     A
C964   C66     1.416   1_556 S
C965   H973    1.081   .     S
C965   N975    1.367   .     A
C965   C63     1.416   1_556 S
C966   H974    1.081   .     S
C966   N976    1.367   .     A
Cu967  N975    2.015   .     S
Cu967  Cu968   2.681   .     S
Cu967  O980    1.960   .     S
Cu967  O981    1.977   .     S
Cu967  O984    1.970   .     S
Cu967  O977    1.960   .     S
Cu968  O978    1.960   .     S
Cu968  N976    2.015   .     S
Cu968  O979    1.960   .     S
Cu968  O983    1.970   .     S
Cu968  O982    1.977   .     S
S985   O986    1.502   .     D
S985   O987    1.502   .     D
S985   C1005   1.782   .     S
S985   O1038   1.683   .     S
O988   H989    0.990   .     S
S990   O992    1.503   .     D
S990   O991    1.502   .     D
O993   H994    0.991   .     S
O993   S1040   1.684   .     S
C995   H996    1.084   .     S
C995   O997    1.221   .     D
C998   H999    1.084   .     S
C998   O1000   1.221   .     D
C1001  O1029   1.291   .     A
C1001  C1012   1.448   .     S
C1001  O1027   1.291   .     A
C1002  O1030   1.291   .     A
C1002  C1011   1.448   .     S
C1002  O1028   1.291   .     A
C1003  O1031   1.280   .     A
C1003  O1033   1.293   .     A
C1003  C1005   1.431   .     S
C1004  O1032   1.280   .     A
C1004  O1034   1.293   .     A
C1004  C1006   1.431   .     S
C1006  C905    1.359   1_655 S
C1006  S940    1.783   1_655 S
C1007  C1045   1.488   .     S
C1007  C1012   1.411   .     A
C1007  C1309   1.392   1_545 S
C1008  C1048   1.488   .     S
C1008  C1011   1.411   .     A
C1008  C1160   1.392   .     S
C1009  C1011   1.400   .     A
C1009  H1019   1.083   .     S
C1009  C1157   1.392   .     S
C1010  C1012   1.400   .     A
C1010  H1020   1.083   .     S
C1010  C1308   1.392   1_545 S
C1013  H1021   1.081   .     S
C1013  N1026   1.367   .     A
C1014  H1022   1.081   .     S
C1014  N1025   1.367   .     A
C1014  C116    1.416   1_556 S
C1015  H1023   1.081   .     S
C1015  N1025   1.367   .     A
C1015  C113    1.416   1_556 S
C1016  H1024   1.081   .     S
C1016  N1026   1.367   .     A
Cu1017 N1025   2.015   .     S
Cu1017 Cu1018  2.681   .     S
Cu1017 O1030   1.960   .     S
Cu1017 O1031   1.977   .     S
Cu1017 O1034   1.970   .     S
Cu1017 O1027   1.960   .     S
Cu1018 O1028   1.960   .     S
Cu1018 N1026   2.015   .     S
Cu1018 O1029   1.960   .     S
Cu1018 O1033   1.970   .     S
Cu1018 O1032   1.977   .     S
S1035  O1036   1.502   .     D
S1035  O1037   1.502   .     D
S1035  C905    1.782   1_655 S
S1035  O938    1.683   1_655 S
O1038  H1039   0.990   .     S
S1040  O1042   1.503   .     D
S1040  O1041   1.502   .     D
O1043  H1044   0.991   .     S
O1043  S940    1.684   1_655 S
C1045  H1046   1.084   .     S
C1045  O1047   1.221   .     D
C1048  H1049   1.084   .     S
C1048  O1050   1.221   .     D
C1051  O1079   1.291   .     A
C1051  C1062   1.448   .     S
C1051  O1077   1.291   .     A
C1052  O1080   1.291   .     A
C1052  C1061   1.448   .     S
C1052  O1078   1.291   .     A
C1053  O1081   1.280   .     A
C1053  O1083   1.293   .     A
C1053  C1055   1.431   .     S
C1054  O1082   1.280   .     A
C1054  O1084   1.293   .     A
C1054  C1056   1.431   .     S
C1055  C1156   1.359   1_455 S
C1055  S1185   1.782   1_455 S
C1056  C1105   1.359   .     S
C1056  S1140   1.783   .     S
C1057  C1095   1.488   .     S
C1057  C1062   1.411   .     A
C1058  C1098   1.488   .     S
C1058  C1061   1.411   .     A
C1058  C1210   1.392   .     S
C1059  C1061   1.400   .     A
C1059  H1069   1.083   .     S
C1059  C1207   1.392   .     S
C1060  C1062   1.400   .     A
C1060  H1070   1.083   .     S
C1063  H1071   1.081   .     S
C1063  N1076   1.367   .     A
C1064  H1072   1.081   .     S
C1064  N1075   1.367   .     A
C1064  C166    1.416   1_556 S
C1065  H1073   1.081   .     S
C1065  N1075   1.367   .     A
C1065  C163    1.416   1_556 S
C1066  H1074   1.081   .     S
C1066  N1076   1.367   .     A
Cu1067 N1075   2.015   .     S
Cu1067 Cu1068  2.681   .     S
Cu1067 O1080   1.960   .     S
Cu1067 O1081   1.977   .     S
Cu1067 O1084   1.970   .     S
Cu1067 O1077   1.960   .     S
Cu1068 O1078   1.960   .     S
Cu1068 N1076   2.015   .     S
Cu1068 O1079   1.960   .     S
Cu1068 O1083   1.970   .     S
Cu1068 O1082   1.977   .     S
S1085  O1086   1.502   .     D
S1085  O1087   1.502   .     D
S1085  C1105   1.782   .     S
S1085  O1138   1.683   .     S
O1088  H1089   0.990   .     S
O1088  S1185   1.683   1_455 S
S1090  O1092   1.503   .     D
S1090  O1091   1.502   .     D
S1090  C1156   1.783   1_455 S
S1090  O1193   1.684   1_455 S
O1093  H1094   0.991   .     S
O1093  S1140   1.684   .     S
C1095  H1096   1.084   .     S
C1095  O1097   1.221   .     D
C1098  H1099   1.084   .     S
C1098  O1100   1.221   .     D
C1101  O1129   1.291   .     A
C1101  C1112   1.448   .     S
C1101  O1127   1.291   .     A
C1102  O1130   1.291   .     A
C1102  C1111   1.448   .     S
C1102  O1128   1.291   .     A
C1103  O1131   1.280   .     A
C1103  O1133   1.293   .     A
C1103  C1105   1.431   .     S
C1104  O1132   1.280   .     A
C1104  O1134   1.293   .     A
C1104  C1106   1.431   .     S
C1106  C1155   1.359   .     S
C1106  S1190   1.783   .     S
C1107  C1145   1.488   .     S
C1107  C1112   1.411   .     A
C1108  C1148   1.488   .     S
C1108  C1111   1.411   .     A
C1108  C1260   1.392   .     S
C1109  C1111   1.400   .     A
C1109  H1119   1.083   .     S
C1109  C1257   1.392   .     S
C1110  C1112   1.400   .     A
C1110  H1120   1.083   .     S
C1113  H1121   1.081   .     S
C1113  N1126   1.367   .     A
C1114  H1122   1.081   .     S
C1114  N1125   1.367   .     A
C1114  C216    1.416   1_556 S
C1115  H1123   1.081   .     S
C1115  N1125   1.367   .     A
C1115  C213    1.416   1_556 S
C1116  H1124   1.081   .     S
C1116  N1126   1.367   .     A
Cu1117 N1125   2.015   .     S
Cu1117 Cu1118  2.681   .     S
Cu1117 O1130   1.960   .     S
Cu1117 O1131   1.977   .     S
Cu1117 O1134   1.970   .     S
Cu1117 O1127   1.960   .     S
Cu1118 O1128   1.960   .     S
Cu1118 N1126   2.015   .     S
Cu1118 O1129   1.960   .     S
Cu1118 O1133   1.970   .     S
Cu1118 O1132   1.977   .     S
S1135  O1136   1.502   .     D
S1135  O1137   1.502   .     D
S1135  C1155   1.782   .     S
S1135  O1188   1.683   .     S
O1138  H1139   0.990   .     S
S1140  O1142   1.503   .     D
S1140  O1141   1.502   .     D
O1143  H1144   0.991   .     S
O1143  S1190   1.684   .     S
C1145  H1146   1.084   .     S
C1145  O1147   1.221   .     D
C1148  H1149   1.084   .     S
C1148  O1150   1.221   .     D
C1151  O1179   1.291   .     A
C1151  C1162   1.448   .     S
C1151  O1177   1.291   .     A
C1152  O1180   1.291   .     A
C1152  C1161   1.448   .     S
C1152  O1178   1.291   .     A
C1153  O1181   1.280   .     A
C1153  O1183   1.293   .     A
C1153  C1155   1.431   .     S
C1154  O1182   1.280   .     A
C1154  O1184   1.293   .     A
C1154  C1156   1.431   .     S
C1156  C1055   1.359   1_655 S
C1156  S1090   1.783   1_655 S
C1157  C1195   1.488   .     S
C1157  C1162   1.411   .     A
C1158  C1198   1.488   .     S
C1158  C1161   1.411   .     A
C1158  C1310   1.392   .     S
C1159  C1161   1.400   .     A
C1159  H1169   1.083   .     S
C1159  C1307   1.392   .     S
C1160  C1162   1.400   .     A
C1160  H1170   1.083   .     S
C1163  H1171   1.081   .     S
C1163  N1176   1.367   .     A
C1164  H1172   1.081   .     S
C1164  N1175   1.367   .     A
C1164  C266    1.416   1_556 S
C1165  H1173   1.081   .     S
C1165  N1175   1.367   .     A
C1165  C263    1.416   1_556 S
C1166  H1174   1.081   .     S
C1166  N1176   1.367   .     A
Cu1167 N1175   2.015   .     S
Cu1167 Cu1168  2.681   .     S
Cu1167 O1180   1.960   .     S
Cu1167 O1181   1.977   .     S
Cu1167 O1184   1.970   .     S
Cu1167 O1177   1.960   .     S
Cu1168 O1178   1.960   .     S
Cu1168 N1176   2.015   .     S
Cu1168 O1179   1.960   .     S
Cu1168 O1183   1.970   .     S
Cu1168 O1182   1.977   .     S
S1185  O1186   1.502   .     D
S1185  O1187   1.502   .     D
S1185  C1055   1.782   1_655 S
S1185  O1088   1.683   1_655 S
O1188  H1189   0.990   .     S
S1190  O1192   1.503   .     D
S1190  O1191   1.502   .     D
O1193  H1194   0.991   .     S
O1193  S1090   1.684   1_655 S
C1195  H1196   1.084   .     S
C1195  O1197   1.221   .     D
C1198  H1199   1.084   .     S
C1198  O1200   1.221   .     D
C1201  O1229   1.291   .     A
C1201  C1212   1.448   .     S
C1201  O1227   1.291   .     A
C1202  O1230   1.291   .     A
C1202  C1211   1.448   .     S
C1202  O1228   1.291   .     A
C1203  O1231   1.280   .     A
C1203  O1233   1.293   .     A
C1203  C1205   1.431   .     S
C1204  O1232   1.280   .     A
C1204  O1234   1.293   .     A
C1204  C1206   1.431   .     S
C1205  C1306   1.359   1_455 S
C1205  S1335   1.782   1_455 S
C1206  C1255   1.359   .     S
C1206  S1290   1.783   .     S
C1207  C1245   1.488   .     S
C1207  C1212   1.411   .     A
C1208  C1248   1.488   .     S
C1208  C1211   1.411   .     A
C1208  C910    1.392   1_565 S
C1209  C1211   1.400   .     A
C1209  H1219   1.083   .     S
C1209  C907    1.392   1_565 S
C1210  C1212   1.400   .     A
C1210  H1220   1.083   .     S
C1213  H1221   1.081   .     S
C1213  N1226   1.367   .     A
C1214  H1222   1.081   .     S
C1214  N1225   1.367   .     A
C1214  C316    1.416   1_556 S
C1215  H1223   1.081   .     S
C1215  N1225   1.367   .     A
C1215  C313    1.416   1_556 S
C1216  H1224   1.081   .     S
C1216  N1226   1.367   .     A
Cu1217 N1225   2.015   .     S
Cu1217 Cu1218  2.681   .     S
Cu1217 O1230   1.960   .     S
Cu1217 O1231   1.977   .     S
Cu1217 O1234   1.970   .     S
Cu1217 O1227   1.960   .     S
Cu1218 O1228   1.960   .     S
Cu1218 N1226   2.015   .     S
Cu1218 O1229   1.960   .     S
Cu1218 O1233   1.970   .     S
Cu1218 O1232   1.977   .     S
S1235  O1236   1.502   .     D
S1235  O1237   1.502   .     D
S1235  C1255   1.782   .     S
S1235  O1288   1.683   .     S
O1238  H1239   0.990   .     S
O1238  S1335   1.683   1_455 S
S1240  O1242   1.503   .     D
S1240  O1241   1.502   .     D
S1240  C1306   1.783   1_455 S
S1240  O1343   1.684   1_455 S
O1243  H1244   0.991   .     S
O1243  S1290   1.684   .     S
C1245  H1246   1.084   .     S
C1245  O1247   1.221   .     D
C1248  H1249   1.084   .     S
C1248  O1250   1.221   .     D
C1251  O1279   1.291   .     A
C1251  C1262   1.448   .     S
C1251  O1277   1.291   .     A
C1252  O1280   1.291   .     A
C1252  C1261   1.448   .     S
C1252  O1278   1.291   .     A
C1253  O1281   1.280   .     A
C1253  O1283   1.293   .     A
C1253  C1255   1.431   .     S
C1254  O1282   1.280   .     A
C1254  O1284   1.293   .     A
C1254  C1256   1.431   .     S
C1256  C1305   1.359   .     S
C1256  S1340   1.783   .     S
C1257  C1295   1.488   .     S
C1257  C1262   1.411   .     A
C1258  C1298   1.488   .     S
C1258  C1261   1.411   .     A
C1258  C960    1.392   1_565 S
C1259  C1261   1.400   .     A
C1259  H1269   1.083   .     S
C1259  C957    1.392   1_565 S
C1260  C1262   1.400   .     A
C1260  H1270   1.083   .     S
C1263  H1271   1.081   .     S
C1263  N1276   1.367   .     A
C1264  H1272   1.081   .     S
C1264  N1275   1.367   .     A
C1264  C366    1.416   1_556 S
C1265  H1273   1.081   .     S
C1265  N1275   1.367   .     A
C1265  C363    1.416   1_556 S
C1266  H1274   1.081   .     S
C1266  N1276   1.367   .     A
Cu1267 N1275   2.015   .     S
Cu1267 Cu1268  2.681   .     S
Cu1267 O1280   1.960   .     S
Cu1267 O1281   1.977   .     S
Cu1267 O1284   1.970   .     S
Cu1267 O1277   1.960   .     S
Cu1268 O1278   1.960   .     S
Cu1268 N1276   2.015   .     S
Cu1268 O1279   1.960   .     S
Cu1268 O1283   1.970   .     S
Cu1268 O1282   1.977   .     S
S1285  O1286   1.502   .     D
S1285  O1287   1.502   .     D
S1285  C1305   1.782   .     S
S1285  O1338   1.683   .     S
O1288  H1289   0.990   .     S
S1290  O1292   1.503   .     D
S1290  O1291   1.502   .     D
O1293  H1294   0.991   .     S
O1293  S1340   1.684   .     S
C1295  H1296   1.084   .     S
C1295  O1297   1.221   .     D
C1298  H1299   1.084   .     S
C1298  O1300   1.221   .     D
C1301  O1329   1.291   .     A
C1301  C1312   1.448   .     S
C1301  O1327   1.291   .     A
C1302  O1330   1.291   .     A
C1302  C1311   1.448   .     S
C1302  O1328   1.291   .     A
C1303  O1331   1.280   .     A
C1303  O1333   1.293   .     A
C1303  C1305   1.431   .     S
C1304  O1332   1.280   .     A
C1304  O1334   1.293   .     A
C1304  C1306   1.431   .     S
C1306  C1205   1.359   1_655 S
C1306  S1240   1.783   1_655 S
C1307  C1345   1.488   .     S
C1307  C1312   1.411   .     A
C1308  C1348   1.488   .     S
C1308  C1311   1.411   .     A
C1308  C1010   1.392   1_565 S
C1309  C1311   1.400   .     A
C1309  H1319   1.083   .     S
C1309  C1007   1.392   1_565 S
C1310  C1312   1.400   .     A
C1310  H1320   1.083   .     S
C1313  H1321   1.081   .     S
C1313  N1326   1.367   .     A
C1314  H1322   1.081   .     S
C1314  N1325   1.367   .     A
C1314  C416    1.416   1_556 S
C1315  H1323   1.081   .     S
C1315  N1325   1.367   .     A
C1315  C413    1.416   1_556 S
C1316  H1324   1.081   .     S
C1316  N1326   1.367   .     A
Cu1317 N1325   2.015   .     S
Cu1317 Cu1318  2.681   .     S
Cu1317 O1330   1.960   .     S
Cu1317 O1331   1.977   .     S
Cu1317 O1334   1.970   .     S
Cu1317 O1327   1.960   .     S
Cu1318 O1328   1.960   .     S
Cu1318 N1326   2.015   .     S
Cu1318 O1329   1.960   .     S
Cu1318 O1333   1.970   .     S
Cu1318 O1332   1.977   .     S
S1335  O1336   1.502   .     D
S1335  O1337   1.502   .     D
S1335  C1205   1.782   1_655 S
S1335  O1238   1.683   1_655 S
O1338  H1339   0.990   .     S
S1340  O1342   1.503   .     D
S1340  O1341   1.502   .     D
O1343  H1344   0.991   .     S
O1343  S1240   1.684   1_655 S
C1345  H1346   1.084   .     S
C1345  O1347   1.221   .     D
C1348  H1349   1.084   .     S
C1348  O1350   1.221   .     D
