data_str_m2_o1_o17_pcu_sym.232
_audit_creation_date              2020-01-03
_audit_creation_method            'Materials Studio'
_symmetry_space_group_name_H-M    'P1'
_symmetry_Int_Tables_number       1
_symmetry_cell_setting            triclinic
loop_
_symmetry_equiv_pos_as_xyz
  x,y,z
_cell_length_a                    32.8924
_cell_length_b                    28.4748
_cell_length_c                    30.0353
_cell_angle_alpha                 88.9982
_cell_angle_beta                  88.7817
_cell_angle_gamma                 89.5292
loop_
_atom_site_label
_atom_site_type_symbol
_atom_site_fract_x
_atom_site_fract_y
_atom_site_fract_z
_atom_site_U_iso_or_equiv
_atom_site_adp_type
_atom_site_occupancy
C1     C     0.08757   0.16666   0.25558   0.00000  Uiso   1.00
C2     C     0.24625   0.16625   0.25158   0.00000  Uiso   1.00
C3     C     0.09486   0.18687   0.02358   0.00000  Uiso   1.00
C4     C     0.24428   0.17466   0.47603   0.00000  Uiso   1.00
C5     C     0.02178   0.12423   0.27577   0.00000  Uiso   1.00
C6     C     0.31347   0.20738   0.24984   0.00000  Uiso   1.00
C7     C     0.31185   0.12397   0.27407   0.00000  Uiso   1.00
C8     C     0.02075   0.20906   0.26254   0.00000  Uiso   1.00
C9     C     0.29114   0.16526   0.25746   0.00000  Uiso   1.00
C10    C     0.04299   0.16654   0.26506   0.00000  Uiso   1.00
C11    C     0.15121   0.02554   0.21509   0.00000  Uiso   1.00
C12    C     0.18156   0.30780   0.28520   0.00000  Uiso   1.00
C13    C     0.18157   0.02404   0.28516   0.00000  Uiso   1.00
C14    C     0.15110   0.30926   0.21515   0.00000  Uiso   1.00
C15    C     0.16697   0.16709   0.16436   0.00000  Uiso   1.00
C16    C     0.16670   0.16640   0.33567   0.00000  Uiso   1.00
C17    C     0.20485   0.18088   0.40443   0.00000  Uiso   1.00
C18    C     0.13160   0.16221   0.09301   0.00000  Uiso   1.00
C19    C     0.16878   0.16665   0.38414   0.00000  Uiso   1.00
C20    C     0.16786   0.16836   0.11584   0.00000  Uiso   1.00
C21    C     0.13327   0.15913   0.40983   0.00000  Uiso   1.00
C22    C     0.20451   0.17744   0.09236   0.00000  Uiso   1.00
C23    C     0.13285   0.17366   0.45418   0.00000  Uiso   1.00
C24    C     0.20561   0.17072   0.04602   0.00000  Uiso   1.00
C25    C     0.16981   0.17434   0.47642   0.00000  Uiso   1.00
C26    C     0.16877   0.17333   0.02310   0.00000  Uiso   1.00
C27    C     0.20725   0.17745   0.45187   0.00000  Uiso   1.00
C28    C     0.13080   0.17319   0.04683   0.00000  Uiso   1.00
C29    C     0.09736   0.19018   0.47621   0.00000  Uiso   1.00
C30    C     0.24223   0.16244   0.02195   0.00000  Uiso   1.00
Cu31   Cu    0.16667   0.21355   0.25000   0.00000  Uiso   1.00
Cu32   Cu    0.16667   0.11978   0.25000   0.00000  Uiso   1.00
H33    H     0.13846   0.04468   0.18724   0.00000  Uiso   1.00
H34    H     0.19398   0.28870   0.31325   0.00000  Uiso   1.00
H35    H     0.19349   0.04200   0.31332   0.00000  Uiso   1.00
H36    H     0.13835   0.29125   0.18737   0.00000  Uiso   1.00
N37    N     0.16667   0.28402   0.25000   0.00000  Uiso   1.00
N38    N     0.16667   0.04931   0.25000   0.00000  Uiso   1.00
O39    O     0.10655   0.20625   0.25000   0.00000  Uiso   1.00
O40    O     0.22679   0.12709   0.25001   0.00000  Uiso   1.00
O41    O     0.22679   0.20625   0.25001   0.00000  Uiso   1.00
O42    O     0.10655   0.12709   0.25000   0.00000  Uiso   1.00
O43    O     0.16666   0.20627   0.18513   0.00000  Uiso   1.00
O44    O     0.16668   0.12707   0.31487   0.00000  Uiso   1.00
O45    O     0.16668   0.20627   0.31487   0.00000  Uiso   1.00
O46    O     0.16666   0.12707   0.18513   0.00000  Uiso   1.00
Cl47   Cl    0.24372   0.20380   0.36844   0.00000  Uiso   1.00
Cl48   Cl    0.09006   0.13637   0.12270   0.00000  Uiso   1.00
C49    C     0.09806   0.13105   0.39225   0.00000  Uiso   1.00
C50    C     0.10841   0.07858   0.39291   0.00000  Uiso   1.00
H51    H     0.13413   0.07057   0.36979   0.00000  Uiso   1.00
H52    H     0.11664   0.06696   0.42709   0.00000  Uiso   1.00
H53    H     0.08161   0.05812   0.38297   0.00000  Uiso   1.00
H54    H     0.07016   0.13486   0.41326   0.00000  Uiso   1.00
H55    H     0.09023   0.14361   0.35836   0.00000  Uiso   1.00
C56    C     0.23893   0.20267   0.11491   0.00000  Uiso   1.00
C57    C     0.23073   0.25564   0.11496   0.00000  Uiso   1.00
H58    H     0.22763   0.26909   0.08024   0.00000  Uiso   1.00
H59    H     0.20252   0.26417   0.13407   0.00000  Uiso   1.00
H60    H     0.25649   0.27408   0.13006   0.00000  Uiso   1.00
H61    H     0.24263   0.18865   0.14921   0.00000  Uiso   1.00
H62    H     0.26873   0.19802   0.09794   0.00000  Uiso   1.00
C63    C     0.06676   0.21838   0.44875   0.00000  Uiso   1.00
C64    C     0.06755   0.27101   0.45823   0.00000  Uiso   1.00
H65    H     0.05121   0.27934   0.48968   0.00000  Uiso   1.00
H66    H     0.09940   0.28354   0.45959   0.00000  Uiso   1.00
H67    H     0.05207   0.29073   0.43113   0.00000  Uiso   1.00
H68    H     0.07360   0.21614   0.41261   0.00000  Uiso   1.00
H69    H     0.03616   0.20374   0.45334   0.00000  Uiso   1.00
C70    C     0.27546   0.13200   0.04310   0.00000  Uiso   1.00
C71    C     0.28219   0.08603   0.01824   0.00000  Uiso   1.00
H72    H     0.25323   0.06632   0.01701   0.00000  Uiso   1.00
H73    H     0.29378   0.09247   0.48375   0.00000  Uiso   1.00
H74    H     0.30488   0.06396   0.03598   0.00000  Uiso   1.00
H75    H     0.30439   0.15142   0.04523   0.00000  Uiso   1.00
H76    H     0.26678   0.12131   0.07772   0.00000  Uiso   1.00
C77    C     0.05569   0.20165   0.04818   0.00000  Uiso   1.00
C78    C     0.06190   0.24355   0.07860   0.00000  Uiso   1.00
H79    H     0.07828   0.27222   0.06050   0.00000  Uiso   1.00
H80    H     0.03186   0.25716   0.09030   0.00000  Uiso   1.00
H81    H     0.07951   0.23351   0.10836   0.00000  Uiso   1.00
H82    H     0.03118   0.21155   0.02527   0.00000  Uiso   1.00
H83    H     0.04205   0.17180   0.06682   0.00000  Uiso   1.00
C84    C     0.28561   0.18597   0.45545   0.00000  Uiso   1.00
C85    C     0.29093   0.23932   0.45069   0.00000  Uiso   1.00
H86    H     0.26236   0.25731   0.44080   0.00000  Uiso   1.00
H87    H     0.30015   0.25393   0.48299   0.00000  Uiso   1.00
H88    H     0.31470   0.24748   0.42502   0.00000  Uiso   1.00
H89    H     0.31065   0.17304   0.47625   0.00000  Uiso   1.00
H90    H     0.29106   0.16702   0.42406   0.00000  Uiso   1.00
C91    C     0.04486   0.08080   0.29272   0.00000  Uiso   1.00
C92    C     0.05190   0.04493   0.25590   0.00000  Uiso   1.00
H93    H     0.06564   0.06150   0.22556   0.00000  Uiso   1.00
H94    H     0.07281   0.01700   0.26797   0.00000  Uiso   1.00
H95    H     0.02309   0.02881   0.24596   0.00000  Uiso   1.00
H96    H     0.07427   0.08977   0.30703   0.00000  Uiso   1.00
H97    H     0.02976   0.06455   0.32242   0.00000  Uiso   1.00
C98    C     0.29824   0.24707   0.21951   0.00000  Uiso   1.00
C99    C     0.27596   0.28689   0.24385   0.00000  Uiso   1.00
H100   H     0.24766   0.29608   0.22614   0.00000  Uiso   1.00
H101   H     0.26840   0.27712   0.27901   0.00000  Uiso   1.00
H102   H     0.29475   0.31897   0.24326   0.00000  Uiso   1.00
H103   H     0.32406   0.26214   0.19961   0.00000  Uiso   1.00
H104   H     0.27837   0.23246   0.19423   0.00000  Uiso   1.00
C105   C     0.28871   0.08009   0.29089   0.00000  Uiso   1.00
C106   C     0.26870   0.08799   0.33645   0.00000  Uiso   1.00
H107   H     0.29123   0.10166   0.35993   0.00000  Uiso   1.00
H108   H     0.24313   0.11315   0.33378   0.00000  Uiso   1.00
H109   H     0.25678   0.05428   0.35028   0.00000  Uiso   1.00
H110   H     0.26726   0.06680   0.26644   0.00000  Uiso   1.00
H111   H     0.30774   0.04849   0.29472   0.00000  Uiso   1.00
C112   C     0.03856   0.25606   0.27577   0.00000  Uiso   1.00
C113   C     0.05489   0.25432   0.32314   0.00000  Uiso   1.00
H114   H     0.08042   0.22897   0.32644   0.00000  Uiso   1.00
H115   H     0.06600   0.28957   0.33210   0.00000  Uiso   1.00
H116   H     0.03020   0.24408   0.34712   0.00000  Uiso   1.00
H117   H     0.06168   0.26880   0.25121   0.00000  Uiso   1.00
H118   H     0.01499   0.28374   0.27647   0.00000  Uiso   1.00
C119   C     0.42091   0.16666   0.25558   0.00000  Uiso   1.00
C120   C     0.57958   0.16625   0.25158   0.00000  Uiso   1.00
C121   C     0.42819   0.18687   0.02358   0.00000  Uiso   1.00
C122   C     0.57761   0.17466   0.47603   0.00000  Uiso   1.00
C123   C     0.35511   0.12423   0.27577   0.00000  Uiso   1.00
C124   C     0.64680   0.20738   0.24984   0.00000  Uiso   1.00
C125   C     0.64519   0.12397   0.27407   0.00000  Uiso   1.00
C126   C     0.35408   0.20906   0.26254   0.00000  Uiso   1.00
C127   C     0.62448   0.16526   0.25746   0.00000  Uiso   1.00
C128   C     0.37632   0.16654   0.26506   0.00000  Uiso   1.00
C129   C     0.48455   0.02554   0.21509   0.00000  Uiso   1.00
C130   C     0.51489   0.30780   0.28520   0.00000  Uiso   1.00
C131   C     0.51491   0.02404   0.28516   0.00000  Uiso   1.00
C132   C     0.48443   0.30926   0.21515   0.00000  Uiso   1.00
C133   C     0.50031   0.16709   0.16436   0.00000  Uiso   1.00
C134   C     0.50003   0.16640   0.33567   0.00000  Uiso   1.00
C135   C     0.53819   0.18088   0.40443   0.00000  Uiso   1.00
C136   C     0.46493   0.16221   0.09301   0.00000  Uiso   1.00
C137   C     0.50211   0.16665   0.38414   0.00000  Uiso   1.00
C138   C     0.50119   0.16836   0.11584   0.00000  Uiso   1.00
C139   C     0.46660   0.15913   0.40983   0.00000  Uiso   1.00
C140   C     0.53785   0.17744   0.09236   0.00000  Uiso   1.00
C141   C     0.46618   0.17366   0.45418   0.00000  Uiso   1.00
C142   C     0.53894   0.17072   0.04602   0.00000  Uiso   1.00
C143   C     0.50314   0.17434   0.47642   0.00000  Uiso   1.00
C144   C     0.50210   0.17333   0.02310   0.00000  Uiso   1.00
C145   C     0.54059   0.17745   0.45187   0.00000  Uiso   1.00
C146   C     0.46413   0.17319   0.04683   0.00000  Uiso   1.00
C147   C     0.43069   0.19018   0.47621   0.00000  Uiso   1.00
C148   C     0.57556   0.16244   0.02195   0.00000  Uiso   1.00
Cu149  Cu    0.50000   0.21355   0.25000   0.00000  Uiso   1.00
Cu150  Cu    0.50000   0.11978   0.25000   0.00000  Uiso   1.00
H151   H     0.47179   0.04468   0.18724   0.00000  Uiso   1.00
H152   H     0.52732   0.28870   0.31325   0.00000  Uiso   1.00
H153   H     0.52682   0.04200   0.31332   0.00000  Uiso   1.00
H154   H     0.47169   0.29125   0.18737   0.00000  Uiso   1.00
N155   N     0.50000   0.28402   0.25000   0.00000  Uiso   1.00
N156   N     0.50000   0.04931   0.25000   0.00000  Uiso   1.00
O157   O     0.43988   0.20625   0.25000   0.00000  Uiso   1.00
O158   O     0.56012   0.12709   0.25001   0.00000  Uiso   1.00
O159   O     0.56012   0.20625   0.25001   0.00000  Uiso   1.00
O160   O     0.43988   0.12709   0.25000   0.00000  Uiso   1.00
O161   O     0.49999   0.20627   0.18513   0.00000  Uiso   1.00
O162   O     0.50001   0.12707   0.31487   0.00000  Uiso   1.00
O163   O     0.50001   0.20627   0.31487   0.00000  Uiso   1.00
O164   O     0.49999   0.12707   0.18513   0.00000  Uiso   1.00
Cl165  Cl    0.57706   0.20380   0.36844   0.00000  Uiso   1.00
Cl166  Cl    0.42339   0.13637   0.12270   0.00000  Uiso   1.00
C167   C     0.43139   0.13105   0.39225   0.00000  Uiso   1.00
C168   C     0.44174   0.07858   0.39291   0.00000  Uiso   1.00
H169   H     0.46746   0.07057   0.36979   0.00000  Uiso   1.00
H170   H     0.44997   0.06696   0.42709   0.00000  Uiso   1.00
H171   H     0.41494   0.05812   0.38297   0.00000  Uiso   1.00
H172   H     0.40349   0.13486   0.41326   0.00000  Uiso   1.00
H173   H     0.42357   0.14361   0.35836   0.00000  Uiso   1.00
C174   C     0.57227   0.20267   0.11491   0.00000  Uiso   1.00
C175   C     0.56406   0.25564   0.11496   0.00000  Uiso   1.00
H176   H     0.56096   0.26909   0.08024   0.00000  Uiso   1.00
H177   H     0.53585   0.26417   0.13407   0.00000  Uiso   1.00
H178   H     0.58982   0.27408   0.13006   0.00000  Uiso   1.00
H179   H     0.57597   0.18865   0.14921   0.00000  Uiso   1.00
H180   H     0.60207   0.19802   0.09794   0.00000  Uiso   1.00
C181   C     0.40010   0.21838   0.44875   0.00000  Uiso   1.00
C182   C     0.40089   0.27101   0.45823   0.00000  Uiso   1.00
H183   H     0.38455   0.27934   0.48968   0.00000  Uiso   1.00
H184   H     0.43273   0.28354   0.45959   0.00000  Uiso   1.00
H185   H     0.38540   0.29073   0.43113   0.00000  Uiso   1.00
H186   H     0.40693   0.21614   0.41261   0.00000  Uiso   1.00
H187   H     0.36949   0.20374   0.45334   0.00000  Uiso   1.00
C188   C     0.60879   0.13200   0.04310   0.00000  Uiso   1.00
C189   C     0.61552   0.08603   0.01824   0.00000  Uiso   1.00
H190   H     0.58656   0.06632   0.01701   0.00000  Uiso   1.00
H191   H     0.62711   0.09247   0.48375   0.00000  Uiso   1.00
H192   H     0.63821   0.06396   0.03598   0.00000  Uiso   1.00
H193   H     0.63773   0.15142   0.04523   0.00000  Uiso   1.00
H194   H     0.60011   0.12131   0.07772   0.00000  Uiso   1.00
C195   C     0.38902   0.20165   0.04818   0.00000  Uiso   1.00
C196   C     0.39524   0.24355   0.07860   0.00000  Uiso   1.00
H197   H     0.41161   0.27222   0.06050   0.00000  Uiso   1.00
H198   H     0.36519   0.25716   0.09030   0.00000  Uiso   1.00
H199   H     0.41284   0.23351   0.10836   0.00000  Uiso   1.00
H200   H     0.36451   0.21155   0.02527   0.00000  Uiso   1.00
H201   H     0.37538   0.17180   0.06682   0.00000  Uiso   1.00
C202   C     0.61895   0.18597   0.45545   0.00000  Uiso   1.00
C203   C     0.62426   0.23932   0.45069   0.00000  Uiso   1.00
H204   H     0.59569   0.25731   0.44080   0.00000  Uiso   1.00
H205   H     0.63348   0.25393   0.48299   0.00000  Uiso   1.00
H206   H     0.64803   0.24748   0.42502   0.00000  Uiso   1.00
H207   H     0.64398   0.17304   0.47625   0.00000  Uiso   1.00
H208   H     0.62439   0.16702   0.42406   0.00000  Uiso   1.00
C209   C     0.37819   0.08080   0.29272   0.00000  Uiso   1.00
C210   C     0.38523   0.04493   0.25590   0.00000  Uiso   1.00
H211   H     0.39898   0.06150   0.22556   0.00000  Uiso   1.00
H212   H     0.40615   0.01700   0.26797   0.00000  Uiso   1.00
H213   H     0.35642   0.02881   0.24596   0.00000  Uiso   1.00
H214   H     0.40760   0.08977   0.30703   0.00000  Uiso   1.00
H215   H     0.36309   0.06455   0.32242   0.00000  Uiso   1.00
C216   C     0.63157   0.24707   0.21951   0.00000  Uiso   1.00
C217   C     0.60929   0.28689   0.24385   0.00000  Uiso   1.00
H218   H     0.58099   0.29608   0.22614   0.00000  Uiso   1.00
H219   H     0.60174   0.27712   0.27901   0.00000  Uiso   1.00
H220   H     0.62808   0.31897   0.24326   0.00000  Uiso   1.00
H221   H     0.65739   0.26214   0.19961   0.00000  Uiso   1.00
H222   H     0.61171   0.23246   0.19423   0.00000  Uiso   1.00
C223   C     0.62205   0.08009   0.29089   0.00000  Uiso   1.00
C224   C     0.60203   0.08799   0.33645   0.00000  Uiso   1.00
H225   H     0.62456   0.10166   0.35993   0.00000  Uiso   1.00
H226   H     0.57646   0.11315   0.33378   0.00000  Uiso   1.00
H227   H     0.59012   0.05428   0.35028   0.00000  Uiso   1.00
H228   H     0.60059   0.06680   0.26644   0.00000  Uiso   1.00
H229   H     0.64107   0.04849   0.29472   0.00000  Uiso   1.00
C230   C     0.37190   0.25606   0.27577   0.00000  Uiso   1.00
C231   C     0.38822   0.25432   0.32314   0.00000  Uiso   1.00
H232   H     0.41375   0.22897   0.32644   0.00000  Uiso   1.00
H233   H     0.39934   0.28957   0.33210   0.00000  Uiso   1.00
H234   H     0.36353   0.24408   0.34712   0.00000  Uiso   1.00
H235   H     0.39502   0.26880   0.25121   0.00000  Uiso   1.00
H236   H     0.34833   0.28374   0.27647   0.00000  Uiso   1.00
C237   C     0.75424   0.16666   0.25558   0.00000  Uiso   1.00
C238   C     0.91291   0.16625   0.25158   0.00000  Uiso   1.00
C239   C     0.76152   0.18687   0.02358   0.00000  Uiso   1.00
C240   C     0.91095   0.17466   0.47603   0.00000  Uiso   1.00
C241   C     0.68844   0.12423   0.27577   0.00000  Uiso   1.00
C242   C     0.98013   0.20738   0.24984   0.00000  Uiso   1.00
C243   C     0.97852   0.12397   0.27407   0.00000  Uiso   1.00
C244   C     0.68742   0.20906   0.26254   0.00000  Uiso   1.00
C245   C     0.95781   0.16526   0.25746   0.00000  Uiso   1.00
C246   C     0.70966   0.16654   0.26506   0.00000  Uiso   1.00
C247   C     0.81788   0.02554   0.21509   0.00000  Uiso   1.00
C248   C     0.84822   0.30780   0.28520   0.00000  Uiso   1.00
C249   C     0.84824   0.02404   0.28516   0.00000  Uiso   1.00
C250   C     0.81777   0.30926   0.21515   0.00000  Uiso   1.00
C251   C     0.83364   0.16709   0.16436   0.00000  Uiso   1.00
C252   C     0.83336   0.16640   0.33567   0.00000  Uiso   1.00
C253   C     0.87152   0.18088   0.40443   0.00000  Uiso   1.00
C254   C     0.79826   0.16221   0.09301   0.00000  Uiso   1.00
C255   C     0.83544   0.16665   0.38414   0.00000  Uiso   1.00
C256   C     0.83453   0.16836   0.11584   0.00000  Uiso   1.00
C257   C     0.79993   0.15913   0.40983   0.00000  Uiso   1.00
C258   C     0.87118   0.17744   0.09236   0.00000  Uiso   1.00
C259   C     0.79952   0.17366   0.45418   0.00000  Uiso   1.00
C260   C     0.87228   0.17072   0.04602   0.00000  Uiso   1.00
C261   C     0.83647   0.17434   0.47642   0.00000  Uiso   1.00
C262   C     0.83543   0.17333   0.02310   0.00000  Uiso   1.00
C263   C     0.87392   0.17745   0.45187   0.00000  Uiso   1.00
C264   C     0.79746   0.17319   0.04683   0.00000  Uiso   1.00
C265   C     0.76402   0.19018   0.47621   0.00000  Uiso   1.00
C266   C     0.90889   0.16244   0.02195   0.00000  Uiso   1.00
Cu267  Cu    0.83333   0.21355   0.25000   0.00000  Uiso   1.00
Cu268  Cu    0.83333   0.11978   0.25000   0.00000  Uiso   1.00
H269   H     0.80513   0.04468   0.18724   0.00000  Uiso   1.00
H270   H     0.86065   0.28870   0.31325   0.00000  Uiso   1.00
H271   H     0.86016   0.04200   0.31332   0.00000  Uiso   1.00
H272   H     0.80502   0.29125   0.18737   0.00000  Uiso   1.00
N273   N     0.83333   0.28402   0.25000   0.00000  Uiso   1.00
N274   N     0.83333   0.04931   0.25000   0.00000  Uiso   1.00
O275   O     0.77321   0.20625   0.25000   0.00000  Uiso   1.00
O276   O     0.89345   0.12709   0.25001   0.00000  Uiso   1.00
O277   O     0.89345   0.20625   0.25001   0.00000  Uiso   1.00
O278   O     0.77321   0.12709   0.25000   0.00000  Uiso   1.00
O279   O     0.83332   0.20627   0.18513   0.00000  Uiso   1.00
O280   O     0.83334   0.12707   0.31487   0.00000  Uiso   1.00
O281   O     0.83334   0.20627   0.31487   0.00000  Uiso   1.00
O282   O     0.83332   0.12707   0.18513   0.00000  Uiso   1.00
Cl283  Cl    0.91039   0.20380   0.36844   0.00000  Uiso   1.00
Cl284  Cl    0.75673   0.13637   0.12270   0.00000  Uiso   1.00
C285   C     0.76473   0.13105   0.39225   0.00000  Uiso   1.00
C286   C     0.77508   0.07858   0.39291   0.00000  Uiso   1.00
H287   H     0.80079   0.07057   0.36979   0.00000  Uiso   1.00
H288   H     0.78331   0.06696   0.42709   0.00000  Uiso   1.00
H289   H     0.74828   0.05812   0.38297   0.00000  Uiso   1.00
H290   H     0.73683   0.13486   0.41326   0.00000  Uiso   1.00
H291   H     0.75690   0.14361   0.35836   0.00000  Uiso   1.00
C292   C     0.90560   0.20267   0.11491   0.00000  Uiso   1.00
C293   C     0.89740   0.25564   0.11496   0.00000  Uiso   1.00
H294   H     0.89430   0.26909   0.08024   0.00000  Uiso   1.00
H295   H     0.86919   0.26417   0.13407   0.00000  Uiso   1.00
H296   H     0.92315   0.27408   0.13006   0.00000  Uiso   1.00
H297   H     0.90930   0.18865   0.14921   0.00000  Uiso   1.00
H298   H     0.93540   0.19802   0.09794   0.00000  Uiso   1.00
C299   C     0.73343   0.21838   0.44875   0.00000  Uiso   1.00
C300   C     0.73422   0.27101   0.45823   0.00000  Uiso   1.00
H301   H     0.71788   0.27934   0.48968   0.00000  Uiso   1.00
H302   H     0.76606   0.28354   0.45959   0.00000  Uiso   1.00
H303   H     0.71874   0.29073   0.43113   0.00000  Uiso   1.00
H304   H     0.74026   0.21614   0.41261   0.00000  Uiso   1.00
H305   H     0.70282   0.20374   0.45334   0.00000  Uiso   1.00
C306   C     0.94212   0.13200   0.04310   0.00000  Uiso   1.00
C307   C     0.94886   0.08603   0.01824   0.00000  Uiso   1.00
H308   H     0.91990   0.06632   0.01701   0.00000  Uiso   1.00
H309   H     0.96045   0.09247   0.48375   0.00000  Uiso   1.00
H310   H     0.97155   0.06396   0.03598   0.00000  Uiso   1.00
H311   H     0.97106   0.15142   0.04523   0.00000  Uiso   1.00
H312   H     0.93345   0.12131   0.07772   0.00000  Uiso   1.00
C313   C     0.72235   0.20165   0.04818   0.00000  Uiso   1.00
C314   C     0.72857   0.24355   0.07860   0.00000  Uiso   1.00
H315   H     0.74494   0.27222   0.06050   0.00000  Uiso   1.00
H316   H     0.69852   0.25716   0.09030   0.00000  Uiso   1.00
H317   H     0.74618   0.23351   0.10836   0.00000  Uiso   1.00
H318   H     0.69784   0.21155   0.02527   0.00000  Uiso   1.00
H319   H     0.70871   0.17180   0.06682   0.00000  Uiso   1.00
C320   C     0.95228   0.18597   0.45545   0.00000  Uiso   1.00
C321   C     0.95760   0.23932   0.45069   0.00000  Uiso   1.00
H322   H     0.92902   0.25731   0.44080   0.00000  Uiso   1.00
H323   H     0.96681   0.25393   0.48299   0.00000  Uiso   1.00
H324   H     0.98137   0.24748   0.42502   0.00000  Uiso   1.00
H325   H     0.97732   0.17304   0.47625   0.00000  Uiso   1.00
H326   H     0.95772   0.16702   0.42406   0.00000  Uiso   1.00
C327   C     0.71152   0.08080   0.29272   0.00000  Uiso   1.00
C328   C     0.71856   0.04493   0.25590   0.00000  Uiso   1.00
H329   H     0.73231   0.06150   0.22556   0.00000  Uiso   1.00
H330   H     0.73948   0.01700   0.26797   0.00000  Uiso   1.00
H331   H     0.68976   0.02881   0.24596   0.00000  Uiso   1.00
H332   H     0.74094   0.08977   0.30703   0.00000  Uiso   1.00
H333   H     0.69643   0.06455   0.32242   0.00000  Uiso   1.00
C334   C     0.96490   0.24707   0.21951   0.00000  Uiso   1.00
C335   C     0.94263   0.28689   0.24385   0.00000  Uiso   1.00
H336   H     0.91433   0.29608   0.22614   0.00000  Uiso   1.00
H337   H     0.93507   0.27712   0.27901   0.00000  Uiso   1.00
H338   H     0.96142   0.31897   0.24326   0.00000  Uiso   1.00
H339   H     0.99073   0.26214   0.19961   0.00000  Uiso   1.00
H340   H     0.94504   0.23246   0.19423   0.00000  Uiso   1.00
C341   C     0.95538   0.08009   0.29089   0.00000  Uiso   1.00
C342   C     0.93536   0.08799   0.33645   0.00000  Uiso   1.00
H343   H     0.95789   0.10166   0.35993   0.00000  Uiso   1.00
H344   H     0.90980   0.11315   0.33378   0.00000  Uiso   1.00
H345   H     0.92345   0.05428   0.35028   0.00000  Uiso   1.00
H346   H     0.93392   0.06680   0.26644   0.00000  Uiso   1.00
H347   H     0.97440   0.04849   0.29472   0.00000  Uiso   1.00
C348   C     0.70523   0.25606   0.27577   0.00000  Uiso   1.00
C349   C     0.72155   0.25432   0.32314   0.00000  Uiso   1.00
H350   H     0.74709   0.22897   0.32644   0.00000  Uiso   1.00
H351   H     0.73267   0.28957   0.33210   0.00000  Uiso   1.00
H352   H     0.69687   0.24408   0.34712   0.00000  Uiso   1.00
H353   H     0.72835   0.26880   0.25121   0.00000  Uiso   1.00
H354   H     0.68166   0.28374   0.27647   0.00000  Uiso   1.00
C355   C     0.08757   0.49999   0.25558   0.00000  Uiso   1.00
C356   C     0.24625   0.49958   0.25158   0.00000  Uiso   1.00
C357   C     0.09486   0.52020   0.02358   0.00000  Uiso   1.00
C358   C     0.24428   0.50799   0.47603   0.00000  Uiso   1.00
C359   C     0.02178   0.45757   0.27577   0.00000  Uiso   1.00
C360   C     0.31347   0.54071   0.24984   0.00000  Uiso   1.00
C361   C     0.31185   0.45730   0.27407   0.00000  Uiso   1.00
C362   C     0.02075   0.54240   0.26254   0.00000  Uiso   1.00
C363   C     0.29114   0.49860   0.25746   0.00000  Uiso   1.00
C364   C     0.04299   0.49987   0.26506   0.00000  Uiso   1.00
C365   C     0.15121   0.35887   0.21509   0.00000  Uiso   1.00
C366   C     0.18156   0.64113   0.28520   0.00000  Uiso   1.00
C367   C     0.18157   0.35737   0.28516   0.00000  Uiso   1.00
C368   C     0.15110   0.64260   0.21515   0.00000  Uiso   1.00
C369   C     0.16697   0.50042   0.16436   0.00000  Uiso   1.00
C370   C     0.16670   0.49973   0.33567   0.00000  Uiso   1.00
C371   C     0.20485   0.51421   0.40443   0.00000  Uiso   1.00
C372   C     0.13160   0.49554   0.09301   0.00000  Uiso   1.00
C373   C     0.16878   0.49998   0.38414   0.00000  Uiso   1.00
C374   C     0.16786   0.50169   0.11584   0.00000  Uiso   1.00
C375   C     0.13327   0.49246   0.40983   0.00000  Uiso   1.00
C376   C     0.20451   0.51077   0.09236   0.00000  Uiso   1.00
C377   C     0.13285   0.50699   0.45418   0.00000  Uiso   1.00
C378   C     0.20561   0.50406   0.04602   0.00000  Uiso   1.00
C379   C     0.16981   0.50767   0.47642   0.00000  Uiso   1.00
C380   C     0.16877   0.50666   0.02310   0.00000  Uiso   1.00
C381   C     0.20725   0.51078   0.45187   0.00000  Uiso   1.00
C382   C     0.13080   0.50652   0.04683   0.00000  Uiso   1.00
C383   C     0.09736   0.52352   0.47621   0.00000  Uiso   1.00
C384   C     0.24223   0.49577   0.02195   0.00000  Uiso   1.00
Cu385  Cu    0.16667   0.54689   0.25000   0.00000  Uiso   1.00
Cu386  Cu    0.16667   0.45311   0.25000   0.00000  Uiso   1.00
H387   H     0.13846   0.37801   0.18724   0.00000  Uiso   1.00
H388   H     0.19398   0.62203   0.31325   0.00000  Uiso   1.00
H389   H     0.19349   0.37533   0.31332   0.00000  Uiso   1.00
H390   H     0.13835   0.62458   0.18737   0.00000  Uiso   1.00
N391   N     0.16667   0.61736   0.25000   0.00000  Uiso   1.00
N392   N     0.16667   0.38264   0.25000   0.00000  Uiso   1.00
O393   O     0.10655   0.53958   0.25000   0.00000  Uiso   1.00
O394   O     0.22679   0.46042   0.25001   0.00000  Uiso   1.00
O395   O     0.22679   0.53958   0.25001   0.00000  Uiso   1.00
O396   O     0.10655   0.46042   0.25000   0.00000  Uiso   1.00
O397   O     0.16666   0.53960   0.18513   0.00000  Uiso   1.00
O398   O     0.16668   0.46040   0.31487   0.00000  Uiso   1.00
O399   O     0.16668   0.53960   0.31487   0.00000  Uiso   1.00
O400   O     0.16666   0.46040   0.18513   0.00000  Uiso   1.00
Cl401  Cl    0.24372   0.53713   0.36844   0.00000  Uiso   1.00
Cl402  Cl    0.09006   0.46970   0.12270   0.00000  Uiso   1.00
C403   C     0.09806   0.46438   0.39225   0.00000  Uiso   1.00
C404   C     0.10841   0.41191   0.39291   0.00000  Uiso   1.00
H405   H     0.13413   0.40391   0.36979   0.00000  Uiso   1.00
H406   H     0.11664   0.40029   0.42709   0.00000  Uiso   1.00
H407   H     0.08161   0.39146   0.38297   0.00000  Uiso   1.00
H408   H     0.07016   0.46820   0.41326   0.00000  Uiso   1.00
H409   H     0.09023   0.47694   0.35836   0.00000  Uiso   1.00
C410   C     0.23893   0.53601   0.11491   0.00000  Uiso   1.00
C411   C     0.23073   0.58897   0.11496   0.00000  Uiso   1.00
H412   H     0.22763   0.60243   0.08024   0.00000  Uiso   1.00
H413   H     0.20252   0.59750   0.13407   0.00000  Uiso   1.00
H414   H     0.25649   0.60741   0.13006   0.00000  Uiso   1.00
H415   H     0.24263   0.52199   0.14921   0.00000  Uiso   1.00
H416   H     0.26873   0.53136   0.09794   0.00000  Uiso   1.00
C417   C     0.06676   0.55171   0.44875   0.00000  Uiso   1.00
C418   C     0.06755   0.60434   0.45823   0.00000  Uiso   1.00
H419   H     0.05121   0.61267   0.48968   0.00000  Uiso   1.00
H420   H     0.09940   0.61687   0.45959   0.00000  Uiso   1.00
H421   H     0.05207   0.62406   0.43113   0.00000  Uiso   1.00
H422   H     0.07360   0.54948   0.41261   0.00000  Uiso   1.00
H423   H     0.03616   0.53707   0.45334   0.00000  Uiso   1.00
C424   C     0.27546   0.46533   0.04310   0.00000  Uiso   1.00
C425   C     0.28219   0.41936   0.01824   0.00000  Uiso   1.00
H426   H     0.25323   0.39966   0.01701   0.00000  Uiso   1.00
H427   H     0.29378   0.42580   0.48375   0.00000  Uiso   1.00
H428   H     0.30488   0.39730   0.03598   0.00000  Uiso   1.00
H429   H     0.30439   0.48476   0.04523   0.00000  Uiso   1.00
H430   H     0.26678   0.45464   0.07772   0.00000  Uiso   1.00
C431   C     0.05569   0.53498   0.04818   0.00000  Uiso   1.00
C432   C     0.06190   0.57689   0.07860   0.00000  Uiso   1.00
H433   H     0.07828   0.60555   0.06050   0.00000  Uiso   1.00
H434   H     0.03186   0.59049   0.09030   0.00000  Uiso   1.00
H435   H     0.07951   0.56685   0.10836   0.00000  Uiso   1.00
H436   H     0.03118   0.54488   0.02527   0.00000  Uiso   1.00
H437   H     0.04205   0.50513   0.06682   0.00000  Uiso   1.00
C438   C     0.28561   0.51930   0.45545   0.00000  Uiso   1.00
C439   C     0.29093   0.57265   0.45069   0.00000  Uiso   1.00
H440   H     0.26236   0.59064   0.44080   0.00000  Uiso   1.00
H441   H     0.30015   0.58726   0.48299   0.00000  Uiso   1.00
H442   H     0.31470   0.58081   0.42502   0.00000  Uiso   1.00
H443   H     0.31065   0.50637   0.47625   0.00000  Uiso   1.00
H444   H     0.29106   0.50035   0.42406   0.00000  Uiso   1.00
C445   C     0.04486   0.41414   0.29272   0.00000  Uiso   1.00
C446   C     0.05190   0.37826   0.25590   0.00000  Uiso   1.00
H447   H     0.06564   0.39483   0.22556   0.00000  Uiso   1.00
H448   H     0.07281   0.35034   0.26797   0.00000  Uiso   1.00
H449   H     0.02309   0.36214   0.24596   0.00000  Uiso   1.00
H450   H     0.07427   0.42311   0.30703   0.00000  Uiso   1.00
H451   H     0.02976   0.39789   0.32242   0.00000  Uiso   1.00
C452   C     0.29824   0.58040   0.21951   0.00000  Uiso   1.00
C453   C     0.27596   0.62023   0.24385   0.00000  Uiso   1.00
H454   H     0.24766   0.62942   0.22614   0.00000  Uiso   1.00
H455   H     0.26840   0.61046   0.27901   0.00000  Uiso   1.00
H456   H     0.29475   0.65230   0.24326   0.00000  Uiso   1.00
H457   H     0.32406   0.59548   0.19961   0.00000  Uiso   1.00
H458   H     0.27837   0.56580   0.19423   0.00000  Uiso   1.00
C459   C     0.28871   0.41342   0.29089   0.00000  Uiso   1.00
C460   C     0.26870   0.42133   0.33645   0.00000  Uiso   1.00
H461   H     0.29123   0.43499   0.35993   0.00000  Uiso   1.00
H462   H     0.24313   0.44648   0.33378   0.00000  Uiso   1.00
H463   H     0.25678   0.38762   0.35028   0.00000  Uiso   1.00
H464   H     0.26726   0.40014   0.26644   0.00000  Uiso   1.00
H465   H     0.30774   0.38182   0.29472   0.00000  Uiso   1.00
C466   C     0.03856   0.58939   0.27577   0.00000  Uiso   1.00
C467   C     0.05489   0.58765   0.32314   0.00000  Uiso   1.00
H468   H     0.08042   0.56231   0.32644   0.00000  Uiso   1.00
H469   H     0.06600   0.62290   0.33210   0.00000  Uiso   1.00
H470   H     0.03020   0.57742   0.34712   0.00000  Uiso   1.00
H471   H     0.06168   0.60213   0.25121   0.00000  Uiso   1.00
H472   H     0.01499   0.61707   0.27647   0.00000  Uiso   1.00
C473   C     0.42091   0.49999   0.25558   0.00000  Uiso   1.00
C474   C     0.57958   0.49958   0.25158   0.00000  Uiso   1.00
C475   C     0.42819   0.52020   0.02358   0.00000  Uiso   1.00
C476   C     0.57761   0.50799   0.47603   0.00000  Uiso   1.00
C477   C     0.35511   0.45757   0.27577   0.00000  Uiso   1.00
C478   C     0.64680   0.54071   0.24984   0.00000  Uiso   1.00
C479   C     0.64519   0.45730   0.27407   0.00000  Uiso   1.00
C480   C     0.35408   0.54240   0.26254   0.00000  Uiso   1.00
C481   C     0.62448   0.49860   0.25746   0.00000  Uiso   1.00
C482   C     0.37632   0.49987   0.26506   0.00000  Uiso   1.00
C483   C     0.48455   0.35887   0.21509   0.00000  Uiso   1.00
C484   C     0.51489   0.64113   0.28520   0.00000  Uiso   1.00
C485   C     0.51491   0.35737   0.28516   0.00000  Uiso   1.00
C486   C     0.48443   0.64260   0.21515   0.00000  Uiso   1.00
C487   C     0.50031   0.50042   0.16436   0.00000  Uiso   1.00
C488   C     0.50003   0.49973   0.33567   0.00000  Uiso   1.00
C489   C     0.53819   0.51421   0.40443   0.00000  Uiso   1.00
C490   C     0.46493   0.49554   0.09301   0.00000  Uiso   1.00
C491   C     0.50211   0.49998   0.38414   0.00000  Uiso   1.00
C492   C     0.50119   0.50169   0.11584   0.00000  Uiso   1.00
C493   C     0.46660   0.49246   0.40983   0.00000  Uiso   1.00
C494   C     0.53785   0.51077   0.09236   0.00000  Uiso   1.00
C495   C     0.46618   0.50699   0.45418   0.00000  Uiso   1.00
C496   C     0.53894   0.50406   0.04602   0.00000  Uiso   1.00
C497   C     0.50314   0.50767   0.47642   0.00000  Uiso   1.00
C498   C     0.50210   0.50666   0.02310   0.00000  Uiso   1.00
C499   C     0.54059   0.51078   0.45187   0.00000  Uiso   1.00
C500   C     0.46413   0.50652   0.04683   0.00000  Uiso   1.00
C501   C     0.43069   0.52352   0.47621   0.00000  Uiso   1.00
C502   C     0.57556   0.49577   0.02195   0.00000  Uiso   1.00
Cu503  Cu    0.50000   0.54689   0.25000   0.00000  Uiso   1.00
Cu504  Cu    0.50000   0.45311   0.25000   0.00000  Uiso   1.00
H505   H     0.47179   0.37801   0.18724   0.00000  Uiso   1.00
H506   H     0.52732   0.62203   0.31325   0.00000  Uiso   1.00
H507   H     0.52682   0.37533   0.31332   0.00000  Uiso   1.00
H508   H     0.47169   0.62458   0.18737   0.00000  Uiso   1.00
N509   N     0.50000   0.61736   0.25000   0.00000  Uiso   1.00
N510   N     0.50000   0.38264   0.25000   0.00000  Uiso   1.00
O511   O     0.43988   0.53958   0.25000   0.00000  Uiso   1.00
O512   O     0.56012   0.46042   0.25001   0.00000  Uiso   1.00
O513   O     0.56012   0.53958   0.25001   0.00000  Uiso   1.00
O514   O     0.43988   0.46042   0.25000   0.00000  Uiso   1.00
O515   O     0.49999   0.53960   0.18513   0.00000  Uiso   1.00
O516   O     0.50001   0.46040   0.31487   0.00000  Uiso   1.00
O517   O     0.50001   0.53960   0.31487   0.00000  Uiso   1.00
O518   O     0.49999   0.46040   0.18513   0.00000  Uiso   1.00
Cl519  Cl    0.57706   0.53713   0.36844   0.00000  Uiso   1.00
Cl520  Cl    0.42339   0.46970   0.12270   0.00000  Uiso   1.00
C521   C     0.43139   0.46438   0.39225   0.00000  Uiso   1.00
C522   C     0.44174   0.41191   0.39291   0.00000  Uiso   1.00
H523   H     0.46746   0.40391   0.36979   0.00000  Uiso   1.00
H524   H     0.44997   0.40029   0.42709   0.00000  Uiso   1.00
H525   H     0.41494   0.39146   0.38297   0.00000  Uiso   1.00
H526   H     0.40349   0.46820   0.41326   0.00000  Uiso   1.00
H527   H     0.42357   0.47694   0.35836   0.00000  Uiso   1.00
C528   C     0.57227   0.53601   0.11491   0.00000  Uiso   1.00
C529   C     0.56406   0.58897   0.11496   0.00000  Uiso   1.00
H530   H     0.56096   0.60243   0.08024   0.00000  Uiso   1.00
H531   H     0.53585   0.59750   0.13407   0.00000  Uiso   1.00
H532   H     0.58982   0.60741   0.13006   0.00000  Uiso   1.00
H533   H     0.57597   0.52199   0.14921   0.00000  Uiso   1.00
H534   H     0.60207   0.53136   0.09794   0.00000  Uiso   1.00
C535   C     0.40010   0.55171   0.44875   0.00000  Uiso   1.00
C536   C     0.40089   0.60434   0.45823   0.00000  Uiso   1.00
H537   H     0.38455   0.61267   0.48968   0.00000  Uiso   1.00
H538   H     0.43273   0.61687   0.45959   0.00000  Uiso   1.00
H539   H     0.38540   0.62406   0.43113   0.00000  Uiso   1.00
H540   H     0.40693   0.54948   0.41261   0.00000  Uiso   1.00
H541   H     0.36949   0.53707   0.45334   0.00000  Uiso   1.00
C542   C     0.60879   0.46533   0.04310   0.00000  Uiso   1.00
C543   C     0.61552   0.41936   0.01824   0.00000  Uiso   1.00
H544   H     0.58656   0.39966   0.01701   0.00000  Uiso   1.00
H545   H     0.62711   0.42580   0.48375   0.00000  Uiso   1.00
H546   H     0.63821   0.39730   0.03598   0.00000  Uiso   1.00
H547   H     0.63773   0.48476   0.04523   0.00000  Uiso   1.00
H548   H     0.60011   0.45464   0.07772   0.00000  Uiso   1.00
C549   C     0.38902   0.53498   0.04818   0.00000  Uiso   1.00
C550   C     0.39524   0.57689   0.07860   0.00000  Uiso   1.00
H551   H     0.41161   0.60555   0.06050   0.00000  Uiso   1.00
H552   H     0.36519   0.59049   0.09030   0.00000  Uiso   1.00
H553   H     0.41284   0.56685   0.10836   0.00000  Uiso   1.00
H554   H     0.36451   0.54488   0.02527   0.00000  Uiso   1.00
H555   H     0.37538   0.50513   0.06682   0.00000  Uiso   1.00
C556   C     0.61895   0.51930   0.45545   0.00000  Uiso   1.00
C557   C     0.62426   0.57265   0.45069   0.00000  Uiso   1.00
H558   H     0.59569   0.59064   0.44080   0.00000  Uiso   1.00
H559   H     0.63348   0.58726   0.48299   0.00000  Uiso   1.00
H560   H     0.64803   0.58081   0.42502   0.00000  Uiso   1.00
H561   H     0.64398   0.50637   0.47625   0.00000  Uiso   1.00
H562   H     0.62439   0.50035   0.42406   0.00000  Uiso   1.00
C563   C     0.37819   0.41414   0.29272   0.00000  Uiso   1.00
C564   C     0.38523   0.37826   0.25590   0.00000  Uiso   1.00
H565   H     0.39898   0.39483   0.22556   0.00000  Uiso   1.00
H566   H     0.40615   0.35034   0.26797   0.00000  Uiso   1.00
H567   H     0.35642   0.36214   0.24596   0.00000  Uiso   1.00
H568   H     0.40760   0.42311   0.30703   0.00000  Uiso   1.00
H569   H     0.36309   0.39789   0.32242   0.00000  Uiso   1.00
C570   C     0.63157   0.58040   0.21951   0.00000  Uiso   1.00
C571   C     0.60929   0.62023   0.24385   0.00000  Uiso   1.00
H572   H     0.58099   0.62942   0.22614   0.00000  Uiso   1.00
H573   H     0.60174   0.61046   0.27901   0.00000  Uiso   1.00
H574   H     0.62808   0.65230   0.24326   0.00000  Uiso   1.00
H575   H     0.65739   0.59548   0.19961   0.00000  Uiso   1.00
H576   H     0.61171   0.56580   0.19423   0.00000  Uiso   1.00
C577   C     0.62205   0.41342   0.29089   0.00000  Uiso   1.00
C578   C     0.60203   0.42133   0.33645   0.00000  Uiso   1.00
H579   H     0.62456   0.43499   0.35993   0.00000  Uiso   1.00
H580   H     0.57646   0.44648   0.33378   0.00000  Uiso   1.00
H581   H     0.59012   0.38762   0.35028   0.00000  Uiso   1.00
H582   H     0.60059   0.40014   0.26644   0.00000  Uiso   1.00
H583   H     0.64107   0.38182   0.29472   0.00000  Uiso   1.00
C584   C     0.37190   0.58939   0.27577   0.00000  Uiso   1.00
C585   C     0.38822   0.58765   0.32314   0.00000  Uiso   1.00
H586   H     0.41375   0.56231   0.32644   0.00000  Uiso   1.00
H587   H     0.39934   0.62290   0.33210   0.00000  Uiso   1.00
H588   H     0.36353   0.57742   0.34712   0.00000  Uiso   1.00
H589   H     0.39502   0.60213   0.25121   0.00000  Uiso   1.00
H590   H     0.34833   0.61707   0.27647   0.00000  Uiso   1.00
C591   C     0.75424   0.49999   0.25558   0.00000  Uiso   1.00
C592   C     0.91291   0.49958   0.25158   0.00000  Uiso   1.00
C593   C     0.76152   0.52020   0.02358   0.00000  Uiso   1.00
C594   C     0.91095   0.50799   0.47603   0.00000  Uiso   1.00
C595   C     0.68844   0.45757   0.27577   0.00000  Uiso   1.00
C596   C     0.98013   0.54071   0.24984   0.00000  Uiso   1.00
C597   C     0.97852   0.45730   0.27407   0.00000  Uiso   1.00
C598   C     0.68742   0.54240   0.26254   0.00000  Uiso   1.00
C599   C     0.95781   0.49860   0.25746   0.00000  Uiso   1.00
C600   C     0.70966   0.49987   0.26506   0.00000  Uiso   1.00
C601   C     0.81788   0.35887   0.21509   0.00000  Uiso   1.00
C602   C     0.84822   0.64113   0.28520   0.00000  Uiso   1.00
C603   C     0.84824   0.35737   0.28516   0.00000  Uiso   1.00
C604   C     0.81777   0.64260   0.21515   0.00000  Uiso   1.00
C605   C     0.83364   0.50042   0.16436   0.00000  Uiso   1.00
C606   C     0.83336   0.49973   0.33567   0.00000  Uiso   1.00
C607   C     0.87152   0.51421   0.40443   0.00000  Uiso   1.00
C608   C     0.79826   0.49554   0.09301   0.00000  Uiso   1.00
C609   C     0.83544   0.49998   0.38414   0.00000  Uiso   1.00
C610   C     0.83453   0.50169   0.11584   0.00000  Uiso   1.00
C611   C     0.79993   0.49246   0.40983   0.00000  Uiso   1.00
C612   C     0.87118   0.51077   0.09236   0.00000  Uiso   1.00
C613   C     0.79952   0.50699   0.45418   0.00000  Uiso   1.00
C614   C     0.87228   0.50406   0.04602   0.00000  Uiso   1.00
C615   C     0.83647   0.50767   0.47642   0.00000  Uiso   1.00
C616   C     0.83543   0.50666   0.02310   0.00000  Uiso   1.00
C617   C     0.87392   0.51078   0.45187   0.00000  Uiso   1.00
C618   C     0.79746   0.50652   0.04683   0.00000  Uiso   1.00
C619   C     0.76402   0.52352   0.47621   0.00000  Uiso   1.00
C620   C     0.90889   0.49577   0.02195   0.00000  Uiso   1.00
Cu621  Cu    0.83333   0.54689   0.25000   0.00000  Uiso   1.00
Cu622  Cu    0.83333   0.45311   0.25000   0.00000  Uiso   1.00
H623   H     0.80513   0.37801   0.18724   0.00000  Uiso   1.00
H624   H     0.86065   0.62203   0.31325   0.00000  Uiso   1.00
H625   H     0.86016   0.37533   0.31332   0.00000  Uiso   1.00
H626   H     0.80502   0.62458   0.18737   0.00000  Uiso   1.00
N627   N     0.83333   0.61736   0.25000   0.00000  Uiso   1.00
N628   N     0.83333   0.38264   0.25000   0.00000  Uiso   1.00
O629   O     0.77321   0.53958   0.25000   0.00000  Uiso   1.00
O630   O     0.89345   0.46042   0.25001   0.00000  Uiso   1.00
O631   O     0.89345   0.53958   0.25001   0.00000  Uiso   1.00
O632   O     0.77321   0.46042   0.25000   0.00000  Uiso   1.00
O633   O     0.83332   0.53960   0.18513   0.00000  Uiso   1.00
O634   O     0.83334   0.46040   0.31487   0.00000  Uiso   1.00
O635   O     0.83334   0.53960   0.31487   0.00000  Uiso   1.00
O636   O     0.83332   0.46040   0.18513   0.00000  Uiso   1.00
Cl637  Cl    0.91039   0.53713   0.36844   0.00000  Uiso   1.00
Cl638  Cl    0.75673   0.46970   0.12270   0.00000  Uiso   1.00
C639   C     0.76473   0.46438   0.39225   0.00000  Uiso   1.00
C640   C     0.77508   0.41191   0.39291   0.00000  Uiso   1.00
H641   H     0.80079   0.40391   0.36979   0.00000  Uiso   1.00
H642   H     0.78331   0.40029   0.42709   0.00000  Uiso   1.00
H643   H     0.74828   0.39146   0.38297   0.00000  Uiso   1.00
H644   H     0.73683   0.46820   0.41326   0.00000  Uiso   1.00
H645   H     0.75690   0.47694   0.35836   0.00000  Uiso   1.00
C646   C     0.90560   0.53601   0.11491   0.00000  Uiso   1.00
C647   C     0.89740   0.58897   0.11496   0.00000  Uiso   1.00
H648   H     0.89430   0.60243   0.08024   0.00000  Uiso   1.00
H649   H     0.86919   0.59750   0.13407   0.00000  Uiso   1.00
H650   H     0.92315   0.60741   0.13006   0.00000  Uiso   1.00
H651   H     0.90930   0.52199   0.14921   0.00000  Uiso   1.00
H652   H     0.93540   0.53136   0.09794   0.00000  Uiso   1.00
C653   C     0.73343   0.55171   0.44875   0.00000  Uiso   1.00
C654   C     0.73422   0.60434   0.45823   0.00000  Uiso   1.00
H655   H     0.71788   0.61267   0.48968   0.00000  Uiso   1.00
H656   H     0.76606   0.61687   0.45959   0.00000  Uiso   1.00
H657   H     0.71874   0.62406   0.43113   0.00000  Uiso   1.00
H658   H     0.74026   0.54948   0.41261   0.00000  Uiso   1.00
H659   H     0.70282   0.53707   0.45334   0.00000  Uiso   1.00
C660   C     0.94212   0.46533   0.04310   0.00000  Uiso   1.00
C661   C     0.94886   0.41936   0.01824   0.00000  Uiso   1.00
H662   H     0.91990   0.39966   0.01701   0.00000  Uiso   1.00
H663   H     0.96045   0.42580   0.48375   0.00000  Uiso   1.00
H664   H     0.97155   0.39730   0.03598   0.00000  Uiso   1.00
H665   H     0.97106   0.48476   0.04523   0.00000  Uiso   1.00
H666   H     0.93345   0.45464   0.07772   0.00000  Uiso   1.00
C667   C     0.72235   0.53498   0.04818   0.00000  Uiso   1.00
C668   C     0.72857   0.57689   0.07860   0.00000  Uiso   1.00
H669   H     0.74494   0.60555   0.06050   0.00000  Uiso   1.00
H670   H     0.69852   0.59049   0.09030   0.00000  Uiso   1.00
H671   H     0.74618   0.56685   0.10836   0.00000  Uiso   1.00
H672   H     0.69784   0.54488   0.02527   0.00000  Uiso   1.00
H673   H     0.70871   0.50513   0.06682   0.00000  Uiso   1.00
C674   C     0.95228   0.51930   0.45545   0.00000  Uiso   1.00
C675   C     0.95760   0.57265   0.45069   0.00000  Uiso   1.00
H676   H     0.92902   0.59064   0.44080   0.00000  Uiso   1.00
H677   H     0.96681   0.58726   0.48299   0.00000  Uiso   1.00
H678   H     0.98137   0.58081   0.42502   0.00000  Uiso   1.00
H679   H     0.97732   0.50637   0.47625   0.00000  Uiso   1.00
H680   H     0.95772   0.50035   0.42406   0.00000  Uiso   1.00
C681   C     0.71152   0.41414   0.29272   0.00000  Uiso   1.00
C682   C     0.71856   0.37826   0.25590   0.00000  Uiso   1.00
H683   H     0.73231   0.39483   0.22556   0.00000  Uiso   1.00
H684   H     0.73948   0.35034   0.26797   0.00000  Uiso   1.00
H685   H     0.68976   0.36214   0.24596   0.00000  Uiso   1.00
H686   H     0.74094   0.42311   0.30703   0.00000  Uiso   1.00
H687   H     0.69643   0.39789   0.32242   0.00000  Uiso   1.00
C688   C     0.96490   0.58040   0.21951   0.00000  Uiso   1.00
C689   C     0.94263   0.62023   0.24385   0.00000  Uiso   1.00
H690   H     0.91433   0.62942   0.22614   0.00000  Uiso   1.00
H691   H     0.93507   0.61046   0.27901   0.00000  Uiso   1.00
H692   H     0.96142   0.65230   0.24326   0.00000  Uiso   1.00
H693   H     0.99073   0.59548   0.19961   0.00000  Uiso   1.00
H694   H     0.94504   0.56580   0.19423   0.00000  Uiso   1.00
C695   C     0.95538   0.41342   0.29089   0.00000  Uiso   1.00
C696   C     0.93536   0.42133   0.33645   0.00000  Uiso   1.00
H697   H     0.95789   0.43499   0.35993   0.00000  Uiso   1.00
H698   H     0.90980   0.44648   0.33378   0.00000  Uiso   1.00
H699   H     0.92345   0.38762   0.35028   0.00000  Uiso   1.00
H700   H     0.93392   0.40014   0.26644   0.00000  Uiso   1.00
H701   H     0.97440   0.38182   0.29472   0.00000  Uiso   1.00
C702   C     0.70523   0.58939   0.27577   0.00000  Uiso   1.00
C703   C     0.72155   0.58765   0.32314   0.00000  Uiso   1.00
H704   H     0.74709   0.56231   0.32644   0.00000  Uiso   1.00
H705   H     0.73267   0.62290   0.33210   0.00000  Uiso   1.00
H706   H     0.69687   0.57742   0.34712   0.00000  Uiso   1.00
H707   H     0.72835   0.60213   0.25121   0.00000  Uiso   1.00
H708   H     0.68166   0.61707   0.27647   0.00000  Uiso   1.00
C709   C     0.08757   0.83333   0.25558   0.00000  Uiso   1.00
C710   C     0.24625   0.83291   0.25158   0.00000  Uiso   1.00
C711   C     0.09486   0.85353   0.02358   0.00000  Uiso   1.00
C712   C     0.24428   0.84133   0.47603   0.00000  Uiso   1.00
C713   C     0.02178   0.79090   0.27577   0.00000  Uiso   1.00
C714   C     0.31347   0.87405   0.24984   0.00000  Uiso   1.00
C715   C     0.31185   0.79063   0.27407   0.00000  Uiso   1.00
C716   C     0.02075   0.87573   0.26254   0.00000  Uiso   1.00
C717   C     0.29114   0.83193   0.25746   0.00000  Uiso   1.00
C718   C     0.04299   0.83321   0.26506   0.00000  Uiso   1.00
C719   C     0.15121   0.69221   0.21509   0.00000  Uiso   1.00
C720   C     0.18156   0.97447   0.28520   0.00000  Uiso   1.00
C721   C     0.18157   0.69071   0.28516   0.00000  Uiso   1.00
C722   C     0.15110   0.97593   0.21515   0.00000  Uiso   1.00
C723   C     0.16697   0.83376   0.16436   0.00000  Uiso   1.00
C724   C     0.16670   0.83307   0.33567   0.00000  Uiso   1.00
C725   C     0.20485   0.84755   0.40443   0.00000  Uiso   1.00
C726   C     0.13160   0.82888   0.09301   0.00000  Uiso   1.00
C727   C     0.16878   0.83331   0.38414   0.00000  Uiso   1.00
C728   C     0.16786   0.83503   0.11584   0.00000  Uiso   1.00
C729   C     0.13327   0.82580   0.40983   0.00000  Uiso   1.00
C730   C     0.20451   0.84410   0.09236   0.00000  Uiso   1.00
C731   C     0.13285   0.84033   0.45418   0.00000  Uiso   1.00
C732   C     0.20561   0.83739   0.04602   0.00000  Uiso   1.00
C733   C     0.16981   0.84100   0.47642   0.00000  Uiso   1.00
C734   C     0.16877   0.83999   0.02310   0.00000  Uiso   1.00
C735   C     0.20725   0.84412   0.45187   0.00000  Uiso   1.00
C736   C     0.13080   0.83985   0.04683   0.00000  Uiso   1.00
C737   C     0.09736   0.85685   0.47621   0.00000  Uiso   1.00
C738   C     0.24223   0.82910   0.02195   0.00000  Uiso   1.00
Cu739  Cu    0.16667   0.88022   0.25000   0.00000  Uiso   1.00
Cu740  Cu    0.16667   0.78645   0.25000   0.00000  Uiso   1.00
H741   H     0.13846   0.71134   0.18724   0.00000  Uiso   1.00
H742   H     0.19398   0.95537   0.31325   0.00000  Uiso   1.00
H743   H     0.19349   0.70867   0.31332   0.00000  Uiso   1.00
H744   H     0.13835   0.95792   0.18737   0.00000  Uiso   1.00
N745   N     0.16667   0.95069   0.25000   0.00000  Uiso   1.00
N746   N     0.16667   0.71598   0.25000   0.00000  Uiso   1.00
O747   O     0.10655   0.87291   0.25000   0.00000  Uiso   1.00
O748   O     0.22679   0.79375   0.25001   0.00000  Uiso   1.00
O749   O     0.22679   0.87291   0.25001   0.00000  Uiso   1.00
O750   O     0.10655   0.79375   0.25000   0.00000  Uiso   1.00
O751   O     0.16666   0.87293   0.18513   0.00000  Uiso   1.00
O752   O     0.16668   0.79373   0.31487   0.00000  Uiso   1.00
O753   O     0.16668   0.87293   0.31487   0.00000  Uiso   1.00
O754   O     0.16666   0.79373   0.18513   0.00000  Uiso   1.00
Cl755  Cl    0.24372   0.87047   0.36844   0.00000  Uiso   1.00
Cl756  Cl    0.09006   0.80303   0.12270   0.00000  Uiso   1.00
C757   C     0.09806   0.79772   0.39225   0.00000  Uiso   1.00
C758   C     0.10841   0.74524   0.39291   0.00000  Uiso   1.00
H759   H     0.13413   0.73724   0.36979   0.00000  Uiso   1.00
H760   H     0.11664   0.73363   0.42709   0.00000  Uiso   1.00
H761   H     0.08161   0.72479   0.38297   0.00000  Uiso   1.00
H762   H     0.07016   0.80153   0.41326   0.00000  Uiso   1.00
H763   H     0.09023   0.81028   0.35836   0.00000  Uiso   1.00
C764   C     0.23893   0.86934   0.11491   0.00000  Uiso   1.00
C765   C     0.23073   0.92230   0.11496   0.00000  Uiso   1.00
H766   H     0.22763   0.93576   0.08024   0.00000  Uiso   1.00
H767   H     0.20252   0.93083   0.13407   0.00000  Uiso   1.00
H768   H     0.25649   0.94075   0.13006   0.00000  Uiso   1.00
H769   H     0.24263   0.85532   0.14921   0.00000  Uiso   1.00
H770   H     0.26873   0.86469   0.09794   0.00000  Uiso   1.00
C771   C     0.06676   0.88505   0.44875   0.00000  Uiso   1.00
C772   C     0.06755   0.93768   0.45823   0.00000  Uiso   1.00
H773   H     0.05121   0.94600   0.48968   0.00000  Uiso   1.00
H774   H     0.09940   0.95021   0.45959   0.00000  Uiso   1.00
H775   H     0.05207   0.95739   0.43113   0.00000  Uiso   1.00
H776   H     0.07360   0.88281   0.41261   0.00000  Uiso   1.00
H777   H     0.03616   0.87041   0.45334   0.00000  Uiso   1.00
C778   C     0.27546   0.79867   0.04310   0.00000  Uiso   1.00
C779   C     0.28219   0.75270   0.01824   0.00000  Uiso   1.00
H780   H     0.25323   0.73299   0.01701   0.00000  Uiso   1.00
H781   H     0.29378   0.75913   0.48375   0.00000  Uiso   1.00
H782   H     0.30488   0.73063   0.03598   0.00000  Uiso   1.00
H783   H     0.30439   0.81809   0.04523   0.00000  Uiso   1.00
H784   H     0.26678   0.78798   0.07772   0.00000  Uiso   1.00
C785   C     0.05569   0.86831   0.04818   0.00000  Uiso   1.00
C786   C     0.06190   0.91022   0.07860   0.00000  Uiso   1.00
H787   H     0.07828   0.93889   0.06050   0.00000  Uiso   1.00
H788   H     0.03186   0.92383   0.09030   0.00000  Uiso   1.00
H789   H     0.07951   0.90018   0.10836   0.00000  Uiso   1.00
H790   H     0.03118   0.87821   0.02527   0.00000  Uiso   1.00
H791   H     0.04205   0.83847   0.06682   0.00000  Uiso   1.00
C792   C     0.28561   0.85263   0.45545   0.00000  Uiso   1.00
C793   C     0.29093   0.90598   0.45069   0.00000  Uiso   1.00
H794   H     0.26236   0.92397   0.44080   0.00000  Uiso   1.00
H795   H     0.30015   0.92059   0.48299   0.00000  Uiso   1.00
H796   H     0.31470   0.91414   0.42502   0.00000  Uiso   1.00
H797   H     0.31065   0.83971   0.47625   0.00000  Uiso   1.00
H798   H     0.29106   0.83369   0.42406   0.00000  Uiso   1.00
C799   C     0.04486   0.74747   0.29272   0.00000  Uiso   1.00
C800   C     0.05190   0.71160   0.25590   0.00000  Uiso   1.00
H801   H     0.06564   0.72817   0.22556   0.00000  Uiso   1.00
H802   H     0.07281   0.68367   0.26797   0.00000  Uiso   1.00
H803   H     0.02309   0.69547   0.24596   0.00000  Uiso   1.00
H804   H     0.07427   0.75644   0.30703   0.00000  Uiso   1.00
H805   H     0.02976   0.73122   0.32242   0.00000  Uiso   1.00
C806   C     0.29824   0.91373   0.21951   0.00000  Uiso   1.00
C807   C     0.27596   0.95356   0.24385   0.00000  Uiso   1.00
H808   H     0.24766   0.96275   0.22614   0.00000  Uiso   1.00
H809   H     0.26840   0.94379   0.27901   0.00000  Uiso   1.00
H810   H     0.29475   0.98563   0.24326   0.00000  Uiso   1.00
H811   H     0.32406   0.92881   0.19961   0.00000  Uiso   1.00
H812   H     0.27837   0.89913   0.19423   0.00000  Uiso   1.00
C813   C     0.28871   0.74675   0.29089   0.00000  Uiso   1.00
C814   C     0.26870   0.75466   0.33645   0.00000  Uiso   1.00
H815   H     0.29123   0.76833   0.35993   0.00000  Uiso   1.00
H816   H     0.24313   0.77981   0.33378   0.00000  Uiso   1.00
H817   H     0.25678   0.72095   0.35028   0.00000  Uiso   1.00
H818   H     0.26726   0.73347   0.26644   0.00000  Uiso   1.00
H819   H     0.30774   0.71515   0.29472   0.00000  Uiso   1.00
C820   C     0.03856   0.92272   0.27577   0.00000  Uiso   1.00
C821   C     0.05489   0.92098   0.32314   0.00000  Uiso   1.00
H822   H     0.08042   0.89564   0.32644   0.00000  Uiso   1.00
H823   H     0.06600   0.95623   0.33210   0.00000  Uiso   1.00
H824   H     0.03020   0.91075   0.34712   0.00000  Uiso   1.00
H825   H     0.06168   0.93546   0.25121   0.00000  Uiso   1.00
H826   H     0.01499   0.95041   0.27647   0.00000  Uiso   1.00
C827   C     0.42091   0.83333   0.25558   0.00000  Uiso   1.00
C828   C     0.57958   0.83291   0.25158   0.00000  Uiso   1.00
C829   C     0.42819   0.85353   0.02358   0.00000  Uiso   1.00
C830   C     0.57761   0.84133   0.47603   0.00000  Uiso   1.00
C831   C     0.35511   0.79090   0.27577   0.00000  Uiso   1.00
C832   C     0.64680   0.87405   0.24984   0.00000  Uiso   1.00
C833   C     0.64519   0.79063   0.27407   0.00000  Uiso   1.00
C834   C     0.35408   0.87573   0.26254   0.00000  Uiso   1.00
C835   C     0.62448   0.83193   0.25746   0.00000  Uiso   1.00
C836   C     0.37632   0.83321   0.26506   0.00000  Uiso   1.00
C837   C     0.48455   0.69221   0.21509   0.00000  Uiso   1.00
C838   C     0.51489   0.97447   0.28520   0.00000  Uiso   1.00
C839   C     0.51491   0.69071   0.28516   0.00000  Uiso   1.00
C840   C     0.48443   0.97593   0.21515   0.00000  Uiso   1.00
C841   C     0.50031   0.83376   0.16436   0.00000  Uiso   1.00
C842   C     0.50003   0.83307   0.33567   0.00000  Uiso   1.00
C843   C     0.53819   0.84755   0.40443   0.00000  Uiso   1.00
C844   C     0.46493   0.82888   0.09301   0.00000  Uiso   1.00
C845   C     0.50211   0.83331   0.38414   0.00000  Uiso   1.00
C846   C     0.50119   0.83503   0.11584   0.00000  Uiso   1.00
C847   C     0.46660   0.82580   0.40983   0.00000  Uiso   1.00
C848   C     0.53785   0.84410   0.09236   0.00000  Uiso   1.00
C849   C     0.46618   0.84033   0.45418   0.00000  Uiso   1.00
C850   C     0.53894   0.83739   0.04602   0.00000  Uiso   1.00
C851   C     0.50314   0.84100   0.47642   0.00000  Uiso   1.00
C852   C     0.50210   0.83999   0.02310   0.00000  Uiso   1.00
C853   C     0.54059   0.84412   0.45187   0.00000  Uiso   1.00
C854   C     0.46413   0.83985   0.04683   0.00000  Uiso   1.00
C855   C     0.43069   0.85685   0.47621   0.00000  Uiso   1.00
C856   C     0.57556   0.82910   0.02195   0.00000  Uiso   1.00
Cu857  Cu    0.50000   0.88022   0.25000   0.00000  Uiso   1.00
Cu858  Cu    0.50000   0.78645   0.25000   0.00000  Uiso   1.00
H859   H     0.47179   0.71134   0.18724   0.00000  Uiso   1.00
H860   H     0.52732   0.95537   0.31325   0.00000  Uiso   1.00
H861   H     0.52682   0.70867   0.31332   0.00000  Uiso   1.00
H862   H     0.47169   0.95792   0.18737   0.00000  Uiso   1.00
N863   N     0.50000   0.95069   0.25000   0.00000  Uiso   1.00
N864   N     0.50000   0.71598   0.25000   0.00000  Uiso   1.00
O865   O     0.43988   0.87291   0.25000   0.00000  Uiso   1.00
O866   O     0.56012   0.79375   0.25001   0.00000  Uiso   1.00
O867   O     0.56012   0.87291   0.25001   0.00000  Uiso   1.00
O868   O     0.43988   0.79375   0.25000   0.00000  Uiso   1.00
O869   O     0.49999   0.87293   0.18513   0.00000  Uiso   1.00
O870   O     0.50001   0.79373   0.31487   0.00000  Uiso   1.00
O871   O     0.50001   0.87293   0.31487   0.00000  Uiso   1.00
O872   O     0.49999   0.79373   0.18513   0.00000  Uiso   1.00
Cl873  Cl    0.57706   0.87047   0.36844   0.00000  Uiso   1.00
Cl874  Cl    0.42339   0.80303   0.12270   0.00000  Uiso   1.00
C875   C     0.43139   0.79772   0.39225   0.00000  Uiso   1.00
C876   C     0.44174   0.74524   0.39291   0.00000  Uiso   1.00
H877   H     0.46746   0.73724   0.36979   0.00000  Uiso   1.00
H878   H     0.44997   0.73363   0.42709   0.00000  Uiso   1.00
H879   H     0.41494   0.72479   0.38297   0.00000  Uiso   1.00
H880   H     0.40349   0.80153   0.41326   0.00000  Uiso   1.00
H881   H     0.42357   0.81028   0.35836   0.00000  Uiso   1.00
C882   C     0.57227   0.86934   0.11491   0.00000  Uiso   1.00
C883   C     0.56406   0.92230   0.11496   0.00000  Uiso   1.00
H884   H     0.56096   0.93576   0.08024   0.00000  Uiso   1.00
H885   H     0.53585   0.93083   0.13407   0.00000  Uiso   1.00
H886   H     0.58982   0.94075   0.13006   0.00000  Uiso   1.00
H887   H     0.57597   0.85532   0.14921   0.00000  Uiso   1.00
H888   H     0.60207   0.86469   0.09794   0.00000  Uiso   1.00
C889   C     0.40010   0.88505   0.44875   0.00000  Uiso   1.00
C890   C     0.40089   0.93768   0.45823   0.00000  Uiso   1.00
H891   H     0.38455   0.94600   0.48968   0.00000  Uiso   1.00
H892   H     0.43273   0.95021   0.45959   0.00000  Uiso   1.00
H893   H     0.38540   0.95739   0.43113   0.00000  Uiso   1.00
H894   H     0.40693   0.88281   0.41261   0.00000  Uiso   1.00
H895   H     0.36949   0.87041   0.45334   0.00000  Uiso   1.00
C896   C     0.60879   0.79867   0.04310   0.00000  Uiso   1.00
C897   C     0.61552   0.75270   0.01824   0.00000  Uiso   1.00
H898   H     0.58656   0.73299   0.01701   0.00000  Uiso   1.00
H899   H     0.62711   0.75913   0.48375   0.00000  Uiso   1.00
H900   H     0.63821   0.73063   0.03598   0.00000  Uiso   1.00
H901   H     0.63773   0.81809   0.04523   0.00000  Uiso   1.00
H902   H     0.60011   0.78798   0.07772   0.00000  Uiso   1.00
C903   C     0.38902   0.86831   0.04818   0.00000  Uiso   1.00
C904   C     0.39524   0.91022   0.07860   0.00000  Uiso   1.00
H905   H     0.41161   0.93889   0.06050   0.00000  Uiso   1.00
H906   H     0.36519   0.92383   0.09030   0.00000  Uiso   1.00
H907   H     0.41284   0.90018   0.10836   0.00000  Uiso   1.00
H908   H     0.36451   0.87821   0.02527   0.00000  Uiso   1.00
H909   H     0.37538   0.83847   0.06682   0.00000  Uiso   1.00
C910   C     0.61895   0.85263   0.45545   0.00000  Uiso   1.00
C911   C     0.62426   0.90598   0.45069   0.00000  Uiso   1.00
H912   H     0.59569   0.92397   0.44080   0.00000  Uiso   1.00
H913   H     0.63348   0.92059   0.48299   0.00000  Uiso   1.00
H914   H     0.64803   0.91414   0.42502   0.00000  Uiso   1.00
H915   H     0.64398   0.83971   0.47625   0.00000  Uiso   1.00
H916   H     0.62439   0.83369   0.42406   0.00000  Uiso   1.00
C917   C     0.37819   0.74747   0.29272   0.00000  Uiso   1.00
C918   C     0.38523   0.71160   0.25590   0.00000  Uiso   1.00
H919   H     0.39898   0.72817   0.22556   0.00000  Uiso   1.00
H920   H     0.40615   0.68367   0.26797   0.00000  Uiso   1.00
H921   H     0.35642   0.69547   0.24596   0.00000  Uiso   1.00
H922   H     0.40760   0.75644   0.30703   0.00000  Uiso   1.00
H923   H     0.36309   0.73122   0.32242   0.00000  Uiso   1.00
C924   C     0.63157   0.91373   0.21951   0.00000  Uiso   1.00
C925   C     0.60929   0.95356   0.24385   0.00000  Uiso   1.00
H926   H     0.58099   0.96275   0.22614   0.00000  Uiso   1.00
H927   H     0.60174   0.94379   0.27901   0.00000  Uiso   1.00
H928   H     0.62808   0.98563   0.24326   0.00000  Uiso   1.00
H929   H     0.65739   0.92881   0.19961   0.00000  Uiso   1.00
H930   H     0.61171   0.89913   0.19423   0.00000  Uiso   1.00
C931   C     0.62205   0.74675   0.29089   0.00000  Uiso   1.00
C932   C     0.60203   0.75466   0.33645   0.00000  Uiso   1.00
H933   H     0.62456   0.76833   0.35993   0.00000  Uiso   1.00
H934   H     0.57646   0.77981   0.33378   0.00000  Uiso   1.00
H935   H     0.59012   0.72095   0.35028   0.00000  Uiso   1.00
H936   H     0.60059   0.73347   0.26644   0.00000  Uiso   1.00
H937   H     0.64107   0.71515   0.29472   0.00000  Uiso   1.00
C938   C     0.37190   0.92272   0.27577   0.00000  Uiso   1.00
C939   C     0.38822   0.92098   0.32314   0.00000  Uiso   1.00
H940   H     0.41375   0.89564   0.32644   0.00000  Uiso   1.00
H941   H     0.39934   0.95623   0.33210   0.00000  Uiso   1.00
H942   H     0.36353   0.91075   0.34712   0.00000  Uiso   1.00
H943   H     0.39502   0.93546   0.25121   0.00000  Uiso   1.00
H944   H     0.34833   0.95041   0.27647   0.00000  Uiso   1.00
C945   C     0.75424   0.83333   0.25558   0.00000  Uiso   1.00
C946   C     0.91291   0.83291   0.25158   0.00000  Uiso   1.00
C947   C     0.76152   0.85353   0.02358   0.00000  Uiso   1.00
C948   C     0.91095   0.84133   0.47603   0.00000  Uiso   1.00
C949   C     0.68844   0.79090   0.27577   0.00000  Uiso   1.00
C950   C     0.98013   0.87405   0.24984   0.00000  Uiso   1.00
C951   C     0.97852   0.79063   0.27407   0.00000  Uiso   1.00
C952   C     0.68742   0.87573   0.26254   0.00000  Uiso   1.00
C953   C     0.95781   0.83193   0.25746   0.00000  Uiso   1.00
C954   C     0.70966   0.83321   0.26506   0.00000  Uiso   1.00
C955   C     0.81788   0.69221   0.21509   0.00000  Uiso   1.00
C956   C     0.84822   0.97447   0.28520   0.00000  Uiso   1.00
C957   C     0.84824   0.69071   0.28516   0.00000  Uiso   1.00
C958   C     0.81777   0.97593   0.21515   0.00000  Uiso   1.00
C959   C     0.83364   0.83376   0.16436   0.00000  Uiso   1.00
C960   C     0.83336   0.83307   0.33567   0.00000  Uiso   1.00
C961   C     0.87152   0.84755   0.40443   0.00000  Uiso   1.00
C962   C     0.79826   0.82888   0.09301   0.00000  Uiso   1.00
C963   C     0.83544   0.83331   0.38414   0.00000  Uiso   1.00
C964   C     0.83453   0.83503   0.11584   0.00000  Uiso   1.00
C965   C     0.79993   0.82580   0.40983   0.00000  Uiso   1.00
C966   C     0.87118   0.84410   0.09236   0.00000  Uiso   1.00
C967   C     0.79952   0.84033   0.45418   0.00000  Uiso   1.00
C968   C     0.87228   0.83739   0.04602   0.00000  Uiso   1.00
C969   C     0.83647   0.84100   0.47642   0.00000  Uiso   1.00
C970   C     0.83543   0.83999   0.02310   0.00000  Uiso   1.00
C971   C     0.87392   0.84412   0.45187   0.00000  Uiso   1.00
C972   C     0.79746   0.83985   0.04683   0.00000  Uiso   1.00
C973   C     0.76402   0.85685   0.47621   0.00000  Uiso   1.00
C974   C     0.90889   0.82910   0.02195   0.00000  Uiso   1.00
Cu975  Cu    0.83333   0.88022   0.25000   0.00000  Uiso   1.00
Cu976  Cu    0.83333   0.78645   0.25000   0.00000  Uiso   1.00
H977   H     0.80513   0.71134   0.18724   0.00000  Uiso   1.00
H978   H     0.86065   0.95537   0.31325   0.00000  Uiso   1.00
H979   H     0.86016   0.70867   0.31332   0.00000  Uiso   1.00
H980   H     0.80502   0.95792   0.18737   0.00000  Uiso   1.00
N981   N     0.83333   0.95069   0.25000   0.00000  Uiso   1.00
N982   N     0.83333   0.71598   0.25000   0.00000  Uiso   1.00
O983   O     0.77321   0.87291   0.25000   0.00000  Uiso   1.00
O984   O     0.89345   0.79375   0.25001   0.00000  Uiso   1.00
O985   O     0.89345   0.87291   0.25001   0.00000  Uiso   1.00
O986   O     0.77321   0.79375   0.25000   0.00000  Uiso   1.00
O987   O     0.83332   0.87293   0.18513   0.00000  Uiso   1.00
O988   O     0.83334   0.79373   0.31487   0.00000  Uiso   1.00
O989   O     0.83334   0.87293   0.31487   0.00000  Uiso   1.00
O990   O     0.83332   0.79373   0.18513   0.00000  Uiso   1.00
Cl991  Cl    0.91039   0.87047   0.36844   0.00000  Uiso   1.00
Cl992  Cl    0.75673   0.80303   0.12270   0.00000  Uiso   1.00
C993   C     0.76473   0.79772   0.39225   0.00000  Uiso   1.00
C994   C     0.77508   0.74524   0.39291   0.00000  Uiso   1.00
H995   H     0.80079   0.73724   0.36979   0.00000  Uiso   1.00
H996   H     0.78331   0.73363   0.42709   0.00000  Uiso   1.00
H997   H     0.74828   0.72479   0.38297   0.00000  Uiso   1.00
H998   H     0.73683   0.80153   0.41326   0.00000  Uiso   1.00
H999   H     0.75690   0.81028   0.35836   0.00000  Uiso   1.00
C1000  C     0.90560   0.86934   0.11491   0.00000  Uiso   1.00
C1001  C     0.89740   0.92230   0.11496   0.00000  Uiso   1.00
H1002  H     0.89430   0.93576   0.08024   0.00000  Uiso   1.00
H1003  H     0.86919   0.93083   0.13407   0.00000  Uiso   1.00
H1004  H     0.92315   0.94075   0.13006   0.00000  Uiso   1.00
H1005  H     0.90930   0.85532   0.14921   0.00000  Uiso   1.00
H1006  H     0.93540   0.86469   0.09794   0.00000  Uiso   1.00
C1007  C     0.73343   0.88505   0.44875   0.00000  Uiso   1.00
C1008  C     0.73422   0.93768   0.45823   0.00000  Uiso   1.00
H1009  H     0.71788   0.94600   0.48968   0.00000  Uiso   1.00
H1010  H     0.76606   0.95021   0.45959   0.00000  Uiso   1.00
H1011  H     0.71874   0.95739   0.43113   0.00000  Uiso   1.00
H1012  H     0.74026   0.88281   0.41261   0.00000  Uiso   1.00
H1013  H     0.70282   0.87041   0.45334   0.00000  Uiso   1.00
C1014  C     0.94212   0.79867   0.04310   0.00000  Uiso   1.00
C1015  C     0.94886   0.75270   0.01824   0.00000  Uiso   1.00
H1016  H     0.91990   0.73299   0.01701   0.00000  Uiso   1.00
H1017  H     0.96045   0.75913   0.48375   0.00000  Uiso   1.00
H1018  H     0.97155   0.73063   0.03598   0.00000  Uiso   1.00
H1019  H     0.97106   0.81809   0.04523   0.00000  Uiso   1.00
H1020  H     0.93345   0.78798   0.07772   0.00000  Uiso   1.00
C1021  C     0.72235   0.86831   0.04818   0.00000  Uiso   1.00
C1022  C     0.72857   0.91022   0.07860   0.00000  Uiso   1.00
H1023  H     0.74494   0.93889   0.06050   0.00000  Uiso   1.00
H1024  H     0.69852   0.92383   0.09030   0.00000  Uiso   1.00
H1025  H     0.74618   0.90018   0.10836   0.00000  Uiso   1.00
H1026  H     0.69784   0.87821   0.02527   0.00000  Uiso   1.00
H1027  H     0.70871   0.83847   0.06682   0.00000  Uiso   1.00
C1028  C     0.95228   0.85263   0.45545   0.00000  Uiso   1.00
C1029  C     0.95760   0.90598   0.45069   0.00000  Uiso   1.00
H1030  H     0.92902   0.92397   0.44080   0.00000  Uiso   1.00
H1031  H     0.96681   0.92059   0.48299   0.00000  Uiso   1.00
H1032  H     0.98137   0.91414   0.42502   0.00000  Uiso   1.00
H1033  H     0.97732   0.83971   0.47625   0.00000  Uiso   1.00
H1034  H     0.95772   0.83369   0.42406   0.00000  Uiso   1.00
C1035  C     0.71152   0.74747   0.29272   0.00000  Uiso   1.00
C1036  C     0.71856   0.71160   0.25590   0.00000  Uiso   1.00
H1037  H     0.73231   0.72817   0.22556   0.00000  Uiso   1.00
H1038  H     0.73948   0.68367   0.26797   0.00000  Uiso   1.00
H1039  H     0.68976   0.69547   0.24596   0.00000  Uiso   1.00
H1040  H     0.74094   0.75644   0.30703   0.00000  Uiso   1.00
H1041  H     0.69643   0.73122   0.32242   0.00000  Uiso   1.00
C1042  C     0.96490   0.91373   0.21951   0.00000  Uiso   1.00
C1043  C     0.94263   0.95356   0.24385   0.00000  Uiso   1.00
H1044  H     0.91433   0.96275   0.22614   0.00000  Uiso   1.00
H1045  H     0.93507   0.94379   0.27901   0.00000  Uiso   1.00
H1046  H     0.96142   0.98563   0.24326   0.00000  Uiso   1.00
H1047  H     0.99073   0.92881   0.19961   0.00000  Uiso   1.00
H1048  H     0.94504   0.89913   0.19423   0.00000  Uiso   1.00
C1049  C     0.95538   0.74675   0.29089   0.00000  Uiso   1.00
C1050  C     0.93536   0.75466   0.33645   0.00000  Uiso   1.00
H1051  H     0.95789   0.76833   0.35993   0.00000  Uiso   1.00
H1052  H     0.90980   0.77981   0.33378   0.00000  Uiso   1.00
H1053  H     0.92345   0.72095   0.35028   0.00000  Uiso   1.00
H1054  H     0.93392   0.73347   0.26644   0.00000  Uiso   1.00
H1055  H     0.97440   0.71515   0.29472   0.00000  Uiso   1.00
C1056  C     0.70523   0.92272   0.27577   0.00000  Uiso   1.00
C1057  C     0.72155   0.92098   0.32314   0.00000  Uiso   1.00
H1058  H     0.74709   0.89564   0.32644   0.00000  Uiso   1.00
H1059  H     0.73267   0.95623   0.33210   0.00000  Uiso   1.00
H1060  H     0.69687   0.91075   0.34712   0.00000  Uiso   1.00
H1061  H     0.72835   0.93546   0.25121   0.00000  Uiso   1.00
H1062  H     0.68166   0.95041   0.27647   0.00000  Uiso   1.00
C1063  C     0.08757   0.16666   0.75558   0.00000  Uiso   1.00
C1064  C     0.24625   0.16625   0.75158   0.00000  Uiso   1.00
C1065  C     0.09486   0.18687   0.52358   0.00000  Uiso   1.00
C1066  C     0.24428   0.17466   0.97603   0.00000  Uiso   1.00
C1067  C     0.02178   0.12423   0.77577   0.00000  Uiso   1.00
C1068  C     0.31347   0.20738   0.74984   0.00000  Uiso   1.00
C1069  C     0.31185   0.12397   0.77407   0.00000  Uiso   1.00
C1070  C     0.02075   0.20906   0.76254   0.00000  Uiso   1.00
C1071  C     0.29114   0.16526   0.75746   0.00000  Uiso   1.00
C1072  C     0.04299   0.16654   0.76506   0.00000  Uiso   1.00
C1073  C     0.15121   0.02554   0.71509   0.00000  Uiso   1.00
C1074  C     0.18156   0.30780   0.78520   0.00000  Uiso   1.00
C1075  C     0.18157   0.02404   0.78516   0.00000  Uiso   1.00
C1076  C     0.15110   0.30926   0.71515   0.00000  Uiso   1.00
C1077  C     0.16697   0.16709   0.66436   0.00000  Uiso   1.00
C1078  C     0.16670   0.16640   0.83567   0.00000  Uiso   1.00
C1079  C     0.20485   0.18088   0.90443   0.00000  Uiso   1.00
C1080  C     0.13160   0.16221   0.59301   0.00000  Uiso   1.00
C1081  C     0.16878   0.16665   0.88414   0.00000  Uiso   1.00
C1082  C     0.16786   0.16836   0.61584   0.00000  Uiso   1.00
C1083  C     0.13327   0.15913   0.90983   0.00000  Uiso   1.00
C1084  C     0.20451   0.17744   0.59236   0.00000  Uiso   1.00
C1085  C     0.13285   0.17366   0.95418   0.00000  Uiso   1.00
C1086  C     0.20561   0.17072   0.54602   0.00000  Uiso   1.00
C1087  C     0.16981   0.17434   0.97642   0.00000  Uiso   1.00
C1088  C     0.16877   0.17333   0.52310   0.00000  Uiso   1.00
C1089  C     0.20725   0.17745   0.95187   0.00000  Uiso   1.00
C1090  C     0.13080   0.17319   0.54683   0.00000  Uiso   1.00
C1091  C     0.09736   0.19018   0.97621   0.00000  Uiso   1.00
C1092  C     0.24223   0.16244   0.52195   0.00000  Uiso   1.00
Cu1093 Cu    0.16667   0.21355   0.75000   0.00000  Uiso   1.00
Cu1094 Cu    0.16667   0.11978   0.75000   0.00000  Uiso   1.00
H1095  H     0.13846   0.04468   0.68724   0.00000  Uiso   1.00
H1096  H     0.19398   0.28870   0.81325   0.00000  Uiso   1.00
H1097  H     0.19349   0.04200   0.81332   0.00000  Uiso   1.00
H1098  H     0.13835   0.29125   0.68737   0.00000  Uiso   1.00
N1099  N     0.16667   0.28402   0.75000   0.00000  Uiso   1.00
N1100  N     0.16667   0.04931   0.75000   0.00000  Uiso   1.00
O1101  O     0.10655   0.20625   0.75000   0.00000  Uiso   1.00
O1102  O     0.22679   0.12709   0.75001   0.00000  Uiso   1.00
O1103  O     0.22679   0.20625   0.75001   0.00000  Uiso   1.00
O1104  O     0.10655   0.12709   0.75000   0.00000  Uiso   1.00
O1105  O     0.16666   0.20627   0.68513   0.00000  Uiso   1.00
O1106  O     0.16668   0.12707   0.81487   0.00000  Uiso   1.00
O1107  O     0.16668   0.20627   0.81487   0.00000  Uiso   1.00
O1108  O     0.16666   0.12707   0.68513   0.00000  Uiso   1.00
Cl1109 Cl    0.24372   0.20380   0.86844   0.00000  Uiso   1.00
Cl1110 Cl    0.09006   0.13637   0.62270   0.00000  Uiso   1.00
C1111  C     0.09806   0.13105   0.89225   0.00000  Uiso   1.00
C1112  C     0.10841   0.07858   0.89291   0.00000  Uiso   1.00
H1113  H     0.13413   0.07057   0.86979   0.00000  Uiso   1.00
H1114  H     0.11664   0.06696   0.92709   0.00000  Uiso   1.00
H1115  H     0.08161   0.05812   0.88297   0.00000  Uiso   1.00
H1116  H     0.07016   0.13486   0.91326   0.00000  Uiso   1.00
H1117  H     0.09023   0.14361   0.85836   0.00000  Uiso   1.00
C1118  C     0.23893   0.20267   0.61491   0.00000  Uiso   1.00
C1119  C     0.23073   0.25564   0.61496   0.00000  Uiso   1.00
H1120  H     0.22763   0.26909   0.58024   0.00000  Uiso   1.00
H1121  H     0.20252   0.26417   0.63407   0.00000  Uiso   1.00
H1122  H     0.25649   0.27408   0.63006   0.00000  Uiso   1.00
H1123  H     0.24263   0.18865   0.64921   0.00000  Uiso   1.00
H1124  H     0.26873   0.19802   0.59794   0.00000  Uiso   1.00
C1125  C     0.06676   0.21838   0.94875   0.00000  Uiso   1.00
C1126  C     0.06755   0.27101   0.95823   0.00000  Uiso   1.00
H1127  H     0.05121   0.27934   0.98968   0.00000  Uiso   1.00
H1128  H     0.09940   0.28354   0.95959   0.00000  Uiso   1.00
H1129  H     0.05207   0.29073   0.93113   0.00000  Uiso   1.00
H1130  H     0.07360   0.21614   0.91261   0.00000  Uiso   1.00
H1131  H     0.03616   0.20374   0.95334   0.00000  Uiso   1.00
C1132  C     0.27546   0.13200   0.54310   0.00000  Uiso   1.00
C1133  C     0.28219   0.08603   0.51824   0.00000  Uiso   1.00
H1134  H     0.25323   0.06632   0.51701   0.00000  Uiso   1.00
H1135  H     0.29378   0.09247   0.98375   0.00000  Uiso   1.00
H1136  H     0.30488   0.06396   0.53598   0.00000  Uiso   1.00
H1137  H     0.30439   0.15142   0.54523   0.00000  Uiso   1.00
H1138  H     0.26678   0.12131   0.57772   0.00000  Uiso   1.00
C1139  C     0.05569   0.20165   0.54818   0.00000  Uiso   1.00
C1140  C     0.06190   0.24355   0.57860   0.00000  Uiso   1.00
H1141  H     0.07828   0.27222   0.56050   0.00000  Uiso   1.00
H1142  H     0.03186   0.25716   0.59030   0.00000  Uiso   1.00
H1143  H     0.07951   0.23351   0.60836   0.00000  Uiso   1.00
H1144  H     0.03118   0.21155   0.52527   0.00000  Uiso   1.00
H1145  H     0.04205   0.17180   0.56682   0.00000  Uiso   1.00
C1146  C     0.28561   0.18597   0.95545   0.00000  Uiso   1.00
C1147  C     0.29093   0.23932   0.95069   0.00000  Uiso   1.00
H1148  H     0.26236   0.25731   0.94080   0.00000  Uiso   1.00
H1149  H     0.30015   0.25393   0.98299   0.00000  Uiso   1.00
H1150  H     0.31470   0.24748   0.92502   0.00000  Uiso   1.00
H1151  H     0.31065   0.17304   0.97625   0.00000  Uiso   1.00
H1152  H     0.29106   0.16702   0.92406   0.00000  Uiso   1.00
C1153  C     0.04486   0.08080   0.79272   0.00000  Uiso   1.00
C1154  C     0.05190   0.04493   0.75590   0.00000  Uiso   1.00
H1155  H     0.06564   0.06150   0.72556   0.00000  Uiso   1.00
H1156  H     0.07281   0.01700   0.76797   0.00000  Uiso   1.00
H1157  H     0.02309   0.02881   0.74596   0.00000  Uiso   1.00
H1158  H     0.07427   0.08977   0.80703   0.00000  Uiso   1.00
H1159  H     0.02976   0.06455   0.82242   0.00000  Uiso   1.00
C1160  C     0.29824   0.24707   0.71951   0.00000  Uiso   1.00
C1161  C     0.27596   0.28689   0.74385   0.00000  Uiso   1.00
H1162  H     0.24766   0.29608   0.72614   0.00000  Uiso   1.00
H1163  H     0.26840   0.27712   0.77901   0.00000  Uiso   1.00
H1164  H     0.29475   0.31897   0.74326   0.00000  Uiso   1.00
H1165  H     0.32406   0.26214   0.69961   0.00000  Uiso   1.00
H1166  H     0.27837   0.23246   0.69423   0.00000  Uiso   1.00
C1167  C     0.28871   0.08009   0.79089   0.00000  Uiso   1.00
C1168  C     0.26870   0.08799   0.83645   0.00000  Uiso   1.00
H1169  H     0.29123   0.10166   0.85993   0.00000  Uiso   1.00
H1170  H     0.24313   0.11315   0.83378   0.00000  Uiso   1.00
H1171  H     0.25678   0.05428   0.85028   0.00000  Uiso   1.00
H1172  H     0.26726   0.06680   0.76644   0.00000  Uiso   1.00
H1173  H     0.30774   0.04849   0.79472   0.00000  Uiso   1.00
C1174  C     0.03856   0.25606   0.77577   0.00000  Uiso   1.00
C1175  C     0.05489   0.25432   0.82314   0.00000  Uiso   1.00
H1176  H     0.08042   0.22897   0.82644   0.00000  Uiso   1.00
H1177  H     0.06600   0.28957   0.83210   0.00000  Uiso   1.00
H1178  H     0.03020   0.24408   0.84712   0.00000  Uiso   1.00
H1179  H     0.06168   0.26880   0.75121   0.00000  Uiso   1.00
H1180  H     0.01499   0.28374   0.77647   0.00000  Uiso   1.00
C1181  C     0.42091   0.16666   0.75558   0.00000  Uiso   1.00
C1182  C     0.57958   0.16625   0.75158   0.00000  Uiso   1.00
C1183  C     0.42819   0.18687   0.52358   0.00000  Uiso   1.00
C1184  C     0.57761   0.17466   0.97603   0.00000  Uiso   1.00
C1185  C     0.35511   0.12423   0.77577   0.00000  Uiso   1.00
C1186  C     0.64680   0.20738   0.74984   0.00000  Uiso   1.00
C1187  C     0.64519   0.12397   0.77407   0.00000  Uiso   1.00
C1188  C     0.35408   0.20906   0.76254   0.00000  Uiso   1.00
C1189  C     0.62448   0.16526   0.75746   0.00000  Uiso   1.00
C1190  C     0.37632   0.16654   0.76506   0.00000  Uiso   1.00
C1191  C     0.48455   0.02554   0.71509   0.00000  Uiso   1.00
C1192  C     0.51489   0.30780   0.78520   0.00000  Uiso   1.00
C1193  C     0.51491   0.02404   0.78516   0.00000  Uiso   1.00
C1194  C     0.48443   0.30926   0.71515   0.00000  Uiso   1.00
C1195  C     0.50031   0.16709   0.66436   0.00000  Uiso   1.00
C1196  C     0.50003   0.16640   0.83567   0.00000  Uiso   1.00
C1197  C     0.53819   0.18088   0.90443   0.00000  Uiso   1.00
C1198  C     0.46493   0.16221   0.59301   0.00000  Uiso   1.00
C1199  C     0.50211   0.16665   0.88414   0.00000  Uiso   1.00
C1200  C     0.50119   0.16836   0.61584   0.00000  Uiso   1.00
C1201  C     0.46660   0.15913   0.90983   0.00000  Uiso   1.00
C1202  C     0.53785   0.17744   0.59236   0.00000  Uiso   1.00
C1203  C     0.46618   0.17366   0.95418   0.00000  Uiso   1.00
C1204  C     0.53894   0.17072   0.54602   0.00000  Uiso   1.00
C1205  C     0.50314   0.17434   0.97642   0.00000  Uiso   1.00
C1206  C     0.50210   0.17333   0.52310   0.00000  Uiso   1.00
C1207  C     0.54059   0.17745   0.95187   0.00000  Uiso   1.00
C1208  C     0.46413   0.17319   0.54683   0.00000  Uiso   1.00
C1209  C     0.43069   0.19018   0.97621   0.00000  Uiso   1.00
C1210  C     0.57556   0.16244   0.52195   0.00000  Uiso   1.00
Cu1211 Cu    0.50000   0.21355   0.75000   0.00000  Uiso   1.00
Cu1212 Cu    0.50000   0.11978   0.75000   0.00000  Uiso   1.00
H1213  H     0.47179   0.04468   0.68724   0.00000  Uiso   1.00
H1214  H     0.52732   0.28870   0.81325   0.00000  Uiso   1.00
H1215  H     0.52682   0.04200   0.81332   0.00000  Uiso   1.00
H1216  H     0.47169   0.29125   0.68737   0.00000  Uiso   1.00
N1217  N     0.50000   0.28402   0.75000   0.00000  Uiso   1.00
N1218  N     0.50000   0.04931   0.75000   0.00000  Uiso   1.00
O1219  O     0.43988   0.20625   0.75000   0.00000  Uiso   1.00
O1220  O     0.56012   0.12709   0.75001   0.00000  Uiso   1.00
O1221  O     0.56012   0.20625   0.75001   0.00000  Uiso   1.00
O1222  O     0.43988   0.12709   0.75000   0.00000  Uiso   1.00
O1223  O     0.49999   0.20627   0.68513   0.00000  Uiso   1.00
O1224  O     0.50001   0.12707   0.81487   0.00000  Uiso   1.00
O1225  O     0.50001   0.20627   0.81487   0.00000  Uiso   1.00
O1226  O     0.49999   0.12707   0.68513   0.00000  Uiso   1.00
Cl1227 Cl    0.57706   0.20380   0.86844   0.00000  Uiso   1.00
Cl1228 Cl    0.42339   0.13637   0.62270   0.00000  Uiso   1.00
C1229  C     0.43139   0.13105   0.89225   0.00000  Uiso   1.00
C1230  C     0.44174   0.07858   0.89291   0.00000  Uiso   1.00
H1231  H     0.46746   0.07057   0.86979   0.00000  Uiso   1.00
H1232  H     0.44997   0.06696   0.92709   0.00000  Uiso   1.00
H1233  H     0.41494   0.05812   0.88297   0.00000  Uiso   1.00
H1234  H     0.40349   0.13486   0.91326   0.00000  Uiso   1.00
H1235  H     0.42357   0.14361   0.85836   0.00000  Uiso   1.00
C1236  C     0.57227   0.20267   0.61491   0.00000  Uiso   1.00
C1237  C     0.56406   0.25564   0.61496   0.00000  Uiso   1.00
H1238  H     0.56096   0.26909   0.58024   0.00000  Uiso   1.00
H1239  H     0.53585   0.26417   0.63407   0.00000  Uiso   1.00
H1240  H     0.58982   0.27408   0.63006   0.00000  Uiso   1.00
H1241  H     0.57597   0.18865   0.64921   0.00000  Uiso   1.00
H1242  H     0.60207   0.19802   0.59794   0.00000  Uiso   1.00
C1243  C     0.40010   0.21838   0.94875   0.00000  Uiso   1.00
C1244  C     0.40089   0.27101   0.95823   0.00000  Uiso   1.00
H1245  H     0.38455   0.27934   0.98968   0.00000  Uiso   1.00
H1246  H     0.43273   0.28354   0.95959   0.00000  Uiso   1.00
H1247  H     0.38540   0.29073   0.93113   0.00000  Uiso   1.00
H1248  H     0.40693   0.21614   0.91261   0.00000  Uiso   1.00
H1249  H     0.36949   0.20374   0.95334   0.00000  Uiso   1.00
C1250  C     0.60879   0.13200   0.54310   0.00000  Uiso   1.00
C1251  C     0.61552   0.08603   0.51824   0.00000  Uiso   1.00
H1252  H     0.58656   0.06632   0.51701   0.00000  Uiso   1.00
H1253  H     0.62711   0.09247   0.98375   0.00000  Uiso   1.00
H1254  H     0.63821   0.06396   0.53598   0.00000  Uiso   1.00
H1255  H     0.63773   0.15142   0.54523   0.00000  Uiso   1.00
H1256  H     0.60011   0.12131   0.57772   0.00000  Uiso   1.00
C1257  C     0.38902   0.20165   0.54818   0.00000  Uiso   1.00
C1258  C     0.39524   0.24355   0.57860   0.00000  Uiso   1.00
H1259  H     0.41161   0.27222   0.56050   0.00000  Uiso   1.00
H1260  H     0.36519   0.25716   0.59030   0.00000  Uiso   1.00
H1261  H     0.41284   0.23351   0.60836   0.00000  Uiso   1.00
H1262  H     0.36451   0.21155   0.52527   0.00000  Uiso   1.00
H1263  H     0.37538   0.17180   0.56682   0.00000  Uiso   1.00
C1264  C     0.61895   0.18597   0.95545   0.00000  Uiso   1.00
C1265  C     0.62426   0.23932   0.95069   0.00000  Uiso   1.00
H1266  H     0.59569   0.25731   0.94080   0.00000  Uiso   1.00
H1267  H     0.63348   0.25393   0.98299   0.00000  Uiso   1.00
H1268  H     0.64803   0.24748   0.92502   0.00000  Uiso   1.00
H1269  H     0.64398   0.17304   0.97625   0.00000  Uiso   1.00
H1270  H     0.62439   0.16702   0.92406   0.00000  Uiso   1.00
C1271  C     0.37819   0.08080   0.79272   0.00000  Uiso   1.00
C1272  C     0.38523   0.04493   0.75590   0.00000  Uiso   1.00
H1273  H     0.39898   0.06150   0.72556   0.00000  Uiso   1.00
H1274  H     0.40615   0.01700   0.76797   0.00000  Uiso   1.00
H1275  H     0.35642   0.02881   0.74596   0.00000  Uiso   1.00
H1276  H     0.40760   0.08977   0.80703   0.00000  Uiso   1.00
H1277  H     0.36309   0.06455   0.82242   0.00000  Uiso   1.00
C1278  C     0.63157   0.24707   0.71951   0.00000  Uiso   1.00
C1279  C     0.60929   0.28689   0.74385   0.00000  Uiso   1.00
H1280  H     0.58099   0.29608   0.72614   0.00000  Uiso   1.00
H1281  H     0.60174   0.27712   0.77901   0.00000  Uiso   1.00
H1282  H     0.62808   0.31897   0.74326   0.00000  Uiso   1.00
H1283  H     0.65739   0.26214   0.69961   0.00000  Uiso   1.00
H1284  H     0.61171   0.23246   0.69423   0.00000  Uiso   1.00
C1285  C     0.62205   0.08009   0.79089   0.00000  Uiso   1.00
C1286  C     0.60203   0.08799   0.83645   0.00000  Uiso   1.00
H1287  H     0.62456   0.10166   0.85993   0.00000  Uiso   1.00
H1288  H     0.57646   0.11315   0.83378   0.00000  Uiso   1.00
H1289  H     0.59012   0.05428   0.85028   0.00000  Uiso   1.00
H1290  H     0.60059   0.06680   0.76644   0.00000  Uiso   1.00
H1291  H     0.64107   0.04849   0.79472   0.00000  Uiso   1.00
C1292  C     0.37190   0.25606   0.77577   0.00000  Uiso   1.00
C1293  C     0.38822   0.25432   0.82314   0.00000  Uiso   1.00
H1294  H     0.41375   0.22897   0.82644   0.00000  Uiso   1.00
H1295  H     0.39934   0.28957   0.83210   0.00000  Uiso   1.00
H1296  H     0.36353   0.24408   0.84712   0.00000  Uiso   1.00
H1297  H     0.39502   0.26880   0.75121   0.00000  Uiso   1.00
H1298  H     0.34833   0.28374   0.77647   0.00000  Uiso   1.00
C1299  C     0.75424   0.16666   0.75558   0.00000  Uiso   1.00
C1300  C     0.91291   0.16625   0.75158   0.00000  Uiso   1.00
C1301  C     0.76152   0.18687   0.52358   0.00000  Uiso   1.00
C1302  C     0.91095   0.17466   0.97603   0.00000  Uiso   1.00
C1303  C     0.68844   0.12423   0.77577   0.00000  Uiso   1.00
C1304  C     0.98013   0.20738   0.74984   0.00000  Uiso   1.00
C1305  C     0.97852   0.12397   0.77407   0.00000  Uiso   1.00
C1306  C     0.68742   0.20906   0.76254   0.00000  Uiso   1.00
C1307  C     0.95781   0.16526   0.75746   0.00000  Uiso   1.00
C1308  C     0.70966   0.16654   0.76506   0.00000  Uiso   1.00
C1309  C     0.81788   0.02554   0.71509   0.00000  Uiso   1.00
C1310  C     0.84822   0.30780   0.78520   0.00000  Uiso   1.00
C1311  C     0.84824   0.02404   0.78516   0.00000  Uiso   1.00
C1312  C     0.81777   0.30926   0.71515   0.00000  Uiso   1.00
C1313  C     0.83364   0.16709   0.66436   0.00000  Uiso   1.00
C1314  C     0.83336   0.16640   0.83567   0.00000  Uiso   1.00
C1315  C     0.87152   0.18088   0.90443   0.00000  Uiso   1.00
C1316  C     0.79826   0.16221   0.59301   0.00000  Uiso   1.00
C1317  C     0.83544   0.16665   0.88414   0.00000  Uiso   1.00
C1318  C     0.83453   0.16836   0.61584   0.00000  Uiso   1.00
C1319  C     0.79993   0.15913   0.90983   0.00000  Uiso   1.00
C1320  C     0.87118   0.17744   0.59236   0.00000  Uiso   1.00
C1321  C     0.79952   0.17366   0.95418   0.00000  Uiso   1.00
C1322  C     0.87228   0.17072   0.54602   0.00000  Uiso   1.00
C1323  C     0.83647   0.17434   0.97642   0.00000  Uiso   1.00
C1324  C     0.83543   0.17333   0.52310   0.00000  Uiso   1.00
C1325  C     0.87392   0.17745   0.95187   0.00000  Uiso   1.00
C1326  C     0.79746   0.17319   0.54683   0.00000  Uiso   1.00
C1327  C     0.76402   0.19018   0.97621   0.00000  Uiso   1.00
C1328  C     0.90889   0.16244   0.52195   0.00000  Uiso   1.00
Cu1329 Cu    0.83333   0.21355   0.75000   0.00000  Uiso   1.00
Cu1330 Cu    0.83333   0.11978   0.75000   0.00000  Uiso   1.00
H1331  H     0.80513   0.04468   0.68724   0.00000  Uiso   1.00
H1332  H     0.86065   0.28870   0.81325   0.00000  Uiso   1.00
H1333  H     0.86016   0.04200   0.81332   0.00000  Uiso   1.00
H1334  H     0.80502   0.29125   0.68737   0.00000  Uiso   1.00
N1335  N     0.83333   0.28402   0.75000   0.00000  Uiso   1.00
N1336  N     0.83333   0.04931   0.75000   0.00000  Uiso   1.00
O1337  O     0.77321   0.20625   0.75000   0.00000  Uiso   1.00
O1338  O     0.89345   0.12709   0.75001   0.00000  Uiso   1.00
O1339  O     0.89345   0.20625   0.75001   0.00000  Uiso   1.00
O1340  O     0.77321   0.12709   0.75000   0.00000  Uiso   1.00
O1341  O     0.83332   0.20627   0.68513   0.00000  Uiso   1.00
O1342  O     0.83334   0.12707   0.81487   0.00000  Uiso   1.00
O1343  O     0.83334   0.20627   0.81487   0.00000  Uiso   1.00
O1344  O     0.83332   0.12707   0.68513   0.00000  Uiso   1.00
Cl1345 Cl    0.91039   0.20380   0.86844   0.00000  Uiso   1.00
Cl1346 Cl    0.75673   0.13637   0.62270   0.00000  Uiso   1.00
C1347  C     0.76473   0.13105   0.89225   0.00000  Uiso   1.00
C1348  C     0.77508   0.07858   0.89291   0.00000  Uiso   1.00
H1349  H     0.80079   0.07057   0.86979   0.00000  Uiso   1.00
H1350  H     0.78331   0.06696   0.92709   0.00000  Uiso   1.00
H1351  H     0.74828   0.05812   0.88297   0.00000  Uiso   1.00
H1352  H     0.73683   0.13486   0.91326   0.00000  Uiso   1.00
H1353  H     0.75690   0.14361   0.85836   0.00000  Uiso   1.00
C1354  C     0.90560   0.20267   0.61491   0.00000  Uiso   1.00
C1355  C     0.89740   0.25564   0.61496   0.00000  Uiso   1.00
H1356  H     0.89430   0.26909   0.58024   0.00000  Uiso   1.00
H1357  H     0.86919   0.26417   0.63407   0.00000  Uiso   1.00
H1358  H     0.92315   0.27408   0.63006   0.00000  Uiso   1.00
H1359  H     0.90930   0.18865   0.64921   0.00000  Uiso   1.00
H1360  H     0.93540   0.19802   0.59794   0.00000  Uiso   1.00
C1361  C     0.73343   0.21838   0.94875   0.00000  Uiso   1.00
C1362  C     0.73422   0.27101   0.95823   0.00000  Uiso   1.00
H1363  H     0.71788   0.27934   0.98968   0.00000  Uiso   1.00
H1364  H     0.76606   0.28354   0.95959   0.00000  Uiso   1.00
H1365  H     0.71874   0.29073   0.93113   0.00000  Uiso   1.00
H1366  H     0.74026   0.21614   0.91261   0.00000  Uiso   1.00
H1367  H     0.70282   0.20374   0.95334   0.00000  Uiso   1.00
C1368  C     0.94212   0.13200   0.54310   0.00000  Uiso   1.00
C1369  C     0.94886   0.08603   0.51824   0.00000  Uiso   1.00
H1370  H     0.91990   0.06632   0.51701   0.00000  Uiso   1.00
H1371  H     0.96045   0.09247   0.98375   0.00000  Uiso   1.00
H1372  H     0.97155   0.06396   0.53598   0.00000  Uiso   1.00
H1373  H     0.97106   0.15142   0.54523   0.00000  Uiso   1.00
H1374  H     0.93345   0.12131   0.57772   0.00000  Uiso   1.00
C1375  C     0.72235   0.20165   0.54818   0.00000  Uiso   1.00
C1376  C     0.72857   0.24355   0.57860   0.00000  Uiso   1.00
H1377  H     0.74494   0.27222   0.56050   0.00000  Uiso   1.00
H1378  H     0.69852   0.25716   0.59030   0.00000  Uiso   1.00
H1379  H     0.74618   0.23351   0.60836   0.00000  Uiso   1.00
H1380  H     0.69784   0.21155   0.52527   0.00000  Uiso   1.00
H1381  H     0.70871   0.17180   0.56682   0.00000  Uiso   1.00
C1382  C     0.95228   0.18597   0.95545   0.00000  Uiso   1.00
C1383  C     0.95760   0.23932   0.95069   0.00000  Uiso   1.00
H1384  H     0.92902   0.25731   0.94080   0.00000  Uiso   1.00
H1385  H     0.96681   0.25393   0.98299   0.00000  Uiso   1.00
H1386  H     0.98137   0.24748   0.92502   0.00000  Uiso   1.00
H1387  H     0.97732   0.17304   0.97625   0.00000  Uiso   1.00
H1388  H     0.95772   0.16702   0.92406   0.00000  Uiso   1.00
C1389  C     0.71152   0.08080   0.79272   0.00000  Uiso   1.00
C1390  C     0.71856   0.04493   0.75590   0.00000  Uiso   1.00
H1391  H     0.73231   0.06150   0.72556   0.00000  Uiso   1.00
H1392  H     0.73948   0.01700   0.76797   0.00000  Uiso   1.00
H1393  H     0.68976   0.02881   0.74596   0.00000  Uiso   1.00
H1394  H     0.74094   0.08977   0.80703   0.00000  Uiso   1.00
H1395  H     0.69643   0.06455   0.82242   0.00000  Uiso   1.00
C1396  C     0.96490   0.24707   0.71951   0.00000  Uiso   1.00
C1397  C     0.94263   0.28689   0.74385   0.00000  Uiso   1.00
H1398  H     0.91433   0.29608   0.72614   0.00000  Uiso   1.00
H1399  H     0.93507   0.27712   0.77901   0.00000  Uiso   1.00
H1400  H     0.96142   0.31897   0.74326   0.00000  Uiso   1.00
H1401  H     0.99073   0.26214   0.69961   0.00000  Uiso   1.00
H1402  H     0.94504   0.23246   0.69423   0.00000  Uiso   1.00
C1403  C     0.95538   0.08009   0.79089   0.00000  Uiso   1.00
C1404  C     0.93536   0.08799   0.83645   0.00000  Uiso   1.00
H1405  H     0.95789   0.10166   0.85993   0.00000  Uiso   1.00
H1406  H     0.90980   0.11315   0.83378   0.00000  Uiso   1.00
H1407  H     0.92345   0.05428   0.85028   0.00000  Uiso   1.00
H1408  H     0.93392   0.06680   0.76644   0.00000  Uiso   1.00
H1409  H     0.97440   0.04849   0.79472   0.00000  Uiso   1.00
C1410  C     0.70523   0.25606   0.77577   0.00000  Uiso   1.00
C1411  C     0.72155   0.25432   0.82314   0.00000  Uiso   1.00
H1412  H     0.74709   0.22897   0.82644   0.00000  Uiso   1.00
H1413  H     0.73267   0.28957   0.83210   0.00000  Uiso   1.00
H1414  H     0.69687   0.24408   0.84712   0.00000  Uiso   1.00
H1415  H     0.72835   0.26880   0.75121   0.00000  Uiso   1.00
H1416  H     0.68166   0.28374   0.77647   0.00000  Uiso   1.00
C1417  C     0.08757   0.49999   0.75558   0.00000  Uiso   1.00
C1418  C     0.24625   0.49958   0.75158   0.00000  Uiso   1.00
C1419  C     0.09486   0.52020   0.52358   0.00000  Uiso   1.00
C1420  C     0.24428   0.50799   0.97603   0.00000  Uiso   1.00
C1421  C     0.02178   0.45757   0.77577   0.00000  Uiso   1.00
C1422  C     0.31347   0.54071   0.74984   0.00000  Uiso   1.00
C1423  C     0.31185   0.45730   0.77407   0.00000  Uiso   1.00
C1424  C     0.02075   0.54240   0.76254   0.00000  Uiso   1.00
C1425  C     0.29114   0.49860   0.75746   0.00000  Uiso   1.00
C1426  C     0.04299   0.49987   0.76506   0.00000  Uiso   1.00
C1427  C     0.15121   0.35887   0.71509   0.00000  Uiso   1.00
C1428  C     0.18156   0.64113   0.78520   0.00000  Uiso   1.00
C1429  C     0.18157   0.35737   0.78516   0.00000  Uiso   1.00
C1430  C     0.15110   0.64260   0.71515   0.00000  Uiso   1.00
C1431  C     0.16697   0.50042   0.66436   0.00000  Uiso   1.00
C1432  C     0.16670   0.49973   0.83567   0.00000  Uiso   1.00
C1433  C     0.20485   0.51421   0.90443   0.00000  Uiso   1.00
C1434  C     0.13160   0.49554   0.59301   0.00000  Uiso   1.00
C1435  C     0.16878   0.49998   0.88414   0.00000  Uiso   1.00
C1436  C     0.16786   0.50169   0.61584   0.00000  Uiso   1.00
C1437  C     0.13327   0.49246   0.90983   0.00000  Uiso   1.00
C1438  C     0.20451   0.51077   0.59236   0.00000  Uiso   1.00
C1439  C     0.13285   0.50699   0.95418   0.00000  Uiso   1.00
C1440  C     0.20561   0.50406   0.54602   0.00000  Uiso   1.00
C1441  C     0.16981   0.50767   0.97642   0.00000  Uiso   1.00
C1442  C     0.16877   0.50666   0.52310   0.00000  Uiso   1.00
C1443  C     0.20725   0.51078   0.95187   0.00000  Uiso   1.00
C1444  C     0.13080   0.50652   0.54683   0.00000  Uiso   1.00
C1445  C     0.09736   0.52352   0.97621   0.00000  Uiso   1.00
C1446  C     0.24223   0.49577   0.52195   0.00000  Uiso   1.00
Cu1447 Cu    0.16667   0.54689   0.75000   0.00000  Uiso   1.00
Cu1448 Cu    0.16667   0.45311   0.75000   0.00000  Uiso   1.00
H1449  H     0.13846   0.37801   0.68724   0.00000  Uiso   1.00
H1450  H     0.19398   0.62203   0.81325   0.00000  Uiso   1.00
H1451  H     0.19349   0.37533   0.81332   0.00000  Uiso   1.00
H1452  H     0.13835   0.62458   0.68737   0.00000  Uiso   1.00
N1453  N     0.16667   0.61736   0.75000   0.00000  Uiso   1.00
N1454  N     0.16667   0.38264   0.75000   0.00000  Uiso   1.00
O1455  O     0.10655   0.53958   0.75000   0.00000  Uiso   1.00
O1456  O     0.22679   0.46042   0.75001   0.00000  Uiso   1.00
O1457  O     0.22679   0.53958   0.75001   0.00000  Uiso   1.00
O1458  O     0.10655   0.46042   0.75000   0.00000  Uiso   1.00
O1459  O     0.16666   0.53960   0.68513   0.00000  Uiso   1.00
O1460  O     0.16668   0.46040   0.81487   0.00000  Uiso   1.00
O1461  O     0.16668   0.53960   0.81487   0.00000  Uiso   1.00
O1462  O     0.16666   0.46040   0.68513   0.00000  Uiso   1.00
Cl1463 Cl    0.24372   0.53713   0.86844   0.00000  Uiso   1.00
Cl1464 Cl    0.09006   0.46970   0.62270   0.00000  Uiso   1.00
C1465  C     0.09806   0.46438   0.89225   0.00000  Uiso   1.00
C1466  C     0.10841   0.41191   0.89291   0.00000  Uiso   1.00
H1467  H     0.13413   0.40391   0.86979   0.00000  Uiso   1.00
H1468  H     0.11664   0.40029   0.92709   0.00000  Uiso   1.00
H1469  H     0.08161   0.39146   0.88297   0.00000  Uiso   1.00
H1470  H     0.07016   0.46820   0.91326   0.00000  Uiso   1.00
H1471  H     0.09023   0.47694   0.85836   0.00000  Uiso   1.00
C1472  C     0.23893   0.53601   0.61491   0.00000  Uiso   1.00
C1473  C     0.23073   0.58897   0.61496   0.00000  Uiso   1.00
H1474  H     0.22763   0.60243   0.58024   0.00000  Uiso   1.00
H1475  H     0.20252   0.59750   0.63407   0.00000  Uiso   1.00
H1476  H     0.25649   0.60741   0.63006   0.00000  Uiso   1.00
H1477  H     0.24263   0.52199   0.64921   0.00000  Uiso   1.00
H1478  H     0.26873   0.53136   0.59794   0.00000  Uiso   1.00
C1479  C     0.06676   0.55171   0.94875   0.00000  Uiso   1.00
C1480  C     0.06755   0.60434   0.95823   0.00000  Uiso   1.00
H1481  H     0.05121   0.61267   0.98968   0.00000  Uiso   1.00
H1482  H     0.09940   0.61687   0.95959   0.00000  Uiso   1.00
H1483  H     0.05207   0.62406   0.93113   0.00000  Uiso   1.00
H1484  H     0.07360   0.54948   0.91261   0.00000  Uiso   1.00
H1485  H     0.03616   0.53707   0.95334   0.00000  Uiso   1.00
C1486  C     0.27546   0.46533   0.54310   0.00000  Uiso   1.00
C1487  C     0.28219   0.41936   0.51824   0.00000  Uiso   1.00
H1488  H     0.25323   0.39966   0.51701   0.00000  Uiso   1.00
H1489  H     0.29378   0.42580   0.98375   0.00000  Uiso   1.00
H1490  H     0.30488   0.39730   0.53598   0.00000  Uiso   1.00
H1491  H     0.30439   0.48476   0.54523   0.00000  Uiso   1.00
H1492  H     0.26678   0.45464   0.57772   0.00000  Uiso   1.00
C1493  C     0.05569   0.53498   0.54818   0.00000  Uiso   1.00
C1494  C     0.06190   0.57689   0.57860   0.00000  Uiso   1.00
H1495  H     0.07828   0.60555   0.56050   0.00000  Uiso   1.00
H1496  H     0.03186   0.59049   0.59030   0.00000  Uiso   1.00
H1497  H     0.07951   0.56685   0.60836   0.00000  Uiso   1.00
H1498  H     0.03118   0.54488   0.52527   0.00000  Uiso   1.00
H1499  H     0.04205   0.50513   0.56682   0.00000  Uiso   1.00
C1500  C     0.28561   0.51930   0.95545   0.00000  Uiso   1.00
C1501  C     0.29093   0.57265   0.95069   0.00000  Uiso   1.00
H1502  H     0.26236   0.59064   0.94080   0.00000  Uiso   1.00
H1503  H     0.30015   0.58726   0.98299   0.00000  Uiso   1.00
H1504  H     0.31470   0.58081   0.92502   0.00000  Uiso   1.00
H1505  H     0.31065   0.50637   0.97625   0.00000  Uiso   1.00
H1506  H     0.29106   0.50035   0.92406   0.00000  Uiso   1.00
C1507  C     0.04486   0.41414   0.79272   0.00000  Uiso   1.00
C1508  C     0.05190   0.37826   0.75590   0.00000  Uiso   1.00
H1509  H     0.06564   0.39483   0.72556   0.00000  Uiso   1.00
H1510  H     0.07281   0.35034   0.76797   0.00000  Uiso   1.00
H1511  H     0.02309   0.36214   0.74596   0.00000  Uiso   1.00
H1512  H     0.07427   0.42311   0.80703   0.00000  Uiso   1.00
H1513  H     0.02976   0.39789   0.82242   0.00000  Uiso   1.00
C1514  C     0.29824   0.58040   0.71951   0.00000  Uiso   1.00
C1515  C     0.27596   0.62023   0.74385   0.00000  Uiso   1.00
H1516  H     0.24766   0.62942   0.72614   0.00000  Uiso   1.00
H1517  H     0.26840   0.61046   0.77901   0.00000  Uiso   1.00
H1518  H     0.29475   0.65230   0.74326   0.00000  Uiso   1.00
H1519  H     0.32406   0.59548   0.69961   0.00000  Uiso   1.00
H1520  H     0.27837   0.56580   0.69423   0.00000  Uiso   1.00
C1521  C     0.28871   0.41342   0.79089   0.00000  Uiso   1.00
C1522  C     0.26870   0.42133   0.83645   0.00000  Uiso   1.00
H1523  H     0.29123   0.43499   0.85993   0.00000  Uiso   1.00
H1524  H     0.24313   0.44648   0.83378   0.00000  Uiso   1.00
H1525  H     0.25678   0.38762   0.85028   0.00000  Uiso   1.00
H1526  H     0.26726   0.40014   0.76644   0.00000  Uiso   1.00
H1527  H     0.30774   0.38182   0.79472   0.00000  Uiso   1.00
C1528  C     0.03856   0.58939   0.77577   0.00000  Uiso   1.00
C1529  C     0.05489   0.58765   0.82314   0.00000  Uiso   1.00
H1530  H     0.08042   0.56231   0.82644   0.00000  Uiso   1.00
H1531  H     0.06600   0.62290   0.83210   0.00000  Uiso   1.00
H1532  H     0.03020   0.57742   0.84712   0.00000  Uiso   1.00
H1533  H     0.06168   0.60213   0.75121   0.00000  Uiso   1.00
H1534  H     0.01499   0.61707   0.77647   0.00000  Uiso   1.00
C1535  C     0.42091   0.49999   0.75558   0.00000  Uiso   1.00
C1536  C     0.57958   0.49958   0.75158   0.00000  Uiso   1.00
C1537  C     0.42819   0.52020   0.52358   0.00000  Uiso   1.00
C1538  C     0.57761   0.50799   0.97603   0.00000  Uiso   1.00
C1539  C     0.35511   0.45757   0.77577   0.00000  Uiso   1.00
C1540  C     0.64680   0.54071   0.74984   0.00000  Uiso   1.00
C1541  C     0.64519   0.45730   0.77407   0.00000  Uiso   1.00
C1542  C     0.35408   0.54240   0.76254   0.00000  Uiso   1.00
C1543  C     0.62448   0.49860   0.75746   0.00000  Uiso   1.00
C1544  C     0.37632   0.49987   0.76506   0.00000  Uiso   1.00
C1545  C     0.48455   0.35887   0.71509   0.00000  Uiso   1.00
C1546  C     0.51489   0.64113   0.78520   0.00000  Uiso   1.00
C1547  C     0.51491   0.35737   0.78516   0.00000  Uiso   1.00
C1548  C     0.48443   0.64260   0.71515   0.00000  Uiso   1.00
C1549  C     0.50031   0.50042   0.66436   0.00000  Uiso   1.00
C1550  C     0.50003   0.49973   0.83567   0.00000  Uiso   1.00
C1551  C     0.53819   0.51421   0.90443   0.00000  Uiso   1.00
C1552  C     0.46493   0.49554   0.59301   0.00000  Uiso   1.00
C1553  C     0.50211   0.49998   0.88414   0.00000  Uiso   1.00
C1554  C     0.50119   0.50169   0.61584   0.00000  Uiso   1.00
C1555  C     0.46660   0.49246   0.90983   0.00000  Uiso   1.00
C1556  C     0.53785   0.51077   0.59236   0.00000  Uiso   1.00
C1557  C     0.46618   0.50699   0.95418   0.00000  Uiso   1.00
C1558  C     0.53894   0.50406   0.54602   0.00000  Uiso   1.00
C1559  C     0.50314   0.50767   0.97642   0.00000  Uiso   1.00
C1560  C     0.50210   0.50666   0.52310   0.00000  Uiso   1.00
C1561  C     0.54059   0.51078   0.95187   0.00000  Uiso   1.00
C1562  C     0.46413   0.50652   0.54683   0.00000  Uiso   1.00
C1563  C     0.43069   0.52352   0.97621   0.00000  Uiso   1.00
C1564  C     0.57556   0.49577   0.52195   0.00000  Uiso   1.00
Cu1565 Cu    0.50000   0.54689   0.75000   0.00000  Uiso   1.00
Cu1566 Cu    0.50000   0.45311   0.75000   0.00000  Uiso   1.00
H1567  H     0.47179   0.37801   0.68724   0.00000  Uiso   1.00
H1568  H     0.52732   0.62203   0.81325   0.00000  Uiso   1.00
H1569  H     0.52682   0.37533   0.81332   0.00000  Uiso   1.00
H1570  H     0.47169   0.62458   0.68737   0.00000  Uiso   1.00
N1571  N     0.50000   0.61736   0.75000   0.00000  Uiso   1.00
N1572  N     0.50000   0.38264   0.75000   0.00000  Uiso   1.00
O1573  O     0.43988   0.53958   0.75000   0.00000  Uiso   1.00
O1574  O     0.56012   0.46042   0.75001   0.00000  Uiso   1.00
O1575  O     0.56012   0.53958   0.75001   0.00000  Uiso   1.00
O1576  O     0.43988   0.46042   0.75000   0.00000  Uiso   1.00
O1577  O     0.49999   0.53960   0.68513   0.00000  Uiso   1.00
O1578  O     0.50001   0.46040   0.81487   0.00000  Uiso   1.00
O1579  O     0.50001   0.53960   0.81487   0.00000  Uiso   1.00
O1580  O     0.49999   0.46040   0.68513   0.00000  Uiso   1.00
Cl1581 Cl    0.57706   0.53713   0.86844   0.00000  Uiso   1.00
Cl1582 Cl    0.42339   0.46970   0.62270   0.00000  Uiso   1.00
C1583  C     0.43139   0.46438   0.89225   0.00000  Uiso   1.00
C1584  C     0.44174   0.41191   0.89291   0.00000  Uiso   1.00
H1585  H     0.46746   0.40391   0.86979   0.00000  Uiso   1.00
H1586  H     0.44997   0.40029   0.92709   0.00000  Uiso   1.00
H1587  H     0.41494   0.39146   0.88297   0.00000  Uiso   1.00
H1588  H     0.40349   0.46820   0.91326   0.00000  Uiso   1.00
H1589  H     0.42357   0.47694   0.85836   0.00000  Uiso   1.00
C1590  C     0.57227   0.53601   0.61491   0.00000  Uiso   1.00
C1591  C     0.56406   0.58897   0.61496   0.00000  Uiso   1.00
H1592  H     0.56096   0.60243   0.58024   0.00000  Uiso   1.00
H1593  H     0.53585   0.59750   0.63407   0.00000  Uiso   1.00
H1594  H     0.58982   0.60741   0.63006   0.00000  Uiso   1.00
H1595  H     0.57597   0.52199   0.64921   0.00000  Uiso   1.00
H1596  H     0.60207   0.53136   0.59794   0.00000  Uiso   1.00
C1597  C     0.40010   0.55171   0.94875   0.00000  Uiso   1.00
C1598  C     0.40089   0.60434   0.95823   0.00000  Uiso   1.00
H1599  H     0.38455   0.61267   0.98968   0.00000  Uiso   1.00
H1600  H     0.43273   0.61687   0.95959   0.00000  Uiso   1.00
H1601  H     0.38540   0.62406   0.93113   0.00000  Uiso   1.00
H1602  H     0.40693   0.54948   0.91261   0.00000  Uiso   1.00
H1603  H     0.36949   0.53707   0.95334   0.00000  Uiso   1.00
C1604  C     0.60879   0.46533   0.54310   0.00000  Uiso   1.00
C1605  C     0.61552   0.41936   0.51824   0.00000  Uiso   1.00
H1606  H     0.58656   0.39966   0.51701   0.00000  Uiso   1.00
H1607  H     0.62711   0.42580   0.98375   0.00000  Uiso   1.00
H1608  H     0.63821   0.39730   0.53598   0.00000  Uiso   1.00
H1609  H     0.63773   0.48476   0.54523   0.00000  Uiso   1.00
H1610  H     0.60011   0.45464   0.57772   0.00000  Uiso   1.00
C1611  C     0.38902   0.53498   0.54818   0.00000  Uiso   1.00
C1612  C     0.39524   0.57689   0.57860   0.00000  Uiso   1.00
H1613  H     0.41161   0.60555   0.56050   0.00000  Uiso   1.00
H1614  H     0.36519   0.59049   0.59030   0.00000  Uiso   1.00
H1615  H     0.41284   0.56685   0.60836   0.00000  Uiso   1.00
H1616  H     0.36451   0.54488   0.52527   0.00000  Uiso   1.00
H1617  H     0.37538   0.50513   0.56682   0.00000  Uiso   1.00
C1618  C     0.61895   0.51930   0.95545   0.00000  Uiso   1.00
C1619  C     0.62426   0.57265   0.95069   0.00000  Uiso   1.00
H1620  H     0.59569   0.59064   0.94080   0.00000  Uiso   1.00
H1621  H     0.63348   0.58726   0.98299   0.00000  Uiso   1.00
H1622  H     0.64803   0.58081   0.92502   0.00000  Uiso   1.00
H1623  H     0.64398   0.50637   0.97625   0.00000  Uiso   1.00
H1624  H     0.62439   0.50035   0.92406   0.00000  Uiso   1.00
C1625  C     0.37819   0.41414   0.79272   0.00000  Uiso   1.00
C1626  C     0.38523   0.37826   0.75590   0.00000  Uiso   1.00
H1627  H     0.39898   0.39483   0.72556   0.00000  Uiso   1.00
H1628  H     0.40615   0.35034   0.76797   0.00000  Uiso   1.00
H1629  H     0.35642   0.36214   0.74596   0.00000  Uiso   1.00
H1630  H     0.40760   0.42311   0.80703   0.00000  Uiso   1.00
H1631  H     0.36309   0.39789   0.82242   0.00000  Uiso   1.00
C1632  C     0.63157   0.58040   0.71951   0.00000  Uiso   1.00
C1633  C     0.60929   0.62023   0.74385   0.00000  Uiso   1.00
H1634  H     0.58099   0.62942   0.72614   0.00000  Uiso   1.00
H1635  H     0.60174   0.61046   0.77901   0.00000  Uiso   1.00
H1636  H     0.62808   0.65230   0.74326   0.00000  Uiso   1.00
H1637  H     0.65739   0.59548   0.69961   0.00000  Uiso   1.00
H1638  H     0.61171   0.56580   0.69423   0.00000  Uiso   1.00
C1639  C     0.62205   0.41342   0.79089   0.00000  Uiso   1.00
C1640  C     0.60203   0.42133   0.83645   0.00000  Uiso   1.00
H1641  H     0.62456   0.43499   0.85993   0.00000  Uiso   1.00
H1642  H     0.57646   0.44648   0.83378   0.00000  Uiso   1.00
H1643  H     0.59012   0.38762   0.85028   0.00000  Uiso   1.00
H1644  H     0.60059   0.40014   0.76644   0.00000  Uiso   1.00
H1645  H     0.64107   0.38182   0.79472   0.00000  Uiso   1.00
C1646  C     0.37190   0.58939   0.77577   0.00000  Uiso   1.00
C1647  C     0.38822   0.58765   0.82314   0.00000  Uiso   1.00
H1648  H     0.41375   0.56231   0.82644   0.00000  Uiso   1.00
H1649  H     0.39934   0.62290   0.83210   0.00000  Uiso   1.00
H1650  H     0.36353   0.57742   0.84712   0.00000  Uiso   1.00
H1651  H     0.39502   0.60213   0.75121   0.00000  Uiso   1.00
H1652  H     0.34833   0.61707   0.77647   0.00000  Uiso   1.00
C1653  C     0.75424   0.49999   0.75558   0.00000  Uiso   1.00
C1654  C     0.91291   0.49958   0.75158   0.00000  Uiso   1.00
C1655  C     0.76152   0.52020   0.52358   0.00000  Uiso   1.00
C1656  C     0.91095   0.50799   0.97603   0.00000  Uiso   1.00
C1657  C     0.68844   0.45757   0.77577   0.00000  Uiso   1.00
C1658  C     0.98013   0.54071   0.74984   0.00000  Uiso   1.00
C1659  C     0.97852   0.45730   0.77407   0.00000  Uiso   1.00
C1660  C     0.68742   0.54240   0.76254   0.00000  Uiso   1.00
C1661  C     0.95781   0.49860   0.75746   0.00000  Uiso   1.00
C1662  C     0.70966   0.49987   0.76506   0.00000  Uiso   1.00
C1663  C     0.81788   0.35887   0.71509   0.00000  Uiso   1.00
C1664  C     0.84822   0.64113   0.78520   0.00000  Uiso   1.00
C1665  C     0.84824   0.35737   0.78516   0.00000  Uiso   1.00
C1666  C     0.81777   0.64260   0.71515   0.00000  Uiso   1.00
C1667  C     0.83364   0.50042   0.66436   0.00000  Uiso   1.00
C1668  C     0.83336   0.49973   0.83567   0.00000  Uiso   1.00
C1669  C     0.87152   0.51421   0.90443   0.00000  Uiso   1.00
C1670  C     0.79826   0.49554   0.59301   0.00000  Uiso   1.00
C1671  C     0.83544   0.49998   0.88414   0.00000  Uiso   1.00
C1672  C     0.83453   0.50169   0.61584   0.00000  Uiso   1.00
C1673  C     0.79993   0.49246   0.90983   0.00000  Uiso   1.00
C1674  C     0.87118   0.51077   0.59236   0.00000  Uiso   1.00
C1675  C     0.79952   0.50699   0.95418   0.00000  Uiso   1.00
C1676  C     0.87228   0.50406   0.54602   0.00000  Uiso   1.00
C1677  C     0.83647   0.50767   0.97642   0.00000  Uiso   1.00
C1678  C     0.83543   0.50666   0.52310   0.00000  Uiso   1.00
C1679  C     0.87392   0.51078   0.95187   0.00000  Uiso   1.00
C1680  C     0.79746   0.50652   0.54683   0.00000  Uiso   1.00
C1681  C     0.76402   0.52352   0.97621   0.00000  Uiso   1.00
C1682  C     0.90889   0.49577   0.52195   0.00000  Uiso   1.00
Cu1683 Cu    0.83333   0.54689   0.75000   0.00000  Uiso   1.00
Cu1684 Cu    0.83333   0.45311   0.75000   0.00000  Uiso   1.00
H1685  H     0.80513   0.37801   0.68724   0.00000  Uiso   1.00
H1686  H     0.86065   0.62203   0.81325   0.00000  Uiso   1.00
H1687  H     0.86016   0.37533   0.81332   0.00000  Uiso   1.00
H1688  H     0.80502   0.62458   0.68737   0.00000  Uiso   1.00
N1689  N     0.83333   0.61736   0.75000   0.00000  Uiso   1.00
N1690  N     0.83333   0.38264   0.75000   0.00000  Uiso   1.00
O1691  O     0.77321   0.53958   0.75000   0.00000  Uiso   1.00
O1692  O     0.89345   0.46042   0.75001   0.00000  Uiso   1.00
O1693  O     0.89345   0.53958   0.75001   0.00000  Uiso   1.00
O1694  O     0.77321   0.46042   0.75000   0.00000  Uiso   1.00
O1695  O     0.83332   0.53960   0.68513   0.00000  Uiso   1.00
O1696  O     0.83334   0.46040   0.81487   0.00000  Uiso   1.00
O1697  O     0.83334   0.53960   0.81487   0.00000  Uiso   1.00
O1698  O     0.83332   0.46040   0.68513   0.00000  Uiso   1.00
Cl1699 Cl    0.91039   0.53713   0.86844   0.00000  Uiso   1.00
Cl1700 Cl    0.75673   0.46970   0.62270   0.00000  Uiso   1.00
C1701  C     0.76473   0.46438   0.89225   0.00000  Uiso   1.00
C1702  C     0.77508   0.41191   0.89291   0.00000  Uiso   1.00
H1703  H     0.80079   0.40391   0.86979   0.00000  Uiso   1.00
H1704  H     0.78331   0.40029   0.92709   0.00000  Uiso   1.00
H1705  H     0.74828   0.39146   0.88297   0.00000  Uiso   1.00
H1706  H     0.73683   0.46820   0.91326   0.00000  Uiso   1.00
H1707  H     0.75690   0.47694   0.85836   0.00000  Uiso   1.00
C1708  C     0.90560   0.53601   0.61491   0.00000  Uiso   1.00
C1709  C     0.89740   0.58897   0.61496   0.00000  Uiso   1.00
H1710  H     0.89430   0.60243   0.58024   0.00000  Uiso   1.00
H1711  H     0.86919   0.59750   0.63407   0.00000  Uiso   1.00
H1712  H     0.92315   0.60741   0.63006   0.00000  Uiso   1.00
H1713  H     0.90930   0.52199   0.64921   0.00000  Uiso   1.00
H1714  H     0.93540   0.53136   0.59794   0.00000  Uiso   1.00
C1715  C     0.73343   0.55171   0.94875   0.00000  Uiso   1.00
C1716  C     0.73422   0.60434   0.95823   0.00000  Uiso   1.00
H1717  H     0.71788   0.61267   0.98968   0.00000  Uiso   1.00
H1718  H     0.76606   0.61687   0.95959   0.00000  Uiso   1.00
H1719  H     0.71874   0.62406   0.93113   0.00000  Uiso   1.00
H1720  H     0.74026   0.54948   0.91261   0.00000  Uiso   1.00
H1721  H     0.70282   0.53707   0.95334   0.00000  Uiso   1.00
C1722  C     0.94212   0.46533   0.54310   0.00000  Uiso   1.00
C1723  C     0.94886   0.41936   0.51824   0.00000  Uiso   1.00
H1724  H     0.91990   0.39966   0.51701   0.00000  Uiso   1.00
H1725  H     0.96045   0.42580   0.98375   0.00000  Uiso   1.00
H1726  H     0.97155   0.39730   0.53598   0.00000  Uiso   1.00
H1727  H     0.97106   0.48476   0.54523   0.00000  Uiso   1.00
H1728  H     0.93345   0.45464   0.57772   0.00000  Uiso   1.00
C1729  C     0.72235   0.53498   0.54818   0.00000  Uiso   1.00
C1730  C     0.72857   0.57689   0.57860   0.00000  Uiso   1.00
H1731  H     0.74494   0.60555   0.56050   0.00000  Uiso   1.00
H1732  H     0.69852   0.59049   0.59030   0.00000  Uiso   1.00
H1733  H     0.74618   0.56685   0.60836   0.00000  Uiso   1.00
H1734  H     0.69784   0.54488   0.52527   0.00000  Uiso   1.00
H1735  H     0.70871   0.50513   0.56682   0.00000  Uiso   1.00
C1736  C     0.95228   0.51930   0.95545   0.00000  Uiso   1.00
C1737  C     0.95760   0.57265   0.95069   0.00000  Uiso   1.00
H1738  H     0.92902   0.59064   0.94080   0.00000  Uiso   1.00
H1739  H     0.96681   0.58726   0.98299   0.00000  Uiso   1.00
H1740  H     0.98137   0.58081   0.92502   0.00000  Uiso   1.00
H1741  H     0.97732   0.50637   0.97625   0.00000  Uiso   1.00
H1742  H     0.95772   0.50035   0.92406   0.00000  Uiso   1.00
C1743  C     0.71152   0.41414   0.79272   0.00000  Uiso   1.00
C1744  C     0.71856   0.37826   0.75590   0.00000  Uiso   1.00
H1745  H     0.73231   0.39483   0.72556   0.00000  Uiso   1.00
H1746  H     0.73948   0.35034   0.76797   0.00000  Uiso   1.00
H1747  H     0.68976   0.36214   0.74596   0.00000  Uiso   1.00
H1748  H     0.74094   0.42311   0.80703   0.00000  Uiso   1.00
H1749  H     0.69643   0.39789   0.82242   0.00000  Uiso   1.00
C1750  C     0.96490   0.58040   0.71951   0.00000  Uiso   1.00
C1751  C     0.94263   0.62023   0.74385   0.00000  Uiso   1.00
H1752  H     0.91433   0.62942   0.72614   0.00000  Uiso   1.00
H1753  H     0.93507   0.61046   0.77901   0.00000  Uiso   1.00
H1754  H     0.96142   0.65230   0.74326   0.00000  Uiso   1.00
H1755  H     0.99073   0.59548   0.69961   0.00000  Uiso   1.00
H1756  H     0.94504   0.56580   0.69423   0.00000  Uiso   1.00
C1757  C     0.95538   0.41342   0.79089   0.00000  Uiso   1.00
C1758  C     0.93536   0.42133   0.83645   0.00000  Uiso   1.00
H1759  H     0.95789   0.43499   0.85993   0.00000  Uiso   1.00
H1760  H     0.90980   0.44648   0.83378   0.00000  Uiso   1.00
H1761  H     0.92345   0.38762   0.85028   0.00000  Uiso   1.00
H1762  H     0.93392   0.40014   0.76644   0.00000  Uiso   1.00
H1763  H     0.97440   0.38182   0.79472   0.00000  Uiso   1.00
C1764  C     0.70523   0.58939   0.77577   0.00000  Uiso   1.00
C1765  C     0.72155   0.58765   0.82314   0.00000  Uiso   1.00
H1766  H     0.74709   0.56231   0.82644   0.00000  Uiso   1.00
H1767  H     0.73267   0.62290   0.83210   0.00000  Uiso   1.00
H1768  H     0.69687   0.57742   0.84712   0.00000  Uiso   1.00
H1769  H     0.72835   0.60213   0.75121   0.00000  Uiso   1.00
H1770  H     0.68166   0.61707   0.77647   0.00000  Uiso   1.00
C1771  C     0.08757   0.83333   0.75558   0.00000  Uiso   1.00
C1772  C     0.24625   0.83291   0.75158   0.00000  Uiso   1.00
C1773  C     0.09486   0.85353   0.52358   0.00000  Uiso   1.00
C1774  C     0.24428   0.84133   0.97603   0.00000  Uiso   1.00
C1775  C     0.02178   0.79090   0.77577   0.00000  Uiso   1.00
C1776  C     0.31347   0.87405   0.74984   0.00000  Uiso   1.00
C1777  C     0.31185   0.79063   0.77407   0.00000  Uiso   1.00
C1778  C     0.02075   0.87573   0.76254   0.00000  Uiso   1.00
C1779  C     0.29114   0.83193   0.75746   0.00000  Uiso   1.00
C1780  C     0.04299   0.83321   0.76506   0.00000  Uiso   1.00
C1781  C     0.15121   0.69221   0.71509   0.00000  Uiso   1.00
C1782  C     0.18156   0.97447   0.78520   0.00000  Uiso   1.00
C1783  C     0.18157   0.69071   0.78516   0.00000  Uiso   1.00
C1784  C     0.15110   0.97593   0.71515   0.00000  Uiso   1.00
C1785  C     0.16697   0.83376   0.66436   0.00000  Uiso   1.00
C1786  C     0.16670   0.83307   0.83567   0.00000  Uiso   1.00
C1787  C     0.20485   0.84755   0.90443   0.00000  Uiso   1.00
C1788  C     0.13160   0.82888   0.59301   0.00000  Uiso   1.00
C1789  C     0.16878   0.83331   0.88414   0.00000  Uiso   1.00
C1790  C     0.16786   0.83503   0.61584   0.00000  Uiso   1.00
C1791  C     0.13327   0.82580   0.90983   0.00000  Uiso   1.00
C1792  C     0.20451   0.84410   0.59236   0.00000  Uiso   1.00
C1793  C     0.13285   0.84033   0.95418   0.00000  Uiso   1.00
C1794  C     0.20561   0.83739   0.54602   0.00000  Uiso   1.00
C1795  C     0.16981   0.84100   0.97642   0.00000  Uiso   1.00
C1796  C     0.16877   0.83999   0.52310   0.00000  Uiso   1.00
C1797  C     0.20725   0.84412   0.95187   0.00000  Uiso   1.00
C1798  C     0.13080   0.83985   0.54683   0.00000  Uiso   1.00
C1799  C     0.09736   0.85685   0.97621   0.00000  Uiso   1.00
C1800  C     0.24223   0.82910   0.52195   0.00000  Uiso   1.00
Cu1801 Cu    0.16667   0.88022   0.75000   0.00000  Uiso   1.00
Cu1802 Cu    0.16667   0.78645   0.75000   0.00000  Uiso   1.00
H1803  H     0.13846   0.71134   0.68724   0.00000  Uiso   1.00
H1804  H     0.19398   0.95537   0.81325   0.00000  Uiso   1.00
H1805  H     0.19349   0.70867   0.81332   0.00000  Uiso   1.00
H1806  H     0.13835   0.95792   0.68737   0.00000  Uiso   1.00
N1807  N     0.16667   0.95069   0.75000   0.00000  Uiso   1.00
N1808  N     0.16667   0.71598   0.75000   0.00000  Uiso   1.00
O1809  O     0.10655   0.87291   0.75000   0.00000  Uiso   1.00
O1810  O     0.22679   0.79375   0.75001   0.00000  Uiso   1.00
O1811  O     0.22679   0.87291   0.75001   0.00000  Uiso   1.00
O1812  O     0.10655   0.79375   0.75000   0.00000  Uiso   1.00
O1813  O     0.16666   0.87293   0.68513   0.00000  Uiso   1.00
O1814  O     0.16668   0.79373   0.81487   0.00000  Uiso   1.00
O1815  O     0.16668   0.87293   0.81487   0.00000  Uiso   1.00
O1816  O     0.16666   0.79373   0.68513   0.00000  Uiso   1.00
Cl1817 Cl    0.24372   0.87047   0.86844   0.00000  Uiso   1.00
Cl1818 Cl    0.09006   0.80303   0.62270   0.00000  Uiso   1.00
C1819  C     0.09806   0.79772   0.89225   0.00000  Uiso   1.00
C1820  C     0.10841   0.74524   0.89291   0.00000  Uiso   1.00
H1821  H     0.13413   0.73724   0.86979   0.00000  Uiso   1.00
H1822  H     0.11664   0.73363   0.92709   0.00000  Uiso   1.00
H1823  H     0.08161   0.72479   0.88297   0.00000  Uiso   1.00
H1824  H     0.07016   0.80153   0.91326   0.00000  Uiso   1.00
H1825  H     0.09023   0.81028   0.85836   0.00000  Uiso   1.00
C1826  C     0.23893   0.86934   0.61491   0.00000  Uiso   1.00
C1827  C     0.23073   0.92230   0.61496   0.00000  Uiso   1.00
H1828  H     0.22763   0.93576   0.58024   0.00000  Uiso   1.00
H1829  H     0.20252   0.93083   0.63407   0.00000  Uiso   1.00
H1830  H     0.25649   0.94075   0.63006   0.00000  Uiso   1.00
H1831  H     0.24263   0.85532   0.64921   0.00000  Uiso   1.00
H1832  H     0.26873   0.86469   0.59794   0.00000  Uiso   1.00
C1833  C     0.06676   0.88505   0.94875   0.00000  Uiso   1.00
C1834  C     0.06755   0.93768   0.95823   0.00000  Uiso   1.00
H1835  H     0.05121   0.94600   0.98968   0.00000  Uiso   1.00
H1836  H     0.09940   0.95021   0.95959   0.00000  Uiso   1.00
H1837  H     0.05207   0.95739   0.93113   0.00000  Uiso   1.00
H1838  H     0.07360   0.88281   0.91261   0.00000  Uiso   1.00
H1839  H     0.03616   0.87041   0.95334   0.00000  Uiso   1.00
C1840  C     0.27546   0.79867   0.54310   0.00000  Uiso   1.00
C1841  C     0.28219   0.75270   0.51824   0.00000  Uiso   1.00
H1842  H     0.25323   0.73299   0.51701   0.00000  Uiso   1.00
H1843  H     0.29378   0.75913   0.98375   0.00000  Uiso   1.00
H1844  H     0.30488   0.73063   0.53598   0.00000  Uiso   1.00
H1845  H     0.30439   0.81809   0.54523   0.00000  Uiso   1.00
H1846  H     0.26678   0.78798   0.57772   0.00000  Uiso   1.00
C1847  C     0.05569   0.86831   0.54818   0.00000  Uiso   1.00
C1848  C     0.06190   0.91022   0.57860   0.00000  Uiso   1.00
H1849  H     0.07828   0.93889   0.56050   0.00000  Uiso   1.00
H1850  H     0.03186   0.92383   0.59030   0.00000  Uiso   1.00
H1851  H     0.07951   0.90018   0.60836   0.00000  Uiso   1.00
H1852  H     0.03118   0.87821   0.52527   0.00000  Uiso   1.00
H1853  H     0.04205   0.83847   0.56682   0.00000  Uiso   1.00
C1854  C     0.28561   0.85263   0.95545   0.00000  Uiso   1.00
C1855  C     0.29093   0.90598   0.95069   0.00000  Uiso   1.00
H1856  H     0.26236   0.92397   0.94080   0.00000  Uiso   1.00
H1857  H     0.30015   0.92059   0.98299   0.00000  Uiso   1.00
H1858  H     0.31470   0.91414   0.92502   0.00000  Uiso   1.00
H1859  H     0.31065   0.83971   0.97625   0.00000  Uiso   1.00
H1860  H     0.29106   0.83369   0.92406   0.00000  Uiso   1.00
C1861  C     0.04486   0.74747   0.79272   0.00000  Uiso   1.00
C1862  C     0.05190   0.71160   0.75590   0.00000  Uiso   1.00
H1863  H     0.06564   0.72817   0.72556   0.00000  Uiso   1.00
H1864  H     0.07281   0.68367   0.76797   0.00000  Uiso   1.00
H1865  H     0.02309   0.69547   0.74596   0.00000  Uiso   1.00
H1866  H     0.07427   0.75644   0.80703   0.00000  Uiso   1.00
H1867  H     0.02976   0.73122   0.82242   0.00000  Uiso   1.00
C1868  C     0.29824   0.91373   0.71951   0.00000  Uiso   1.00
C1869  C     0.27596   0.95356   0.74385   0.00000  Uiso   1.00
H1870  H     0.24766   0.96275   0.72614   0.00000  Uiso   1.00
H1871  H     0.26840   0.94379   0.77901   0.00000  Uiso   1.00
H1872  H     0.29475   0.98563   0.74326   0.00000  Uiso   1.00
H1873  H     0.32406   0.92881   0.69961   0.00000  Uiso   1.00
H1874  H     0.27837   0.89913   0.69423   0.00000  Uiso   1.00
C1875  C     0.28871   0.74675   0.79089   0.00000  Uiso   1.00
C1876  C     0.26870   0.75466   0.83645   0.00000  Uiso   1.00
H1877  H     0.29123   0.76833   0.85993   0.00000  Uiso   1.00
H1878  H     0.24313   0.77981   0.83378   0.00000  Uiso   1.00
H1879  H     0.25678   0.72095   0.85028   0.00000  Uiso   1.00
H1880  H     0.26726   0.73347   0.76644   0.00000  Uiso   1.00
H1881  H     0.30774   0.71515   0.79472   0.00000  Uiso   1.00
C1882  C     0.03856   0.92272   0.77577   0.00000  Uiso   1.00
C1883  C     0.05489   0.92098   0.82314   0.00000  Uiso   1.00
H1884  H     0.08042   0.89564   0.82644   0.00000  Uiso   1.00
H1885  H     0.06600   0.95623   0.83210   0.00000  Uiso   1.00
H1886  H     0.03020   0.91075   0.84712   0.00000  Uiso   1.00
H1887  H     0.06168   0.93546   0.75121   0.00000  Uiso   1.00
H1888  H     0.01499   0.95041   0.77647   0.00000  Uiso   1.00
C1889  C     0.42091   0.83333   0.75558   0.00000  Uiso   1.00
C1890  C     0.57958   0.83291   0.75158   0.00000  Uiso   1.00
C1891  C     0.42819   0.85353   0.52358   0.00000  Uiso   1.00
C1892  C     0.57761   0.84133   0.97603   0.00000  Uiso   1.00
C1893  C     0.35511   0.79090   0.77577   0.00000  Uiso   1.00
C1894  C     0.64680   0.87405   0.74984   0.00000  Uiso   1.00
C1895  C     0.64519   0.79063   0.77407   0.00000  Uiso   1.00
C1896  C     0.35408   0.87573   0.76254   0.00000  Uiso   1.00
C1897  C     0.62448   0.83193   0.75746   0.00000  Uiso   1.00
C1898  C     0.37632   0.83321   0.76506   0.00000  Uiso   1.00
C1899  C     0.48455   0.69221   0.71509   0.00000  Uiso   1.00
C1900  C     0.51489   0.97447   0.78520   0.00000  Uiso   1.00
C1901  C     0.51491   0.69071   0.78516   0.00000  Uiso   1.00
C1902  C     0.48443   0.97593   0.71515   0.00000  Uiso   1.00
C1903  C     0.50031   0.83376   0.66436   0.00000  Uiso   1.00
C1904  C     0.50003   0.83307   0.83567   0.00000  Uiso   1.00
C1905  C     0.53819   0.84755   0.90443   0.00000  Uiso   1.00
C1906  C     0.46493   0.82888   0.59301   0.00000  Uiso   1.00
C1907  C     0.50211   0.83331   0.88414   0.00000  Uiso   1.00
C1908  C     0.50119   0.83503   0.61584   0.00000  Uiso   1.00
C1909  C     0.46660   0.82580   0.90983   0.00000  Uiso   1.00
C1910  C     0.53785   0.84410   0.59236   0.00000  Uiso   1.00
C1911  C     0.46618   0.84033   0.95418   0.00000  Uiso   1.00
C1912  C     0.53894   0.83739   0.54602   0.00000  Uiso   1.00
C1913  C     0.50314   0.84100   0.97642   0.00000  Uiso   1.00
C1914  C     0.50210   0.83999   0.52310   0.00000  Uiso   1.00
C1915  C     0.54059   0.84412   0.95187   0.00000  Uiso   1.00
C1916  C     0.46413   0.83985   0.54683   0.00000  Uiso   1.00
C1917  C     0.43069   0.85685   0.97621   0.00000  Uiso   1.00
C1918  C     0.57556   0.82910   0.52195   0.00000  Uiso   1.00
Cu1919 Cu    0.50000   0.88022   0.75000   0.00000  Uiso   1.00
Cu1920 Cu    0.50000   0.78645   0.75000   0.00000  Uiso   1.00
H1921  H     0.47179   0.71134   0.68724   0.00000  Uiso   1.00
H1922  H     0.52732   0.95537   0.81325   0.00000  Uiso   1.00
H1923  H     0.52682   0.70867   0.81332   0.00000  Uiso   1.00
H1924  H     0.47169   0.95792   0.68737   0.00000  Uiso   1.00
N1925  N     0.50000   0.95069   0.75000   0.00000  Uiso   1.00
N1926  N     0.50000   0.71598   0.75000   0.00000  Uiso   1.00
O1927  O     0.43988   0.87291   0.75000   0.00000  Uiso   1.00
O1928  O     0.56012   0.79375   0.75001   0.00000  Uiso   1.00
O1929  O     0.56012   0.87291   0.75001   0.00000  Uiso   1.00
O1930  O     0.43988   0.79375   0.75000   0.00000  Uiso   1.00
O1931  O     0.49999   0.87293   0.68513   0.00000  Uiso   1.00
O1932  O     0.50001   0.79373   0.81487   0.00000  Uiso   1.00
O1933  O     0.50001   0.87293   0.81487   0.00000  Uiso   1.00
O1934  O     0.49999   0.79373   0.68513   0.00000  Uiso   1.00
Cl1935 Cl    0.57706   0.87047   0.86844   0.00000  Uiso   1.00
Cl1936 Cl    0.42339   0.80303   0.62270   0.00000  Uiso   1.00
C1937  C     0.43139   0.79772   0.89225   0.00000  Uiso   1.00
C1938  C     0.44174   0.74524   0.89291   0.00000  Uiso   1.00
H1939  H     0.46746   0.73724   0.86979   0.00000  Uiso   1.00
H1940  H     0.44997   0.73363   0.92709   0.00000  Uiso   1.00
H1941  H     0.41494   0.72479   0.88297   0.00000  Uiso   1.00
H1942  H     0.40349   0.80153   0.91326   0.00000  Uiso   1.00
H1943  H     0.42357   0.81028   0.85836   0.00000  Uiso   1.00
C1944  C     0.57227   0.86934   0.61491   0.00000  Uiso   1.00
C1945  C     0.56406   0.92230   0.61496   0.00000  Uiso   1.00
H1946  H     0.56096   0.93576   0.58024   0.00000  Uiso   1.00
H1947  H     0.53585   0.93083   0.63407   0.00000  Uiso   1.00
H1948  H     0.58982   0.94075   0.63006   0.00000  Uiso   1.00
H1949  H     0.57597   0.85532   0.64921   0.00000  Uiso   1.00
H1950  H     0.60207   0.86469   0.59794   0.00000  Uiso   1.00
C1951  C     0.40010   0.88505   0.94875   0.00000  Uiso   1.00
C1952  C     0.40089   0.93768   0.95823   0.00000  Uiso   1.00
H1953  H     0.38455   0.94600   0.98968   0.00000  Uiso   1.00
H1954  H     0.43273   0.95021   0.95959   0.00000  Uiso   1.00
H1955  H     0.38540   0.95739   0.93113   0.00000  Uiso   1.00
H1956  H     0.40693   0.88281   0.91261   0.00000  Uiso   1.00
H1957  H     0.36949   0.87041   0.95334   0.00000  Uiso   1.00
C1958  C     0.60879   0.79867   0.54310   0.00000  Uiso   1.00
C1959  C     0.61552   0.75270   0.51824   0.00000  Uiso   1.00
H1960  H     0.58656   0.73299   0.51701   0.00000  Uiso   1.00
H1961  H     0.62711   0.75913   0.98375   0.00000  Uiso   1.00
H1962  H     0.63821   0.73063   0.53598   0.00000  Uiso   1.00
H1963  H     0.63773   0.81809   0.54523   0.00000  Uiso   1.00
H1964  H     0.60011   0.78798   0.57772   0.00000  Uiso   1.00
C1965  C     0.38902   0.86831   0.54818   0.00000  Uiso   1.00
C1966  C     0.39524   0.91022   0.57860   0.00000  Uiso   1.00
H1967  H     0.41161   0.93889   0.56050   0.00000  Uiso   1.00
H1968  H     0.36519   0.92383   0.59030   0.00000  Uiso   1.00
H1969  H     0.41284   0.90018   0.60836   0.00000  Uiso   1.00
H1970  H     0.36451   0.87821   0.52527   0.00000  Uiso   1.00
H1971  H     0.37538   0.83847   0.56682   0.00000  Uiso   1.00
C1972  C     0.61895   0.85263   0.95545   0.00000  Uiso   1.00
C1973  C     0.62426   0.90598   0.95069   0.00000  Uiso   1.00
H1974  H     0.59569   0.92397   0.94080   0.00000  Uiso   1.00
H1975  H     0.63348   0.92059   0.98299   0.00000  Uiso   1.00
H1976  H     0.64803   0.91414   0.92502   0.00000  Uiso   1.00
H1977  H     0.64398   0.83971   0.97625   0.00000  Uiso   1.00
H1978  H     0.62439   0.83369   0.92406   0.00000  Uiso   1.00
C1979  C     0.37819   0.74747   0.79272   0.00000  Uiso   1.00
C1980  C     0.38523   0.71160   0.75590   0.00000  Uiso   1.00
H1981  H     0.39898   0.72817   0.72556   0.00000  Uiso   1.00
H1982  H     0.40615   0.68367   0.76797   0.00000  Uiso   1.00
H1983  H     0.35642   0.69547   0.74596   0.00000  Uiso   1.00
H1984  H     0.40760   0.75644   0.80703   0.00000  Uiso   1.00
H1985  H     0.36309   0.73122   0.82242   0.00000  Uiso   1.00
C1986  C     0.63157   0.91373   0.71951   0.00000  Uiso   1.00
C1987  C     0.60929   0.95356   0.74385   0.00000  Uiso   1.00
H1988  H     0.58099   0.96275   0.72614   0.00000  Uiso   1.00
H1989  H     0.60174   0.94379   0.77901   0.00000  Uiso   1.00
H1990  H     0.62808   0.98563   0.74326   0.00000  Uiso   1.00
H1991  H     0.65739   0.92881   0.69961   0.00000  Uiso   1.00
H1992  H     0.61171   0.89913   0.69423   0.00000  Uiso   1.00
C1993  C     0.62205   0.74675   0.79089   0.00000  Uiso   1.00
C1994  C     0.60203   0.75466   0.83645   0.00000  Uiso   1.00
H1995  H     0.62456   0.76833   0.85993   0.00000  Uiso   1.00
H1996  H     0.57646   0.77981   0.83378   0.00000  Uiso   1.00
H1997  H     0.59012   0.72095   0.85028   0.00000  Uiso   1.00
H1998  H     0.60059   0.73347   0.76644   0.00000  Uiso   1.00
H1999  H     0.64107   0.71515   0.79472   0.00000  Uiso   1.00
C2000  C     0.37190   0.92272   0.77577   0.00000  Uiso   1.00
C2001  C     0.38822   0.92098   0.82314   0.00000  Uiso   1.00
H2002  H     0.41375   0.89564   0.82644   0.00000  Uiso   1.00
H2003  H     0.39934   0.95623   0.83210   0.00000  Uiso   1.00
H2004  H     0.36353   0.91075   0.84712   0.00000  Uiso   1.00
H2005  H     0.39502   0.93546   0.75121   0.00000  Uiso   1.00
H2006  H     0.34833   0.95041   0.77647   0.00000  Uiso   1.00
C2007  C     0.75424   0.83333   0.75558   0.00000  Uiso   1.00
C2008  C     0.91291   0.83291   0.75158   0.00000  Uiso   1.00
C2009  C     0.76152   0.85353   0.52358   0.00000  Uiso   1.00
C2010  C     0.91095   0.84133   0.97603   0.00000  Uiso   1.00
C2011  C     0.68844   0.79090   0.77577   0.00000  Uiso   1.00
C2012  C     0.98013   0.87405   0.74984   0.00000  Uiso   1.00
C2013  C     0.97852   0.79063   0.77407   0.00000  Uiso   1.00
C2014  C     0.68742   0.87573   0.76254   0.00000  Uiso   1.00
C2015  C     0.95781   0.83193   0.75746   0.00000  Uiso   1.00
C2016  C     0.70966   0.83321   0.76506   0.00000  Uiso   1.00
C2017  C     0.81788   0.69221   0.71509   0.00000  Uiso   1.00
C2018  C     0.84822   0.97447   0.78520   0.00000  Uiso   1.00
C2019  C     0.84824   0.69071   0.78516   0.00000  Uiso   1.00
C2020  C     0.81777   0.97593   0.71515   0.00000  Uiso   1.00
C2021  C     0.83364   0.83376   0.66436   0.00000  Uiso   1.00
C2022  C     0.83336   0.83307   0.83567   0.00000  Uiso   1.00
C2023  C     0.87152   0.84755   0.90443   0.00000  Uiso   1.00
C2024  C     0.79826   0.82888   0.59301   0.00000  Uiso   1.00
C2025  C     0.83544   0.83331   0.88414   0.00000  Uiso   1.00
C2026  C     0.83453   0.83503   0.61584   0.00000  Uiso   1.00
C2027  C     0.79993   0.82580   0.90983   0.00000  Uiso   1.00
C2028  C     0.87118   0.84410   0.59236   0.00000  Uiso   1.00
C2029  C     0.79952   0.84033   0.95418   0.00000  Uiso   1.00
C2030  C     0.87228   0.83739   0.54602   0.00000  Uiso   1.00
C2031  C     0.83647   0.84100   0.97642   0.00000  Uiso   1.00
C2032  C     0.83543   0.83999   0.52310   0.00000  Uiso   1.00
C2033  C     0.87392   0.84412   0.95187   0.00000  Uiso   1.00
C2034  C     0.79746   0.83985   0.54683   0.00000  Uiso   1.00
C2035  C     0.76402   0.85685   0.97621   0.00000  Uiso   1.00
C2036  C     0.90889   0.82910   0.52195   0.00000  Uiso   1.00
Cu2037 Cu    0.83333   0.88022   0.75000   0.00000  Uiso   1.00
Cu2038 Cu    0.83333   0.78645   0.75000   0.00000  Uiso   1.00
H2039  H     0.80513   0.71134   0.68724   0.00000  Uiso   1.00
H2040  H     0.86065   0.95537   0.81325   0.00000  Uiso   1.00
H2041  H     0.86016   0.70867   0.81332   0.00000  Uiso   1.00
H2042  H     0.80502   0.95792   0.68737   0.00000  Uiso   1.00
N2043  N     0.83333   0.95069   0.75000   0.00000  Uiso   1.00
N2044  N     0.83333   0.71598   0.75000   0.00000  Uiso   1.00
O2045  O     0.77321   0.87291   0.75000   0.00000  Uiso   1.00
O2046  O     0.89345   0.79375   0.75001   0.00000  Uiso   1.00
O2047  O     0.89345   0.87291   0.75001   0.00000  Uiso   1.00
O2048  O     0.77321   0.79375   0.75000   0.00000  Uiso   1.00
O2049  O     0.83332   0.87293   0.68513   0.00000  Uiso   1.00
O2050  O     0.83334   0.79373   0.81487   0.00000  Uiso   1.00
O2051  O     0.83334   0.87293   0.81487   0.00000  Uiso   1.00
O2052  O     0.83332   0.79373   0.68513   0.00000  Uiso   1.00
Cl2053 Cl    0.91039   0.87047   0.86844   0.00000  Uiso   1.00
Cl2054 Cl    0.75673   0.80303   0.62270   0.00000  Uiso   1.00
C2055  C     0.76473   0.79772   0.89225   0.00000  Uiso   1.00
C2056  C     0.77508   0.74524   0.89291   0.00000  Uiso   1.00
H2057  H     0.80079   0.73724   0.86979   0.00000  Uiso   1.00
H2058  H     0.78331   0.73363   0.92709   0.00000  Uiso   1.00
H2059  H     0.74828   0.72479   0.88297   0.00000  Uiso   1.00
H2060  H     0.73683   0.80153   0.91326   0.00000  Uiso   1.00
H2061  H     0.75690   0.81028   0.85836   0.00000  Uiso   1.00
C2062  C     0.90560   0.86934   0.61491   0.00000  Uiso   1.00
C2063  C     0.89740   0.92230   0.61496   0.00000  Uiso   1.00
H2064  H     0.89430   0.93576   0.58024   0.00000  Uiso   1.00
H2065  H     0.86919   0.93083   0.63407   0.00000  Uiso   1.00
H2066  H     0.92315   0.94075   0.63006   0.00000  Uiso   1.00
H2067  H     0.90930   0.85532   0.64921   0.00000  Uiso   1.00
H2068  H     0.93540   0.86469   0.59794   0.00000  Uiso   1.00
C2069  C     0.73343   0.88505   0.94875   0.00000  Uiso   1.00
C2070  C     0.73422   0.93768   0.95823   0.00000  Uiso   1.00
H2071  H     0.71788   0.94600   0.98968   0.00000  Uiso   1.00
H2072  H     0.76606   0.95021   0.95959   0.00000  Uiso   1.00
H2073  H     0.71874   0.95739   0.93113   0.00000  Uiso   1.00
H2074  H     0.74026   0.88281   0.91261   0.00000  Uiso   1.00
H2075  H     0.70282   0.87041   0.95334   0.00000  Uiso   1.00
C2076  C     0.94212   0.79867   0.54310   0.00000  Uiso   1.00
C2077  C     0.94886   0.75270   0.51824   0.00000  Uiso   1.00
H2078  H     0.91990   0.73299   0.51701   0.00000  Uiso   1.00
H2079  H     0.96045   0.75913   0.98375   0.00000  Uiso   1.00
H2080  H     0.97155   0.73063   0.53598   0.00000  Uiso   1.00
H2081  H     0.97106   0.81809   0.54523   0.00000  Uiso   1.00
H2082  H     0.93345   0.78798   0.57772   0.00000  Uiso   1.00
C2083  C     0.72235   0.86831   0.54818   0.00000  Uiso   1.00
C2084  C     0.72857   0.91022   0.57860   0.00000  Uiso   1.00
H2085  H     0.74494   0.93889   0.56050   0.00000  Uiso   1.00
H2086  H     0.69852   0.92383   0.59030   0.00000  Uiso   1.00
H2087  H     0.74618   0.90018   0.60836   0.00000  Uiso   1.00
H2088  H     0.69784   0.87821   0.52527   0.00000  Uiso   1.00
H2089  H     0.70871   0.83847   0.56682   0.00000  Uiso   1.00
C2090  C     0.95228   0.85263   0.95545   0.00000  Uiso   1.00
C2091  C     0.95760   0.90598   0.95069   0.00000  Uiso   1.00
H2092  H     0.92902   0.92397   0.94080   0.00000  Uiso   1.00
H2093  H     0.96681   0.92059   0.98299   0.00000  Uiso   1.00
H2094  H     0.98137   0.91414   0.92502   0.00000  Uiso   1.00
H2095  H     0.97732   0.83971   0.97625   0.00000  Uiso   1.00
H2096  H     0.95772   0.83369   0.92406   0.00000  Uiso   1.00
C2097  C     0.71152   0.74747   0.79272   0.00000  Uiso   1.00
C2098  C     0.71856   0.71160   0.75590   0.00000  Uiso   1.00
H2099  H     0.73231   0.72817   0.72556   0.00000  Uiso   1.00
H2100  H     0.73948   0.68367   0.76797   0.00000  Uiso   1.00
H2101  H     0.68976   0.69547   0.74596   0.00000  Uiso   1.00
H2102  H     0.74094   0.75644   0.80703   0.00000  Uiso   1.00
H2103  H     0.69643   0.73122   0.82242   0.00000  Uiso   1.00
C2104  C     0.96490   0.91373   0.71951   0.00000  Uiso   1.00
C2105  C     0.94263   0.95356   0.74385   0.00000  Uiso   1.00
H2106  H     0.91433   0.96275   0.72614   0.00000  Uiso   1.00
H2107  H     0.93507   0.94379   0.77901   0.00000  Uiso   1.00
H2108  H     0.96142   0.98563   0.74326   0.00000  Uiso   1.00
H2109  H     0.99073   0.92881   0.69961   0.00000  Uiso   1.00
H2110  H     0.94504   0.89913   0.69423   0.00000  Uiso   1.00
C2111  C     0.95538   0.74675   0.79089   0.00000  Uiso   1.00
C2112  C     0.93536   0.75466   0.83645   0.00000  Uiso   1.00
H2113  H     0.95789   0.76833   0.85993   0.00000  Uiso   1.00
H2114  H     0.90980   0.77981   0.83378   0.00000  Uiso   1.00
H2115  H     0.92345   0.72095   0.85028   0.00000  Uiso   1.00
H2116  H     0.93392   0.73347   0.76644   0.00000  Uiso   1.00
H2117  H     0.97440   0.71515   0.79472   0.00000  Uiso   1.00
C2118  C     0.70523   0.92272   0.77577   0.00000  Uiso   1.00
C2119  C     0.72155   0.92098   0.82314   0.00000  Uiso   1.00
H2120  H     0.74709   0.89564   0.82644   0.00000  Uiso   1.00
H2121  H     0.73267   0.95623   0.83210   0.00000  Uiso   1.00
H2122  H     0.69687   0.91075   0.84712   0.00000  Uiso   1.00
H2123  H     0.72835   0.93546   0.75121   0.00000  Uiso   1.00
H2124  H     0.68166   0.95041   0.77647   0.00000  Uiso   1.00
loop_
_geom_bond_atom_site_label_1
_geom_bond_atom_site_label_2
_geom_bond_distance
_geom_bond_site_symmetry_2
_ccdc_geom_bond_type
C1     C10     1.488   .     S
C1     O39     1.300   .     A
C1     O42     1.295   .     A
C2     O41     1.303   .     A
C2     O40     1.292   .     A
C2     C9      1.491   .     S
C3     C28     1.433   .     A
C3     C77     1.531   .     S
C3     C1091   1.425   1_554 S
C4     C84     1.516   .     S
C4     C27     1.432   .     A
C4     C1092   1.417   .     S
C5     C91     1.531   .     S
C5     C10     1.426   .     A
C5     C243    1.425   1_455 S
C6     C9      1.424   .     A
C6     C98     1.527   .     S
C6     C126    1.399   .     S
C7     C105    1.540   .     S
C7     C9      1.441   .     A
C7     C123    1.425   .     S
C8     C112    1.527   .     S
C8     C10     1.411   .     A
C8     C242    1.399   1_455 S
C11    H33     1.081   .     S
C11    N38     1.367   .     A
C11    C722    1.413   1_545 S
C12    N37     1.367   .     A
C12    H34     1.081   .     S
C12    C367    1.412   .     S
C13    H35     1.079   .     S
C13    N38     1.365   .     A
C13    C720    1.412   1_545 S
C14    H36     1.081   .     S
C14    N37     1.366   .     A
C14    C365    1.413   .     S
C15    C20     1.457   .     S
C15    O43     1.287   .     A
C15    O46     1.290   .     A
C16    O44     1.292   .     A
C16    O45     1.286   .     A
C16    C19     1.459   .     S
C17    C27     1.430   .     A
C17    Cl47    1.778   .     S
C17    C19     1.411   .     A
C18    C28     1.417   .     A
C18    Cl48    1.773   .     S
C18    C20     1.402   .     A
C19    C21     1.402   .     A
C20    C22     1.407   .     A
C21    C49     1.521   .     S
C21    C23     1.402   .     A
C22    C56     1.523   .     S
C22    C24     1.408   .     A
C23    C29     1.411   .     A
C23    C25     1.400   .     A
C24    C26     1.407   .     A
C24    C30     1.412   .     A
C25    C27     1.425   .     A
C25    C1088   1.401   .     S
C26    C28     1.425   .     A
C26    C1087   1.401   1_554 S
C29    C63     1.529   .     S
C29    C1065   1.425   .     S
C30    C70     1.531   .     S
C30    C1066   1.417   1_554 S
Cu31   O43     1.963   .     S
Cu31   N37     2.007   .     S
Cu31   Cu32    2.670   .     S
Cu31   O41     1.987   .     S
Cu31   O39     1.990   .     S
Cu31   O45     1.956   .     S
Cu32   N38     2.007   .     S
Cu32   O40     1.990   .     S
Cu32   O44     1.963   .     S
Cu32   O46     1.956   .     S
Cu32   O42     1.987   .     S
C49    H54     1.108   .     S
C49    H55     1.108   .     S
C49    C50     1.530   .     S
C50    H52     1.111   .     S
C50    H53     1.110   .     S
C50    H51     1.108   .     S
C56    C57     1.530   .     S
C56    H62     1.103   .     S
C56    H61     1.107   .     S
C57    H59     1.108   .     S
C57    H60     1.110   .     S
C57    H58     1.111   .     S
C63    H69     1.098   .     S
C63    H68     1.107   .     S
C63    C64     1.531   .     S
C64    H67     1.111   .     S
C64    H66     1.111   .     S
C64    H65     1.105   .     S
C70    C71     1.531   .     S
C70    H76     1.110   .     S
C70    H75     1.108   .     S
C71    H74     1.111   .     S
C71    H72     1.111   .     S
C71    H1135   1.109   1_554 S
H73    C1133   1.109   .     S
C77    C78     1.533   .     S
C77    H83     1.103   .     S
C77    H82     1.103   .     S
C78    H80     1.111   .     S
C78    H79     1.110   .     S
C78    H81     1.107   .     S
C84    H90     1.105   .     S
C84    C85     1.534   .     S
C84    H89     1.101   .     S
C85    H87     1.111   .     S
C85    H86     1.110   .     S
C85    H88     1.109   .     S
C91    H96     1.101   .     S
C91    C92     1.531   .     S
C91    H97     1.108   .     S
C92    H95     1.105   .     S
C92    H94     1.109   .     S
C92    H93     1.108   .     S
C98    C99     1.533   .     S
C98    H104    1.101   .     S
C98    H103    1.113   .     S
C99    H100    1.109   .     S
C99    H101    1.111   .     S
C99    H102    1.107   .     S
C105   H110    1.103   .     S
C105   H111    1.098   .     S
C105   C106    1.526   .     S
C106   H107    1.111   .     S
C106   H108    1.103   .     S
C106   H109    1.110   .     S
C112   H117    1.107   .     S
C112   C113    1.531   .     S
C112   H118    1.101   .     S
C113   H116    1.111   .     S
C113   H114    1.108   .     S
C113   H115    1.111   .     S
C119   C128    1.488   .     S
C119   O157    1.300   .     A
C119   O160    1.295   .     A
C120   O159    1.303   .     A
C120   O158    1.292   .     A
C120   C127    1.491   .     S
C121   C146    1.433   .     A
C121   C195    1.531   .     S
C121   C1209   1.425   1_554 S
C122   C202    1.516   .     S
C122   C145    1.432   .     A
C122   C1210   1.417   .     S
C123   C209    1.531   .     S
C123   C128    1.426   .     A
C124   C127    1.424   .     A
C124   C216    1.527   .     S
C124   C244    1.399   .     S
C125   C223    1.540   .     S
C125   C127    1.441   .     A
C125   C241    1.425   .     S
C126   C230    1.527   .     S
C126   C128    1.411   .     A
C129   H151    1.081   .     S
C129   N156    1.367   .     A
C129   C840    1.413   1_545 S
C130   N155    1.367   .     A
C130   H152    1.081   .     S
C130   C485    1.412   .     S
C131   H153    1.079   .     S
C131   N156    1.365   .     A
C131   C838    1.412   1_545 S
C132   H154    1.081   .     S
C132   N155    1.366   .     A
C132   C483    1.413   .     S
C133   C138    1.457   .     S
C133   O161    1.287   .     A
C133   O164    1.290   .     A
C134   O162    1.292   .     A
C134   O163    1.286   .     A
C134   C137    1.459   .     S
C135   C145    1.430   .     A
C135   Cl165   1.778   .     S
C135   C137    1.411   .     A
C136   C146    1.417   .     A
C136   Cl166   1.773   .     S
C136   C138    1.402   .     A
C137   C139    1.402   .     A
C138   C140    1.407   .     A
C139   C167    1.521   .     S
C139   C141    1.402   .     A
C140   C174    1.523   .     S
C140   C142    1.408   .     A
C141   C147    1.411   .     A
C141   C143    1.400   .     A
C142   C144    1.407   .     A
C142   C148    1.412   .     A
C143   C145    1.425   .     A
C143   C1206   1.401   .     S
C144   C146    1.425   .     A
C144   C1205   1.401   1_554 S
C147   C181    1.529   .     S
C147   C1183   1.425   .     S
C148   C188    1.531   .     S
C148   C1184   1.417   1_554 S
Cu149  O161    1.963   .     S
Cu149  N155    2.007   .     S
Cu149  Cu150   2.670   .     S
Cu149  O159    1.987   .     S
Cu149  O157    1.990   .     S
Cu149  O163    1.956   .     S
Cu150  N156    2.007   .     S
Cu150  O158    1.990   .     S
Cu150  O162    1.963   .     S
Cu150  O164    1.956   .     S
Cu150  O160    1.987   .     S
C167   H172    1.108   .     S
C167   H173    1.108   .     S
C167   C168    1.530   .     S
C168   H170    1.111   .     S
C168   H171    1.110   .     S
C168   H169    1.108   .     S
C174   C175    1.530   .     S
C174   H180    1.103   .     S
C174   H179    1.107   .     S
C175   H177    1.108   .     S
C175   H178    1.110   .     S
C175   H176    1.111   .     S
C181   H187    1.098   .     S
C181   H186    1.107   .     S
C181   C182    1.531   .     S
C182   H185    1.111   .     S
C182   H184    1.111   .     S
C182   H183    1.105   .     S
C188   C189    1.531   .     S
C188   H194    1.110   .     S
C188   H193    1.108   .     S
C189   H192    1.111   .     S
C189   H190    1.111   .     S
C189   H1253   1.109   1_554 S
H191   C1251   1.109   .     S
C195   C196    1.533   .     S
C195   H201    1.103   .     S
C195   H200    1.103   .     S
C196   H198    1.111   .     S
C196   H197    1.110   .     S
C196   H199    1.107   .     S
C202   H208    1.105   .     S
C202   C203    1.534   .     S
C202   H207    1.101   .     S
C203   H205    1.111   .     S
C203   H204    1.110   .     S
C203   H206    1.109   .     S
C209   H214    1.101   .     S
C209   C210    1.531   .     S
C209   H215    1.108   .     S
C210   H213    1.105   .     S
C210   H212    1.109   .     S
C210   H211    1.108   .     S
C216   C217    1.533   .     S
C216   H222    1.101   .     S
C216   H221    1.113   .     S
C217   H218    1.109   .     S
C217   H219    1.111   .     S
C217   H220    1.107   .     S
C223   H228    1.103   .     S
C223   H229    1.098   .     S
C223   C224    1.526   .     S
C224   H225    1.111   .     S
C224   H226    1.103   .     S
C224   H227    1.110   .     S
C230   H235    1.107   .     S
C230   C231    1.531   .     S
C230   H236    1.101   .     S
C231   H234    1.111   .     S
C231   H232    1.108   .     S
C231   H233    1.111   .     S
C237   C246    1.488   .     S
C237   O275    1.300   .     A
C237   O278    1.295   .     A
C238   O277    1.303   .     A
C238   O276    1.292   .     A
C238   C245    1.491   .     S
C239   C264    1.433   .     A
C239   C313    1.531   .     S
C239   C1327   1.425   1_554 S
C240   C320    1.516   .     S
C240   C263    1.432   .     A
C240   C1328   1.417   .     S
C241   C327    1.531   .     S
C241   C246    1.426   .     A
C242   C245    1.424   .     A
C242   C334    1.527   .     S
C242   C8      1.399   1_655 S
C243   C341    1.540   .     S
C243   C245    1.441   .     A
C243   C5      1.425   1_655 S
C244   C348    1.527   .     S
C244   C246    1.411   .     A
C247   H269    1.081   .     S
C247   N274    1.367   .     A
C247   C958    1.413   1_545 S
C248   N273    1.367   .     A
C248   H270    1.081   .     S
C248   C603    1.412   .     S
C249   H271    1.079   .     S
C249   N274    1.365   .     A
C249   C956    1.412   1_545 S
C250   H272    1.081   .     S
C250   N273    1.366   .     A
C250   C601    1.413   .     S
C251   C256    1.457   .     S
C251   O279    1.287   .     A
C251   O282    1.290   .     A
C252   O280    1.292   .     A
C252   O281    1.286   .     A
C252   C255    1.459   .     S
C253   C263    1.430   .     A
C253   Cl283   1.778   .     S
C253   C255    1.411   .     A
C254   C264    1.417   .     A
C254   Cl284   1.773   .     S
C254   C256    1.402   .     A
C255   C257    1.402   .     A
C256   C258    1.407   .     A
C257   C285    1.521   .     S
C257   C259    1.402   .     A
C258   C292    1.523   .     S
C258   C260    1.408   .     A
C259   C265    1.411   .     A
C259   C261    1.400   .     A
C260   C262    1.407   .     A
C260   C266    1.412   .     A
C261   C263    1.425   .     A
C261   C1324   1.401   .     S
C262   C264    1.425   .     A
C262   C1323   1.401   1_554 S
C265   C299    1.529   .     S
C265   C1301   1.425   .     S
C266   C306    1.531   .     S
C266   C1302   1.417   1_554 S
Cu267  O279    1.963   .     S
Cu267  N273    2.007   .     S
Cu267  Cu268   2.670   .     S
Cu267  O277    1.987   .     S
Cu267  O275    1.990   .     S
Cu267  O281    1.956   .     S
Cu268  N274    2.007   .     S
Cu268  O276    1.990   .     S
Cu268  O280    1.963   .     S
Cu268  O282    1.956   .     S
Cu268  O278    1.987   .     S
C285   H290    1.108   .     S
C285   H291    1.108   .     S
C285   C286    1.530   .     S
C286   H288    1.111   .     S
C286   H289    1.110   .     S
C286   H287    1.108   .     S
C292   C293    1.530   .     S
C292   H298    1.103   .     S
C292   H297    1.107   .     S
C293   H295    1.108   .     S
C293   H296    1.110   .     S
C293   H294    1.111   .     S
C299   H305    1.098   .     S
C299   H304    1.107   .     S
C299   C300    1.531   .     S
C300   H303    1.111   .     S
C300   H302    1.111   .     S
C300   H301    1.105   .     S
C306   C307    1.531   .     S
C306   H312    1.110   .     S
C306   H311    1.108   .     S
C307   H310    1.111   .     S
C307   H308    1.111   .     S
C307   H1371   1.109   1_554 S
H309   C1369   1.109   .     S
C313   C314    1.533   .     S
C313   H319    1.103   .     S
C313   H318    1.103   .     S
C314   H316    1.111   .     S
C314   H315    1.110   .     S
C314   H317    1.107   .     S
C320   H326    1.105   .     S
C320   C321    1.534   .     S
C320   H325    1.101   .     S
C321   H323    1.111   .     S
C321   H322    1.110   .     S
C321   H324    1.109   .     S
C327   H332    1.101   .     S
C327   C328    1.531   .     S
C327   H333    1.108   .     S
C328   H331    1.105   .     S
C328   H330    1.109   .     S
C328   H329    1.108   .     S
C334   C335    1.533   .     S
C334   H340    1.101   .     S
C334   H339    1.113   .     S
C335   H336    1.109   .     S
C335   H337    1.111   .     S
C335   H338    1.107   .     S
C341   H346    1.103   .     S
C341   H347    1.098   .     S
C341   C342    1.526   .     S
C342   H343    1.111   .     S
C342   H344    1.103   .     S
C342   H345    1.110   .     S
C348   H353    1.107   .     S
C348   C349    1.531   .     S
C348   H354    1.101   .     S
C349   H352    1.111   .     S
C349   H350    1.108   .     S
C349   H351    1.111   .     S
C355   C364    1.488   .     S
C355   O393    1.300   .     A
C355   O396    1.295   .     A
C356   O395    1.303   .     A
C356   O394    1.292   .     A
C356   C363    1.491   .     S
C357   C382    1.433   .     A
C357   C431    1.531   .     S
C357   C1445   1.425   1_554 S
C358   C438    1.516   .     S
C358   C381    1.432   .     A
C358   C1446   1.417   .     S
C359   C445    1.531   .     S
C359   C364    1.426   .     A
C359   C597    1.425   1_455 S
C360   C363    1.424   .     A
C360   C452    1.527   .     S
C360   C480    1.399   .     S
C361   C459    1.540   .     S
C361   C363    1.441   .     A
C361   C477    1.425   .     S
C362   C466    1.527   .     S
C362   C364    1.411   .     A
C362   C596    1.399   1_455 S
C365   H387    1.081   .     S
C365   N392    1.367   .     A
C366   N391    1.367   .     A
C366   H388    1.081   .     S
C366   C721    1.412   .     S
C367   H389    1.079   .     S
C367   N392    1.365   .     A
C368   H390    1.081   .     S
C368   N391    1.366   .     A
C368   C719    1.413   .     S
C369   C374    1.457   .     S
C369   O397    1.287   .     A
C369   O400    1.290   .     A
C370   O398    1.292   .     A
C370   O399    1.286   .     A
C370   C373    1.459   .     S
C371   C381    1.430   .     A
C371   Cl401   1.778   .     S
C371   C373    1.411   .     A
C372   C382    1.417   .     A
C372   Cl402   1.773   .     S
C372   C374    1.402   .     A
C373   C375    1.402   .     A
C374   C376    1.407   .     A
C375   C403    1.521   .     S
C375   C377    1.402   .     A
C376   C410    1.523   .     S
C376   C378    1.408   .     A
C377   C383    1.411   .     A
C377   C379    1.400   .     A
C378   C380    1.407   .     A
C378   C384    1.412   .     A
C379   C381    1.425   .     A
C379   C1442   1.401   .     S
C380   C382    1.425   .     A
C380   C1441   1.401   1_554 S
C383   C417    1.529   .     S
C383   C1419   1.425   .     S
C384   C424    1.531   .     S
C384   C1420   1.417   1_554 S
Cu385  O397    1.963   .     S
Cu385  N391    2.007   .     S
Cu385  Cu386   2.670   .     S
Cu385  O395    1.987   .     S
Cu385  O393    1.990   .     S
Cu385  O399    1.956   .     S
Cu386  N392    2.007   .     S
Cu386  O394    1.990   .     S
Cu386  O398    1.963   .     S
Cu386  O400    1.956   .     S
Cu386  O396    1.987   .     S
C403   H408    1.108   .     S
C403   H409    1.108   .     S
C403   C404    1.530   .     S
C404   H406    1.111   .     S
C404   H407    1.110   .     S
C404   H405    1.108   .     S
C410   C411    1.530   .     S
C410   H416    1.103   .     S
C410   H415    1.107   .     S
C411   H413    1.108   .     S
C411   H414    1.110   .     S
C411   H412    1.111   .     S
C417   H423    1.098   .     S
C417   H422    1.107   .     S
C417   C418    1.531   .     S
C418   H421    1.111   .     S
C418   H420    1.111   .     S
C418   H419    1.105   .     S
C424   C425    1.531   .     S
C424   H430    1.110   .     S
C424   H429    1.108   .     S
C425   H428    1.111   .     S
C425   H426    1.111   .     S
C425   H1489   1.109   1_554 S
H427   C1487   1.109   .     S
C431   C432    1.533   .     S
C431   H437    1.103   .     S
C431   H436    1.103   .     S
C432   H434    1.111   .     S
C432   H433    1.110   .     S
C432   H435    1.107   .     S
C438   H444    1.105   .     S
C438   C439    1.534   .     S
C438   H443    1.101   .     S
C439   H441    1.111   .     S
C439   H440    1.110   .     S
C439   H442    1.109   .     S
C445   H450    1.101   .     S
C445   C446    1.531   .     S
C445   H451    1.108   .     S
C446   H449    1.105   .     S
C446   H448    1.109   .     S
C446   H447    1.108   .     S
C452   C453    1.533   .     S
C452   H458    1.101   .     S
C452   H457    1.113   .     S
C453   H454    1.109   .     S
C453   H455    1.111   .     S
C453   H456    1.107   .     S
C459   H464    1.103   .     S
C459   H465    1.098   .     S
C459   C460    1.526   .     S
C460   H461    1.111   .     S
C460   H462    1.103   .     S
C460   H463    1.110   .     S
C466   H471    1.107   .     S
C466   C467    1.531   .     S
C466   H472    1.101   .     S
C467   H470    1.111   .     S
C467   H468    1.108   .     S
C467   H469    1.111   .     S
C473   C482    1.488   .     S
C473   O511    1.300   .     A
C473   O514    1.295   .     A
C474   O513    1.303   .     A
C474   O512    1.292   .     A
C474   C481    1.491   .     S
C475   C500    1.433   .     A
C475   C549    1.531   .     S
C475   C1563   1.425   1_554 S
C476   C556    1.516   .     S
C476   C499    1.432   .     A
C476   C1564   1.417   .     S
C477   C563    1.531   .     S
C477   C482    1.426   .     A
C478   C481    1.424   .     A
C478   C570    1.527   .     S
C478   C598    1.399   .     S
C479   C577    1.540   .     S
C479   C481    1.441   .     A
C479   C595    1.425   .     S
C480   C584    1.527   .     S
C480   C482    1.411   .     A
C483   H505    1.081   .     S
C483   N510    1.367   .     A
C484   N509    1.367   .     A
C484   H506    1.081   .     S
C484   C839    1.412   .     S
C485   H507    1.079   .     S
C485   N510    1.365   .     A
C486   H508    1.081   .     S
C486   N509    1.366   .     A
C486   C837    1.413   .     S
C487   C492    1.457   .     S
C487   O515    1.287   .     A
C487   O518    1.290   .     A
C488   O516    1.292   .     A
C488   O517    1.286   .     A
C488   C491    1.459   .     S
C489   C499    1.430   .     A
C489   Cl519   1.778   .     S
C489   C491    1.411   .     A
C490   C500    1.417   .     A
C490   Cl520   1.773   .     S
C490   C492    1.402   .     A
C491   C493    1.402   .     A
C492   C494    1.407   .     A
C493   C521    1.521   .     S
C493   C495    1.402   .     A
C494   C528    1.523   .     S
C494   C496    1.408   .     A
C495   C501    1.411   .     A
C495   C497    1.400   .     A
C496   C498    1.407   .     A
C496   C502    1.412   .     A
C497   C499    1.425   .     A
C497   C1560   1.401   .     S
C498   C500    1.425   .     A
C498   C1559   1.401   1_554 S
C501   C535    1.529   .     S
C501   C1537   1.425   .     S
C502   C542    1.531   .     S
C502   C1538   1.417   1_554 S
Cu503  O515    1.963   .     S
Cu503  N509    2.007   .     S
Cu503  Cu504   2.670   .     S
Cu503  O513    1.987   .     S
Cu503  O511    1.990   .     S
Cu503  O517    1.956   .     S
Cu504  N510    2.007   .     S
Cu504  O512    1.990   .     S
Cu504  O516    1.963   .     S
Cu504  O518    1.956   .     S
Cu504  O514    1.987   .     S
C521   H526    1.108   .     S
C521   H527    1.108   .     S
C521   C522    1.530   .     S
C522   H524    1.111   .     S
C522   H525    1.110   .     S
C522   H523    1.108   .     S
C528   C529    1.530   .     S
C528   H534    1.103   .     S
C528   H533    1.107   .     S
C529   H531    1.108   .     S
C529   H532    1.110   .     S
C529   H530    1.111   .     S
C535   H541    1.098   .     S
C535   H540    1.107   .     S
C535   C536    1.531   .     S
C536   H539    1.111   .     S
C536   H538    1.111   .     S
C536   H537    1.105   .     S
C542   C543    1.531   .     S
C542   H548    1.110   .     S
C542   H547    1.108   .     S
C543   H546    1.111   .     S
C543   H544    1.111   .     S
C543   H1607   1.109   1_554 S
H545   C1605   1.109   .     S
C549   C550    1.533   .     S
C549   H555    1.103   .     S
C549   H554    1.103   .     S
C550   H552    1.111   .     S
C550   H551    1.110   .     S
C550   H553    1.107   .     S
C556   H562    1.105   .     S
C556   C557    1.534   .     S
C556   H561    1.101   .     S
C557   H559    1.111   .     S
C557   H558    1.110   .     S
C557   H560    1.109   .     S
C563   H568    1.101   .     S
C563   C564    1.531   .     S
C563   H569    1.108   .     S
C564   H567    1.105   .     S
C564   H566    1.109   .     S
C564   H565    1.108   .     S
C570   C571    1.533   .     S
C570   H576    1.101   .     S
C570   H575    1.113   .     S
C571   H572    1.109   .     S
C571   H573    1.111   .     S
C571   H574    1.107   .     S
C577   H582    1.103   .     S
C577   H583    1.098   .     S
C577   C578    1.526   .     S
C578   H579    1.111   .     S
C578   H580    1.103   .     S
C578   H581    1.110   .     S
C584   H589    1.107   .     S
C584   C585    1.531   .     S
C584   H590    1.101   .     S
C585   H588    1.111   .     S
C585   H586    1.108   .     S
C585   H587    1.111   .     S
C591   C600    1.488   .     S
C591   O629    1.300   .     A
C591   O632    1.295   .     A
C592   O631    1.303   .     A
C592   O630    1.292   .     A
C592   C599    1.491   .     S
C593   C618    1.433   .     A
C593   C667    1.531   .     S
C593   C1681   1.425   1_554 S
C594   C674    1.516   .     S
C594   C617    1.432   .     A
C594   C1682   1.417   .     S
C595   C681    1.531   .     S
C595   C600    1.426   .     A
C596   C599    1.424   .     A
C596   C688    1.527   .     S
C596   C362    1.399   1_655 S
C597   C695    1.540   .     S
C597   C599    1.441   .     A
C597   C359    1.425   1_655 S
C598   C702    1.527   .     S
C598   C600    1.411   .     A
C601   H623    1.081   .     S
C601   N628    1.367   .     A
C602   N627    1.367   .     A
C602   H624    1.081   .     S
C602   C957    1.412   .     S
C603   H625    1.079   .     S
C603   N628    1.365   .     A
C604   H626    1.081   .     S
C604   N627    1.366   .     A
C604   C955    1.413   .     S
C605   C610    1.457   .     S
C605   O633    1.287   .     A
C605   O636    1.290   .     A
C606   O634    1.292   .     A
C606   O635    1.286   .     A
C606   C609    1.459   .     S
C607   C617    1.430   .     A
C607   Cl637   1.778   .     S
C607   C609    1.411   .     A
C608   C618    1.417   .     A
C608   Cl638   1.773   .     S
C608   C610    1.402   .     A
C609   C611    1.402   .     A
C610   C612    1.407   .     A
C611   C639    1.521   .     S
C611   C613    1.402   .     A
C612   C646    1.523   .     S
C612   C614    1.408   .     A
C613   C619    1.411   .     A
C613   C615    1.400   .     A
C614   C616    1.407   .     A
C614   C620    1.412   .     A
C615   C617    1.425   .     A
C615   C1678   1.401   .     S
C616   C618    1.425   .     A
C616   C1677   1.401   1_554 S
C619   C653    1.529   .     S
C619   C1655   1.425   .     S
C620   C660    1.531   .     S
C620   C1656   1.417   1_554 S
Cu621  O633    1.963   .     S
Cu621  N627    2.007   .     S
Cu621  Cu622   2.670   .     S
Cu621  O631    1.987   .     S
Cu621  O629    1.990   .     S
Cu621  O635    1.956   .     S
Cu622  N628    2.007   .     S
Cu622  O630    1.990   .     S
Cu622  O634    1.963   .     S
Cu622  O636    1.956   .     S
Cu622  O632    1.987   .     S
C639   H644    1.108   .     S
C639   H645    1.108   .     S
C639   C640    1.530   .     S
C640   H642    1.111   .     S
C640   H643    1.110   .     S
C640   H641    1.108   .     S
C646   C647    1.530   .     S
C646   H652    1.103   .     S
C646   H651    1.107   .     S
C647   H649    1.108   .     S
C647   H650    1.110   .     S
C647   H648    1.111   .     S
C653   H659    1.098   .     S
C653   H658    1.107   .     S
C653   C654    1.531   .     S
C654   H657    1.111   .     S
C654   H656    1.111   .     S
C654   H655    1.105   .     S
C660   C661    1.531   .     S
C660   H666    1.110   .     S
C660   H665    1.108   .     S
C661   H664    1.111   .     S
C661   H662    1.111   .     S
C661   H1725   1.109   1_554 S
H663   C1723   1.109   .     S
C667   C668    1.533   .     S
C667   H673    1.103   .     S
C667   H672    1.103   .     S
C668   H670    1.111   .     S
C668   H669    1.110   .     S
C668   H671    1.107   .     S
C674   H680    1.105   .     S
C674   C675    1.534   .     S
C674   H679    1.101   .     S
C675   H677    1.111   .     S
C675   H676    1.110   .     S
C675   H678    1.109   .     S
C681   H686    1.101   .     S
C681   C682    1.531   .     S
C681   H687    1.108   .     S
C682   H685    1.105   .     S
C682   H684    1.109   .     S
C682   H683    1.108   .     S
C688   C689    1.533   .     S
C688   H694    1.101   .     S
C688   H693    1.113   .     S
C689   H690    1.109   .     S
C689   H691    1.111   .     S
C689   H692    1.107   .     S
C695   H700    1.103   .     S
C695   H701    1.098   .     S
C695   C696    1.526   .     S
C696   H697    1.111   .     S
C696   H698    1.103   .     S
C696   H699    1.110   .     S
C702   H707    1.107   .     S
C702   C703    1.531   .     S
C702   H708    1.101   .     S
C703   H706    1.111   .     S
C703   H704    1.108   .     S
C703   H705    1.111   .     S
C709   C718    1.488   .     S
C709   O747    1.300   .     A
C709   O750    1.295   .     A
C710   O749    1.303   .     A
C710   O748    1.292   .     A
C710   C717    1.491   .     S
C711   C736    1.433   .     A
C711   C785    1.531   .     S
C711   C1799   1.425   1_554 S
C712   C792    1.516   .     S
C712   C735    1.432   .     A
C712   C1800   1.417   .     S
C713   C799    1.531   .     S
C713   C718    1.426   .     A
C713   C951    1.425   1_455 S
C714   C717    1.424   .     A
C714   C806    1.527   .     S
C714   C834    1.399   .     S
C715   C813    1.540   .     S
C715   C717    1.441   .     A
C715   C831    1.425   .     S
C716   C820    1.527   .     S
C716   C718    1.411   .     A
C716   C950    1.399   1_455 S
C719   H741    1.081   .     S
C719   N746    1.367   .     A
C720   N745    1.367   .     A
C720   H742    1.081   .     S
C720   C13     1.412   1_565 S
C721   H743    1.079   .     S
C721   N746    1.365   .     A
C722   H744    1.081   .     S
C722   N745    1.366   .     A
C722   C11     1.413   1_565 S
C723   C728    1.457   .     S
C723   O751    1.287   .     A
C723   O754    1.290   .     A
C724   O752    1.292   .     A
C724   O753    1.286   .     A
C724   C727    1.459   .     S
C725   C735    1.430   .     A
C725   Cl755   1.778   .     S
C725   C727    1.411   .     A
C726   C736    1.417   .     A
C726   Cl756   1.773   .     S
C726   C728    1.402   .     A
C727   C729    1.402   .     A
C728   C730    1.407   .     A
C729   C757    1.521   .     S
C729   C731    1.402   .     A
C730   C764    1.523   .     S
C730   C732    1.408   .     A
C731   C737    1.411   .     A
C731   C733    1.400   .     A
C732   C734    1.407   .     A
C732   C738    1.412   .     A
C733   C735    1.425   .     A
C733   C1796   1.401   .     S
C734   C736    1.425   .     A
C734   C1795   1.401   1_554 S
C737   C771    1.529   .     S
C737   C1773   1.425   .     S
C738   C778    1.531   .     S
C738   C1774   1.417   1_554 S
Cu739  O751    1.963   .     S
Cu739  N745    2.007   .     S
Cu739  Cu740   2.670   .     S
Cu739  O749    1.987   .     S
Cu739  O747    1.990   .     S
Cu739  O753    1.956   .     S
Cu740  N746    2.007   .     S
Cu740  O748    1.990   .     S
Cu740  O752    1.963   .     S
Cu740  O754    1.956   .     S
Cu740  O750    1.987   .     S
C757   H762    1.108   .     S
C757   H763    1.108   .     S
C757   C758    1.530   .     S
C758   H760    1.111   .     S
C758   H761    1.110   .     S
C758   H759    1.108   .     S
C764   C765    1.530   .     S
C764   H770    1.103   .     S
C764   H769    1.107   .     S
C765   H767    1.108   .     S
C765   H768    1.110   .     S
C765   H766    1.111   .     S
C771   H777    1.098   .     S
C771   H776    1.107   .     S
C771   C772    1.531   .     S
C772   H775    1.111   .     S
C772   H774    1.111   .     S
C772   H773    1.105   .     S
C778   C779    1.531   .     S
C778   H784    1.110   .     S
C778   H783    1.108   .     S
C779   H782    1.111   .     S
C779   H780    1.111   .     S
C779   H1843   1.109   1_554 S
H781   C1841   1.109   .     S
C785   C786    1.533   .     S
C785   H791    1.103   .     S
C785   H790    1.103   .     S
C786   H788    1.111   .     S
C786   H787    1.110   .     S
C786   H789    1.107   .     S
C792   H798    1.105   .     S
C792   C793    1.534   .     S
C792   H797    1.101   .     S
C793   H795    1.111   .     S
C793   H794    1.110   .     S
C793   H796    1.109   .     S
C799   H804    1.101   .     S
C799   C800    1.531   .     S
C799   H805    1.108   .     S
C800   H803    1.105   .     S
C800   H802    1.109   .     S
C800   H801    1.108   .     S
C806   C807    1.533   .     S
C806   H812    1.101   .     S
C806   H811    1.113   .     S
C807   H808    1.109   .     S
C807   H809    1.111   .     S
C807   H810    1.107   .     S
C813   H818    1.103   .     S
C813   H819    1.098   .     S
C813   C814    1.526   .     S
C814   H815    1.111   .     S
C814   H816    1.103   .     S
C814   H817    1.110   .     S
C820   H825    1.107   .     S
C820   C821    1.531   .     S
C820   H826    1.101   .     S
C821   H824    1.111   .     S
C821   H822    1.108   .     S
C821   H823    1.111   .     S
C827   C836    1.488   .     S
C827   O865    1.300   .     A
C827   O868    1.295   .     A
C828   O867    1.303   .     A
C828   O866    1.292   .     A
C828   C835    1.491   .     S
C829   C854    1.433   .     A
C829   C903    1.531   .     S
C829   C1917   1.425   1_554 S
C830   C910    1.516   .     S
C830   C853    1.432   .     A
C830   C1918   1.417   .     S
C831   C917    1.531   .     S
C831   C836    1.426   .     A
C832   C835    1.424   .     A
C832   C924    1.527   .     S
C832   C952    1.399   .     S
C833   C931    1.540   .     S
C833   C835    1.441   .     A
C833   C949    1.425   .     S
C834   C938    1.527   .     S
C834   C836    1.411   .     A
C837   H859    1.081   .     S
C837   N864    1.367   .     A
C838   N863    1.367   .     A
C838   H860    1.081   .     S
C838   C131    1.412   1_565 S
C839   H861    1.079   .     S
C839   N864    1.365   .     A
C840   H862    1.081   .     S
C840   N863    1.366   .     A
C840   C129    1.413   1_565 S
C841   C846    1.457   .     S
C841   O869    1.287   .     A
C841   O872    1.290   .     A
C842   O870    1.292   .     A
C842   O871    1.286   .     A
C842   C845    1.459   .     S
C843   C853    1.430   .     A
C843   Cl873   1.778   .     S
C843   C845    1.411   .     A
C844   C854    1.417   .     A
C844   Cl874   1.773   .     S
C844   C846    1.402   .     A
C845   C847    1.402   .     A
C846   C848    1.407   .     A
C847   C875    1.521   .     S
C847   C849    1.402   .     A
C848   C882    1.523   .     S
C848   C850    1.408   .     A
C849   C855    1.411   .     A
C849   C851    1.400   .     A
C850   C852    1.407   .     A
C850   C856    1.412   .     A
C851   C853    1.425   .     A
C851   C1914   1.401   .     S
C852   C854    1.425   .     A
C852   C1913   1.401   1_554 S
C855   C889    1.529   .     S
C855   C1891   1.425   .     S
C856   C896    1.531   .     S
C856   C1892   1.417   1_554 S
Cu857  O869    1.963   .     S
Cu857  N863    2.007   .     S
Cu857  Cu858   2.670   .     S
Cu857  O867    1.987   .     S
Cu857  O865    1.990   .     S
Cu857  O871    1.956   .     S
Cu858  N864    2.007   .     S
Cu858  O866    1.990   .     S
Cu858  O870    1.963   .     S
Cu858  O872    1.956   .     S
Cu858  O868    1.987   .     S
C875   H880    1.108   .     S
C875   H881    1.108   .     S
C875   C876    1.530   .     S
C876   H878    1.111   .     S
C876   H879    1.110   .     S
C876   H877    1.108   .     S
C882   C883    1.530   .     S
C882   H888    1.103   .     S
C882   H887    1.107   .     S
C883   H885    1.108   .     S
C883   H886    1.110   .     S
C883   H884    1.111   .     S
C889   H895    1.098   .     S
C889   H894    1.107   .     S
C889   C890    1.531   .     S
C890   H893    1.111   .     S
C890   H892    1.111   .     S
C890   H891    1.105   .     S
C896   C897    1.531   .     S
C896   H902    1.110   .     S
C896   H901    1.108   .     S
C897   H900    1.111   .     S
C897   H898    1.111   .     S
C897   H1961   1.109   1_554 S
H899   C1959   1.109   .     S
C903   C904    1.533   .     S
C903   H909    1.103   .     S
C903   H908    1.103   .     S
C904   H906    1.111   .     S
C904   H905    1.110   .     S
C904   H907    1.107   .     S
C910   H916    1.105   .     S
C910   C911    1.534   .     S
C910   H915    1.101   .     S
C911   H913    1.111   .     S
C911   H912    1.110   .     S
C911   H914    1.109   .     S
C917   H922    1.101   .     S
C917   C918    1.531   .     S
C917   H923    1.108   .     S
C918   H921    1.105   .     S
C918   H920    1.109   .     S
C918   H919    1.108   .     S
C924   C925    1.533   .     S
C924   H930    1.101   .     S
C924   H929    1.113   .     S
C925   H926    1.109   .     S
C925   H927    1.111   .     S
C925   H928    1.107   .     S
C931   H936    1.103   .     S
C931   H937    1.098   .     S
C931   C932    1.526   .     S
C932   H933    1.111   .     S
C932   H934    1.103   .     S
C932   H935    1.110   .     S
C938   H943    1.107   .     S
C938   C939    1.531   .     S
C938   H944    1.101   .     S
C939   H942    1.111   .     S
C939   H940    1.108   .     S
C939   H941    1.111   .     S
C945   C954    1.488   .     S
C945   O983    1.300   .     A
C945   O986    1.295   .     A
C946   O985    1.303   .     A
C946   O984    1.292   .     A
C946   C953    1.491   .     S
C947   C972    1.433   .     A
C947   C1021   1.531   .     S
C947   C2035   1.425   1_554 S
C948   C1028   1.516   .     S
C948   C971    1.432   .     A
C948   C2036   1.417   .     S
C949   C1035   1.531   .     S
C949   C954    1.426   .     A
C950   C953    1.424   .     A
C950   C1042   1.527   .     S
C950   C716    1.399   1_655 S
C951   C1049   1.540   .     S
C951   C953    1.441   .     A
C951   C713    1.425   1_655 S
C952   C1056   1.527   .     S
C952   C954    1.411   .     A
C955   H977    1.081   .     S
C955   N982    1.367   .     A
C956   N981    1.367   .     A
C956   H978    1.081   .     S
C956   C249    1.412   1_565 S
C957   H979    1.079   .     S
C957   N982    1.365   .     A
C958   H980    1.081   .     S
C958   N981    1.366   .     A
C958   C247    1.413   1_565 S
C959   C964    1.457   .     S
C959   O987    1.287   .     A
C959   O990    1.290   .     A
C960   O988    1.292   .     A
C960   O989    1.286   .     A
C960   C963    1.459   .     S
C961   C971    1.430   .     A
C961   Cl991   1.778   .     S
C961   C963    1.411   .     A
C962   C972    1.417   .     A
C962   Cl992   1.773   .     S
C962   C964    1.402   .     A
C963   C965    1.402   .     A
C964   C966    1.407   .     A
C965   C993    1.521   .     S
C965   C967    1.402   .     A
C966   C1000   1.523   .     S
C966   C968    1.408   .     A
C967   C973    1.411   .     A
C967   C969    1.400   .     A
C968   C970    1.407   .     A
C968   C974    1.412   .     A
C969   C971    1.425   .     A
C969   C2032   1.401   .     S
C970   C972    1.425   .     A
C970   C2031   1.401   1_554 S
C973   C1007   1.529   .     S
C973   C2009   1.425   .     S
C974   C1014   1.531   .     S
C974   C2010   1.417   1_554 S
Cu975  O987    1.963   .     S
Cu975  N981    2.007   .     S
Cu975  Cu976   2.670   .     S
Cu975  O985    1.987   .     S
Cu975  O983    1.990   .     S
Cu975  O989    1.956   .     S
Cu976  N982    2.007   .     S
Cu976  O984    1.990   .     S
Cu976  O988    1.963   .     S
Cu976  O990    1.956   .     S
Cu976  O986    1.987   .     S
C993   H998    1.108   .     S
C993   H999    1.108   .     S
C993   C994    1.530   .     S
C994   H996    1.111   .     S
C994   H997    1.110   .     S
C994   H995    1.108   .     S
C1000  C1001   1.530   .     S
C1000  H1006   1.103   .     S
C1000  H1005   1.107   .     S
C1001  H1003   1.108   .     S
C1001  H1004   1.110   .     S
C1001  H1002   1.111   .     S
C1007  H1013   1.098   .     S
C1007  H1012   1.107   .     S
C1007  C1008   1.531   .     S
C1008  H1011   1.111   .     S
C1008  H1010   1.111   .     S
C1008  H1009   1.105   .     S
C1014  C1015   1.531   .     S
C1014  H1020   1.110   .     S
C1014  H1019   1.108   .     S
C1015  H1018   1.111   .     S
C1015  H1016   1.111   .     S
C1015  H2079   1.109   1_554 S
H1017  C2077   1.109   .     S
C1021  C1022   1.533   .     S
C1021  H1027   1.103   .     S
C1021  H1026   1.103   .     S
C1022  H1024   1.111   .     S
C1022  H1023   1.110   .     S
C1022  H1025   1.107   .     S
C1028  H1034   1.105   .     S
C1028  C1029   1.534   .     S
C1028  H1033   1.101   .     S
C1029  H1031   1.111   .     S
C1029  H1030   1.110   .     S
C1029  H1032   1.109   .     S
C1035  H1040   1.101   .     S
C1035  C1036   1.531   .     S
C1035  H1041   1.108   .     S
C1036  H1039   1.105   .     S
C1036  H1038   1.109   .     S
C1036  H1037   1.108   .     S
C1042  C1043   1.533   .     S
C1042  H1048   1.101   .     S
C1042  H1047   1.113   .     S
C1043  H1044   1.109   .     S
C1043  H1045   1.111   .     S
C1043  H1046   1.107   .     S
C1049  H1054   1.103   .     S
C1049  H1055   1.098   .     S
C1049  C1050   1.526   .     S
C1050  H1051   1.111   .     S
C1050  H1052   1.103   .     S
C1050  H1053   1.110   .     S
C1056  H1061   1.107   .     S
C1056  C1057   1.531   .     S
C1056  H1062   1.101   .     S
C1057  H1060   1.111   .     S
C1057  H1058   1.108   .     S
C1057  H1059   1.111   .     S
C1063  C1072   1.488   .     S
C1063  O1101   1.300   .     A
C1063  O1104   1.295   .     A
C1064  O1103   1.303   .     A
C1064  O1102   1.292   .     A
C1064  C1071   1.491   .     S
C1065  C1090   1.433   .     A
C1065  C1139   1.531   .     S
C1066  C1146   1.516   .     S
C1066  C1089   1.432   .     A
C1066  C30     1.417   1_556 S
C1067  C1153   1.531   .     S
C1067  C1072   1.426   .     A
C1067  C1305   1.425   1_455 S
C1068  C1071   1.424   .     A
C1068  C1160   1.527   .     S
C1068  C1188   1.399   .     S
C1069  C1167   1.540   .     S
C1069  C1071   1.441   .     A
C1069  C1185   1.425   .     S
C1070  C1174   1.527   .     S
C1070  C1072   1.411   .     A
C1070  C1304   1.399   1_455 S
C1073  H1095   1.081   .     S
C1073  N1100   1.367   .     A
C1073  C1784   1.413   1_545 S
C1074  N1099   1.367   .     A
C1074  H1096   1.081   .     S
C1074  C1429   1.412   .     S
C1075  H1097   1.079   .     S
C1075  N1100   1.365   .     A
C1075  C1782   1.412   1_545 S
C1076  H1098   1.081   .     S
C1076  N1099   1.366   .     A
C1076  C1427   1.413   .     S
C1077  C1082   1.457   .     S
C1077  O1105   1.287   .     A
C1077  O1108   1.290   .     A
C1078  O1106   1.292   .     A
C1078  O1107   1.286   .     A
C1078  C1081   1.459   .     S
C1079  C1089   1.430   .     A
C1079  Cl1109  1.778   .     S
C1079  C1081   1.411   .     A
C1080  C1090   1.417   .     A
C1080  Cl1110  1.773   .     S
C1080  C1082   1.402   .     A
C1081  C1083   1.402   .     A
C1082  C1084   1.407   .     A
C1083  C1111   1.521   .     S
C1083  C1085   1.402   .     A
C1084  C1118   1.523   .     S
C1084  C1086   1.408   .     A
C1085  C1091   1.411   .     A
C1085  C1087   1.400   .     A
C1086  C1088   1.407   .     A
C1086  C1092   1.412   .     A
C1087  C1089   1.425   .     A
C1087  C26     1.401   1_556 S
C1088  C1090   1.425   .     A
C1091  C1125   1.529   .     S
C1091  C3      1.425   1_556 S
C1092  C1132   1.531   .     S
Cu1093 O1105   1.963   .     S
Cu1093 N1099   2.007   .     S
Cu1093 Cu1094  2.670   .     S
Cu1093 O1103   1.987   .     S
Cu1093 O1101   1.990   .     S
Cu1093 O1107   1.956   .     S
Cu1094 N1100   2.007   .     S
Cu1094 O1102   1.990   .     S
Cu1094 O1106   1.963   .     S
Cu1094 O1108   1.956   .     S
Cu1094 O1104   1.987   .     S
C1111  H1116   1.108   .     S
C1111  H1117   1.108   .     S
C1111  C1112   1.530   .     S
C1112  H1114   1.111   .     S
C1112  H1115   1.110   .     S
C1112  H1113   1.108   .     S
C1118  C1119   1.530   .     S
C1118  H1124   1.103   .     S
C1118  H1123   1.107   .     S
C1119  H1121   1.108   .     S
C1119  H1122   1.110   .     S
C1119  H1120   1.111   .     S
C1125  H1131   1.098   .     S
C1125  H1130   1.107   .     S
C1125  C1126   1.531   .     S
C1126  H1129   1.111   .     S
C1126  H1128   1.111   .     S
C1126  H1127   1.105   .     S
C1132  C1133   1.531   .     S
C1132  H1138   1.110   .     S
C1132  H1137   1.108   .     S
C1133  H1136   1.111   .     S
C1133  H1134   1.111   .     S
H1135  C71     1.109   1_556 S
C1139  C1140   1.533   .     S
C1139  H1145   1.103   .     S
C1139  H1144   1.103   .     S
C1140  H1142   1.111   .     S
C1140  H1141   1.110   .     S
C1140  H1143   1.107   .     S
C1146  H1152   1.105   .     S
C1146  C1147   1.534   .     S
C1146  H1151   1.101   .     S
C1147  H1149   1.111   .     S
C1147  H1148   1.110   .     S
C1147  H1150   1.109   .     S
C1153  H1158   1.101   .     S
C1153  C1154   1.531   .     S
C1153  H1159   1.108   .     S
C1154  H1157   1.105   .     S
C1154  H1156   1.109   .     S
C1154  H1155   1.108   .     S
C1160  C1161   1.533   .     S
C1160  H1166   1.101   .     S
C1160  H1165   1.113   .     S
C1161  H1162   1.109   .     S
C1161  H1163   1.111   .     S
C1161  H1164   1.107   .     S
C1167  H1172   1.103   .     S
C1167  H1173   1.098   .     S
C1167  C1168   1.526   .     S
C1168  H1169   1.111   .     S
C1168  H1170   1.103   .     S
C1168  H1171   1.110   .     S
C1174  H1179   1.107   .     S
C1174  C1175   1.531   .     S
C1174  H1180   1.101   .     S
C1175  H1178   1.111   .     S
C1175  H1176   1.108   .     S
C1175  H1177   1.111   .     S
C1181  C1190   1.488   .     S
C1181  O1219   1.300   .     A
C1181  O1222   1.295   .     A
C1182  O1221   1.303   .     A
C1182  O1220   1.292   .     A
C1182  C1189   1.491   .     S
C1183  C1208   1.433   .     A
C1183  C1257   1.531   .     S
C1184  C1264   1.516   .     S
C1184  C1207   1.432   .     A
C1184  C148    1.417   1_556 S
C1185  C1271   1.531   .     S
C1185  C1190   1.426   .     A
C1186  C1189   1.424   .     A
C1186  C1278   1.527   .     S
C1186  C1306   1.399   .     S
C1187  C1285   1.540   .     S
C1187  C1189   1.441   .     A
C1187  C1303   1.425   .     S
C1188  C1292   1.527   .     S
C1188  C1190   1.411   .     A
C1191  H1213   1.081   .     S
C1191  N1218   1.367   .     A
C1191  C1902   1.413   1_545 S
C1192  N1217   1.367   .     A
C1192  H1214   1.081   .     S
C1192  C1547   1.412   .     S
C1193  H1215   1.079   .     S
C1193  N1218   1.365   .     A
C1193  C1900   1.412   1_545 S
C1194  H1216   1.081   .     S
C1194  N1217   1.366   .     A
C1194  C1545   1.413   .     S
C1195  C1200   1.457   .     S
C1195  O1223   1.287   .     A
C1195  O1226   1.290   .     A
C1196  O1224   1.292   .     A
C1196  O1225   1.286   .     A
C1196  C1199   1.459   .     S
C1197  C1207   1.430   .     A
C1197  Cl1227  1.778   .     S
C1197  C1199   1.411   .     A
C1198  C1208   1.417   .     A
C1198  Cl1228  1.773   .     S
C1198  C1200   1.402   .     A
C1199  C1201   1.402   .     A
C1200  C1202   1.407   .     A
C1201  C1229   1.521   .     S
C1201  C1203   1.402   .     A
C1202  C1236   1.523   .     S
C1202  C1204   1.408   .     A
C1203  C1209   1.411   .     A
C1203  C1205   1.400   .     A
C1204  C1206   1.407   .     A
C1204  C1210   1.412   .     A
C1205  C1207   1.425   .     A
C1205  C144    1.401   1_556 S
C1206  C1208   1.425   .     A
C1209  C1243   1.529   .     S
C1209  C121    1.425   1_556 S
C1210  C1250   1.531   .     S
Cu1211 O1223   1.963   .     S
Cu1211 N1217   2.007   .     S
Cu1211 Cu1212  2.670   .     S
Cu1211 O1221   1.987   .     S
Cu1211 O1219   1.990   .     S
Cu1211 O1225   1.956   .     S
Cu1212 N1218   2.007   .     S
Cu1212 O1220   1.990   .     S
Cu1212 O1224   1.963   .     S
Cu1212 O1226   1.956   .     S
Cu1212 O1222   1.987   .     S
C1229  H1234   1.108   .     S
C1229  H1235   1.108   .     S
C1229  C1230   1.530   .     S
C1230  H1232   1.111   .     S
C1230  H1233   1.110   .     S
C1230  H1231   1.108   .     S
C1236  C1237   1.530   .     S
C1236  H1242   1.103   .     S
C1236  H1241   1.107   .     S
C1237  H1239   1.108   .     S
C1237  H1240   1.110   .     S
C1237  H1238   1.111   .     S
C1243  H1249   1.098   .     S
C1243  H1248   1.107   .     S
C1243  C1244   1.531   .     S
C1244  H1247   1.111   .     S
C1244  H1246   1.111   .     S
C1244  H1245   1.105   .     S
C1250  C1251   1.531   .     S
C1250  H1256   1.110   .     S
C1250  H1255   1.108   .     S
C1251  H1254   1.111   .     S
C1251  H1252   1.111   .     S
H1253  C189    1.109   1_556 S
C1257  C1258   1.533   .     S
C1257  H1263   1.103   .     S
C1257  H1262   1.103   .     S
C1258  H1260   1.111   .     S
C1258  H1259   1.110   .     S
C1258  H1261   1.107   .     S
C1264  H1270   1.105   .     S
C1264  C1265   1.534   .     S
C1264  H1269   1.101   .     S
C1265  H1267   1.111   .     S
C1265  H1266   1.110   .     S
C1265  H1268   1.109   .     S
C1271  H1276   1.101   .     S
C1271  C1272   1.531   .     S
C1271  H1277   1.108   .     S
C1272  H1275   1.105   .     S
C1272  H1274   1.109   .     S
C1272  H1273   1.108   .     S
C1278  C1279   1.533   .     S
C1278  H1284   1.101   .     S
C1278  H1283   1.113   .     S
C1279  H1280   1.109   .     S
C1279  H1281   1.111   .     S
C1279  H1282   1.107   .     S
C1285  H1290   1.103   .     S
C1285  H1291   1.098   .     S
C1285  C1286   1.526   .     S
C1286  H1287   1.111   .     S
C1286  H1288   1.103   .     S
C1286  H1289   1.110   .     S
C1292  H1297   1.107   .     S
C1292  C1293   1.531   .     S
C1292  H1298   1.101   .     S
C1293  H1296   1.111   .     S
C1293  H1294   1.108   .     S
C1293  H1295   1.111   .     S
C1299  C1308   1.488   .     S
C1299  O1337   1.300   .     A
C1299  O1340   1.295   .     A
C1300  O1339   1.303   .     A
C1300  O1338   1.292   .     A
C1300  C1307   1.491   .     S
C1301  C1326   1.433   .     A
C1301  C1375   1.531   .     S
C1302  C1382   1.516   .     S
C1302  C1325   1.432   .     A
C1302  C266    1.417   1_556 S
C1303  C1389   1.531   .     S
C1303  C1308   1.426   .     A
C1304  C1307   1.424   .     A
C1304  C1396   1.527   .     S
C1304  C1070   1.399   1_655 S
C1305  C1403   1.540   .     S
C1305  C1307   1.441   .     A
C1305  C1067   1.425   1_655 S
C1306  C1410   1.527   .     S
C1306  C1308   1.411   .     A
C1309  H1331   1.081   .     S
C1309  N1336   1.367   .     A
C1309  C2020   1.413   1_545 S
C1310  N1335   1.367   .     A
C1310  H1332   1.081   .     S
C1310  C1665   1.412   .     S
C1311  H1333   1.079   .     S
C1311  N1336   1.365   .     A
C1311  C2018   1.412   1_545 S
C1312  H1334   1.081   .     S
C1312  N1335   1.366   .     A
C1312  C1663   1.413   .     S
C1313  C1318   1.457   .     S
C1313  O1341   1.287   .     A
C1313  O1344   1.290   .     A
C1314  O1342   1.292   .     A
C1314  O1343   1.286   .     A
C1314  C1317   1.459   .     S
C1315  C1325   1.430   .     A
C1315  Cl1345  1.778   .     S
C1315  C1317   1.411   .     A
C1316  C1326   1.417   .     A
C1316  Cl1346  1.773   .     S
C1316  C1318   1.402   .     A
C1317  C1319   1.402   .     A
C1318  C1320   1.407   .     A
C1319  C1347   1.521   .     S
C1319  C1321   1.402   .     A
C1320  C1354   1.523   .     S
C1320  C1322   1.408   .     A
C1321  C1327   1.411   .     A
C1321  C1323   1.400   .     A
C1322  C1324   1.407   .     A
C1322  C1328   1.412   .     A
C1323  C1325   1.425   .     A
C1323  C262    1.401   1_556 S
C1324  C1326   1.425   .     A
C1327  C1361   1.529   .     S
C1327  C239    1.425   1_556 S
C1328  C1368   1.531   .     S
Cu1329 O1341   1.963   .     S
Cu1329 N1335   2.007   .     S
Cu1329 Cu1330  2.670   .     S
Cu1329 O1339   1.987   .     S
Cu1329 O1337   1.990   .     S
Cu1329 O1343   1.956   .     S
Cu1330 N1336   2.007   .     S
Cu1330 O1338   1.990   .     S
Cu1330 O1342   1.963   .     S
Cu1330 O1344   1.956   .     S
Cu1330 O1340   1.987   .     S
C1347  H1352   1.108   .     S
C1347  H1353   1.108   .     S
C1347  C1348   1.530   .     S
C1348  H1350   1.111   .     S
C1348  H1351   1.110   .     S
C1348  H1349   1.108   .     S
C1354  C1355   1.530   .     S
C1354  H1360   1.103   .     S
C1354  H1359   1.107   .     S
C1355  H1357   1.108   .     S
C1355  H1358   1.110   .     S
C1355  H1356   1.111   .     S
C1361  H1367   1.098   .     S
C1361  H1366   1.107   .     S
C1361  C1362   1.531   .     S
C1362  H1365   1.111   .     S
C1362  H1364   1.111   .     S
C1362  H1363   1.105   .     S
C1368  C1369   1.531   .     S
C1368  H1374   1.110   .     S
C1368  H1373   1.108   .     S
C1369  H1372   1.111   .     S
C1369  H1370   1.111   .     S
H1371  C307    1.109   1_556 S
C1375  C1376   1.533   .     S
C1375  H1381   1.103   .     S
C1375  H1380   1.103   .     S
C1376  H1378   1.111   .     S
C1376  H1377   1.110   .     S
C1376  H1379   1.107   .     S
C1382  H1388   1.105   .     S
C1382  C1383   1.534   .     S
C1382  H1387   1.101   .     S
C1383  H1385   1.111   .     S
C1383  H1384   1.110   .     S
C1383  H1386   1.109   .     S
C1389  H1394   1.101   .     S
C1389  C1390   1.531   .     S
C1389  H1395   1.108   .     S
C1390  H1393   1.105   .     S
C1390  H1392   1.109   .     S
C1390  H1391   1.108   .     S
C1396  C1397   1.533   .     S
C1396  H1402   1.101   .     S
C1396  H1401   1.113   .     S
C1397  H1398   1.109   .     S
C1397  H1399   1.111   .     S
C1397  H1400   1.107   .     S
C1403  H1408   1.103   .     S
C1403  H1409   1.098   .     S
C1403  C1404   1.526   .     S
C1404  H1405   1.111   .     S
C1404  H1406   1.103   .     S
C1404  H1407   1.110   .     S
C1410  H1415   1.107   .     S
C1410  C1411   1.531   .     S
C1410  H1416   1.101   .     S
C1411  H1414   1.111   .     S
C1411  H1412   1.108   .     S
C1411  H1413   1.111   .     S
C1417  C1426   1.488   .     S
C1417  O1455   1.300   .     A
C1417  O1458   1.295   .     A
C1418  O1457   1.303   .     A
C1418  O1456   1.292   .     A
C1418  C1425   1.491   .     S
C1419  C1444   1.433   .     A
C1419  C1493   1.531   .     S
C1420  C1500   1.516   .     S
C1420  C1443   1.432   .     A
C1420  C384    1.417   1_556 S
C1421  C1507   1.531   .     S
C1421  C1426   1.426   .     A
C1421  C1659   1.425   1_455 S
C1422  C1425   1.424   .     A
C1422  C1514   1.527   .     S
C1422  C1542   1.399   .     S
C1423  C1521   1.540   .     S
C1423  C1425   1.441   .     A
C1423  C1539   1.425   .     S
C1424  C1528   1.527   .     S
C1424  C1426   1.411   .     A
C1424  C1658   1.399   1_455 S
C1427  H1449   1.081   .     S
C1427  N1454   1.367   .     A
C1428  N1453   1.367   .     A
C1428  H1450   1.081   .     S
C1428  C1783   1.412   .     S
C1429  H1451   1.079   .     S
C1429  N1454   1.365   .     A
C1430  H1452   1.081   .     S
C1430  N1453   1.366   .     A
C1430  C1781   1.413   .     S
C1431  C1436   1.457   .     S
C1431  O1459   1.287   .     A
C1431  O1462   1.290   .     A
C1432  O1460   1.292   .     A
C1432  O1461   1.286   .     A
C1432  C1435   1.459   .     S
C1433  C1443   1.430   .     A
C1433  Cl1463  1.778   .     S
C1433  C1435   1.411   .     A
C1434  C1444   1.417   .     A
C1434  Cl1464  1.773   .     S
C1434  C1436   1.402   .     A
C1435  C1437   1.402   .     A
C1436  C1438   1.407   .     A
C1437  C1465   1.521   .     S
C1437  C1439   1.402   .     A
C1438  C1472   1.523   .     S
C1438  C1440   1.408   .     A
C1439  C1445   1.411   .     A
C1439  C1441   1.400   .     A
C1440  C1442   1.407   .     A
C1440  C1446   1.412   .     A
C1441  C1443   1.425   .     A
C1441  C380    1.401   1_556 S
C1442  C1444   1.425   .     A
C1445  C1479   1.529   .     S
C1445  C357    1.425   1_556 S
C1446  C1486   1.531   .     S
Cu1447 O1459   1.963   .     S
Cu1447 N1453   2.007   .     S
Cu1447 Cu1448  2.670   .     S
Cu1447 O1457   1.987   .     S
Cu1447 O1455   1.990   .     S
Cu1447 O1461   1.956   .     S
Cu1448 N1454   2.007   .     S
Cu1448 O1456   1.990   .     S
Cu1448 O1460   1.963   .     S
Cu1448 O1462   1.956   .     S
Cu1448 O1458   1.987   .     S
C1465  H1470   1.108   .     S
C1465  H1471   1.108   .     S
C1465  C1466   1.530   .     S
C1466  H1468   1.111   .     S
C1466  H1469   1.110   .     S
C1466  H1467   1.108   .     S
C1472  C1473   1.530   .     S
C1472  H1478   1.103   .     S
C1472  H1477   1.107   .     S
C1473  H1475   1.108   .     S
C1473  H1476   1.110   .     S
C1473  H1474   1.111   .     S
C1479  H1485   1.098   .     S
C1479  H1484   1.107   .     S
C1479  C1480   1.531   .     S
C1480  H1483   1.111   .     S
C1480  H1482   1.111   .     S
C1480  H1481   1.105   .     S
C1486  C1487   1.531   .     S
C1486  H1492   1.110   .     S
C1486  H1491   1.108   .     S
C1487  H1490   1.111   .     S
C1487  H1488   1.111   .     S
H1489  C425    1.109   1_556 S
C1493  C1494   1.533   .     S
C1493  H1499   1.103   .     S
C1493  H1498   1.103   .     S
C1494  H1496   1.111   .     S
C1494  H1495   1.110   .     S
C1494  H1497   1.107   .     S
C1500  H1506   1.105   .     S
C1500  C1501   1.534   .     S
C1500  H1505   1.101   .     S
C1501  H1503   1.111   .     S
C1501  H1502   1.110   .     S
C1501  H1504   1.109   .     S
C1507  H1512   1.101   .     S
C1507  C1508   1.531   .     S
C1507  H1513   1.108   .     S
C1508  H1511   1.105   .     S
C1508  H1510   1.109   .     S
C1508  H1509   1.108   .     S
C1514  C1515   1.533   .     S
C1514  H1520   1.101   .     S
C1514  H1519   1.113   .     S
C1515  H1516   1.109   .     S
C1515  H1517   1.111   .     S
C1515  H1518   1.107   .     S
C1521  H1526   1.103   .     S
C1521  H1527   1.098   .     S
C1521  C1522   1.526   .     S
C1522  H1523   1.111   .     S
C1522  H1524   1.103   .     S
C1522  H1525   1.110   .     S
C1528  H1533   1.107   .     S
C1528  C1529   1.531   .     S
C1528  H1534   1.101   .     S
C1529  H1532   1.111   .     S
C1529  H1530   1.108   .     S
C1529  H1531   1.111   .     S
C1535  C1544   1.488   .     S
C1535  O1573   1.300   .     A
C1535  O1576   1.295   .     A
C1536  O1575   1.303   .     A
C1536  O1574   1.292   .     A
C1536  C1543   1.491   .     S
C1537  C1562   1.433   .     A
C1537  C1611   1.531   .     S
C1538  C1618   1.516   .     S
C1538  C1561   1.432   .     A
C1538  C502    1.417   1_556 S
C1539  C1625   1.531   .     S
C1539  C1544   1.426   .     A
C1540  C1543   1.424   .     A
C1540  C1632   1.527   .     S
C1540  C1660   1.399   .     S
C1541  C1639   1.540   .     S
C1541  C1543   1.441   .     A
C1541  C1657   1.425   .     S
C1542  C1646   1.527   .     S
C1542  C1544   1.411   .     A
C1545  H1567   1.081   .     S
C1545  N1572   1.367   .     A
C1546  N1571   1.367   .     A
C1546  H1568   1.081   .     S
C1546  C1901   1.412   .     S
C1547  H1569   1.079   .     S
C1547  N1572   1.365   .     A
C1548  H1570   1.081   .     S
C1548  N1571   1.366   .     A
C1548  C1899   1.413   .     S
C1549  C1554   1.457   .     S
C1549  O1577   1.287   .     A
C1549  O1580   1.290   .     A
C1550  O1578   1.292   .     A
C1550  O1579   1.286   .     A
C1550  C1553   1.459   .     S
C1551  C1561   1.430   .     A
C1551  Cl1581  1.778   .     S
C1551  C1553   1.411   .     A
C1552  C1562   1.417   .     A
C1552  Cl1582  1.773   .     S
C1552  C1554   1.402   .     A
C1553  C1555   1.402   .     A
C1554  C1556   1.407   .     A
C1555  C1583   1.521   .     S
C1555  C1557   1.402   .     A
C1556  C1590   1.523   .     S
C1556  C1558   1.408   .     A
C1557  C1563   1.411   .     A
C1557  C1559   1.400   .     A
C1558  C1560   1.407   .     A
C1558  C1564   1.412   .     A
C1559  C1561   1.425   .     A
C1559  C498    1.401   1_556 S
C1560  C1562   1.425   .     A
C1563  C1597   1.529   .     S
C1563  C475    1.425   1_556 S
C1564  C1604   1.531   .     S
Cu1565 O1577   1.963   .     S
Cu1565 N1571   2.007   .     S
Cu1565 Cu1566  2.670   .     S
Cu1565 O1575   1.987   .     S
Cu1565 O1573   1.990   .     S
Cu1565 O1579   1.956   .     S
Cu1566 N1572   2.007   .     S
Cu1566 O1574   1.990   .     S
Cu1566 O1578   1.963   .     S
Cu1566 O1580   1.956   .     S
Cu1566 O1576   1.987   .     S
C1583  H1588   1.108   .     S
C1583  H1589   1.108   .     S
C1583  C1584   1.530   .     S
C1584  H1586   1.111   .     S
C1584  H1587   1.110   .     S
C1584  H1585   1.108   .     S
C1590  C1591   1.530   .     S
C1590  H1596   1.103   .     S
C1590  H1595   1.107   .     S
C1591  H1593   1.108   .     S
C1591  H1594   1.110   .     S
C1591  H1592   1.111   .     S
C1597  H1603   1.098   .     S
C1597  H1602   1.107   .     S
C1597  C1598   1.531   .     S
C1598  H1601   1.111   .     S
C1598  H1600   1.111   .     S
C1598  H1599   1.105   .     S
C1604  C1605   1.531   .     S
C1604  H1610   1.110   .     S
C1604  H1609   1.108   .     S
C1605  H1608   1.111   .     S
C1605  H1606   1.111   .     S
H1607  C543    1.109   1_556 S
C1611  C1612   1.533   .     S
C1611  H1617   1.103   .     S
C1611  H1616   1.103   .     S
C1612  H1614   1.111   .     S
C1612  H1613   1.110   .     S
C1612  H1615   1.107   .     S
C1618  H1624   1.105   .     S
C1618  C1619   1.534   .     S
C1618  H1623   1.101   .     S
C1619  H1621   1.111   .     S
C1619  H1620   1.110   .     S
C1619  H1622   1.109   .     S
C1625  H1630   1.101   .     S
C1625  C1626   1.531   .     S
C1625  H1631   1.108   .     S
C1626  H1629   1.105   .     S
C1626  H1628   1.109   .     S
C1626  H1627   1.108   .     S
C1632  C1633   1.533   .     S
C1632  H1638   1.101   .     S
C1632  H1637   1.113   .     S
C1633  H1634   1.109   .     S
C1633  H1635   1.111   .     S
C1633  H1636   1.107   .     S
C1639  H1644   1.103   .     S
C1639  H1645   1.098   .     S
C1639  C1640   1.526   .     S
C1640  H1641   1.111   .     S
C1640  H1642   1.103   .     S
C1640  H1643   1.110   .     S
C1646  H1651   1.107   .     S
C1646  C1647   1.531   .     S
C1646  H1652   1.101   .     S
C1647  H1650   1.111   .     S
C1647  H1648   1.108   .     S
C1647  H1649   1.111   .     S
C1653  C1662   1.488   .     S
C1653  O1691   1.300   .     A
C1653  O1694   1.295   .     A
C1654  O1693   1.303   .     A
C1654  O1692   1.292   .     A
C1654  C1661   1.491   .     S
C1655  C1680   1.433   .     A
C1655  C1729   1.531   .     S
C1656  C1736   1.516   .     S
C1656  C1679   1.432   .     A
C1656  C620    1.417   1_556 S
C1657  C1743   1.531   .     S
C1657  C1662   1.426   .     A
C1658  C1661   1.424   .     A
C1658  C1750   1.527   .     S
C1658  C1424   1.399   1_655 S
C1659  C1757   1.540   .     S
C1659  C1661   1.441   .     A
C1659  C1421   1.425   1_655 S
C1660  C1764   1.527   .     S
C1660  C1662   1.411   .     A
C1663  H1685   1.081   .     S
C1663  N1690   1.367   .     A
C1664  N1689   1.367   .     A
C1664  H1686   1.081   .     S
C1664  C2019   1.412   .     S
C1665  H1687   1.079   .     S
C1665  N1690   1.365   .     A
C1666  H1688   1.081   .     S
C1666  N1689   1.366   .     A
C1666  C2017   1.413   .     S
C1667  C1672   1.457   .     S
C1667  O1695   1.287   .     A
C1667  O1698   1.290   .     A
C1668  O1696   1.292   .     A
C1668  O1697   1.286   .     A
C1668  C1671   1.459   .     S
C1669  C1679   1.430   .     A
C1669  Cl1699  1.778   .     S
C1669  C1671   1.411   .     A
C1670  C1680   1.417   .     A
C1670  Cl1700  1.773   .     S
C1670  C1672   1.402   .     A
C1671  C1673   1.402   .     A
C1672  C1674   1.407   .     A
C1673  C1701   1.521   .     S
C1673  C1675   1.402   .     A
C1674  C1708   1.523   .     S
C1674  C1676   1.408   .     A
C1675  C1681   1.411   .     A
C1675  C1677   1.400   .     A
C1676  C1678   1.407   .     A
C1676  C1682   1.412   .     A
C1677  C1679   1.425   .     A
C1677  C616    1.401   1_556 S
C1678  C1680   1.425   .     A
C1681  C1715   1.529   .     S
C1681  C593    1.425   1_556 S
C1682  C1722   1.531   .     S
Cu1683 O1695   1.963   .     S
Cu1683 N1689   2.007   .     S
Cu1683 Cu1684  2.670   .     S
Cu1683 O1693   1.987   .     S
Cu1683 O1691   1.990   .     S
Cu1683 O1697   1.956   .     S
Cu1684 N1690   2.007   .     S
Cu1684 O1692   1.990   .     S
Cu1684 O1696   1.963   .     S
Cu1684 O1698   1.956   .     S
Cu1684 O1694   1.987   .     S
C1701  H1706   1.108   .     S
C1701  H1707   1.108   .     S
C1701  C1702   1.530   .     S
C1702  H1704   1.111   .     S
C1702  H1705   1.110   .     S
C1702  H1703   1.108   .     S
C1708  C1709   1.530   .     S
C1708  H1714   1.103   .     S
C1708  H1713   1.107   .     S
C1709  H1711   1.108   .     S
C1709  H1712   1.110   .     S
C1709  H1710   1.111   .     S
C1715  H1721   1.098   .     S
C1715  H1720   1.107   .     S
C1715  C1716   1.531   .     S
C1716  H1719   1.111   .     S
C1716  H1718   1.111   .     S
C1716  H1717   1.105   .     S
C1722  C1723   1.531   .     S
C1722  H1728   1.110   .     S
C1722  H1727   1.108   .     S
C1723  H1726   1.111   .     S
C1723  H1724   1.111   .     S
H1725  C661    1.109   1_556 S
C1729  C1730   1.533   .     S
C1729  H1735   1.103   .     S
C1729  H1734   1.103   .     S
C1730  H1732   1.111   .     S
C1730  H1731   1.110   .     S
C1730  H1733   1.107   .     S
C1736  H1742   1.105   .     S
C1736  C1737   1.534   .     S
C1736  H1741   1.101   .     S
C1737  H1739   1.111   .     S
C1737  H1738   1.110   .     S
C1737  H1740   1.109   .     S
C1743  H1748   1.101   .     S
C1743  C1744   1.531   .     S
C1743  H1749   1.108   .     S
C1744  H1747   1.105   .     S
C1744  H1746   1.109   .     S
C1744  H1745   1.108   .     S
C1750  C1751   1.533   .     S
C1750  H1756   1.101   .     S
C1750  H1755   1.113   .     S
C1751  H1752   1.109   .     S
C1751  H1753   1.111   .     S
C1751  H1754   1.107   .     S
C1757  H1762   1.103   .     S
C1757  H1763   1.098   .     S
C1757  C1758   1.526   .     S
C1758  H1759   1.111   .     S
C1758  H1760   1.103   .     S
C1758  H1761   1.110   .     S
C1764  H1769   1.107   .     S
C1764  C1765   1.531   .     S
C1764  H1770   1.101   .     S
C1765  H1768   1.111   .     S
C1765  H1766   1.108   .     S
C1765  H1767   1.111   .     S
C1771  C1780   1.488   .     S
C1771  O1809   1.300   .     A
C1771  O1812   1.295   .     A
C1772  O1811   1.303   .     A
C1772  O1810   1.292   .     A
C1772  C1779   1.491   .     S
C1773  C1798   1.433   .     A
C1773  C1847   1.531   .     S
C1774  C1854   1.516   .     S
C1774  C1797   1.432   .     A
C1774  C738    1.417   1_556 S
C1775  C1861   1.531   .     S
C1775  C1780   1.426   .     A
C1775  C2013   1.425   1_455 S
C1776  C1779   1.424   .     A
C1776  C1868   1.527   .     S
C1776  C1896   1.399   .     S
C1777  C1875   1.540   .     S
C1777  C1779   1.441   .     A
C1777  C1893   1.425   .     S
C1778  C1882   1.527   .     S
C1778  C1780   1.411   .     A
C1778  C2012   1.399   1_455 S
C1781  H1803   1.081   .     S
C1781  N1808   1.367   .     A
C1782  N1807   1.367   .     A
C1782  H1804   1.081   .     S
C1782  C1075   1.412   1_565 S
C1783  H1805   1.079   .     S
C1783  N1808   1.365   .     A
C1784  H1806   1.081   .     S
C1784  N1807   1.366   .     A
C1784  C1073   1.413   1_565 S
C1785  C1790   1.457   .     S
C1785  O1813   1.287   .     A
C1785  O1816   1.290   .     A
C1786  O1814   1.292   .     A
C1786  O1815   1.286   .     A
C1786  C1789   1.459   .     S
C1787  C1797   1.430   .     A
C1787  Cl1817  1.778   .     S
C1787  C1789   1.411   .     A
C1788  C1798   1.417   .     A
C1788  Cl1818  1.773   .     S
C1788  C1790   1.402   .     A
C1789  C1791   1.402   .     A
C1790  C1792   1.407   .     A
C1791  C1819   1.521   .     S
C1791  C1793   1.402   .     A
C1792  C1826   1.523   .     S
C1792  C1794   1.408   .     A
C1793  C1799   1.411   .     A
C1793  C1795   1.400   .     A
C1794  C1796   1.407   .     A
C1794  C1800   1.412   .     A
C1795  C1797   1.425   .     A
C1795  C734    1.401   1_556 S
C1796  C1798   1.425   .     A
C1799  C1833   1.529   .     S
C1799  C711    1.425   1_556 S
C1800  C1840   1.531   .     S
Cu1801 O1813   1.963   .     S
Cu1801 N1807   2.007   .     S
Cu1801 Cu1802  2.670   .     S
Cu1801 O1811   1.987   .     S
Cu1801 O1809   1.990   .     S
Cu1801 O1815   1.956   .     S
Cu1802 N1808   2.007   .     S
Cu1802 O1810   1.990   .     S
Cu1802 O1814   1.963   .     S
Cu1802 O1816   1.956   .     S
Cu1802 O1812   1.987   .     S
C1819  H1824   1.108   .     S
C1819  H1825   1.108   .     S
C1819  C1820   1.530   .     S
C1820  H1822   1.111   .     S
C1820  H1823   1.110   .     S
C1820  H1821   1.108   .     S
C1826  C1827   1.530   .     S
C1826  H1832   1.103   .     S
C1826  H1831   1.107   .     S
C1827  H1829   1.108   .     S
C1827  H1830   1.110   .     S
C1827  H1828   1.111   .     S
C1833  H1839   1.098   .     S
C1833  H1838   1.107   .     S
C1833  C1834   1.531   .     S
C1834  H1837   1.111   .     S
C1834  H1836   1.111   .     S
C1834  H1835   1.105   .     S
C1840  C1841   1.531   .     S
C1840  H1846   1.110   .     S
C1840  H1845   1.108   .     S
C1841  H1844   1.111   .     S
C1841  H1842   1.111   .     S
H1843  C779    1.109   1_556 S
C1847  C1848   1.533   .     S
C1847  H1853   1.103   .     S
C1847  H1852   1.103   .     S
C1848  H1850   1.111   .     S
C1848  H1849   1.110   .     S
C1848  H1851   1.107   .     S
C1854  H1860   1.105   .     S
C1854  C1855   1.534   .     S
C1854  H1859   1.101   .     S
C1855  H1857   1.111   .     S
C1855  H1856   1.110   .     S
C1855  H1858   1.109   .     S
C1861  H1866   1.101   .     S
C1861  C1862   1.531   .     S
C1861  H1867   1.108   .     S
C1862  H1865   1.105   .     S
C1862  H1864   1.109   .     S
C1862  H1863   1.108   .     S
C1868  C1869   1.533   .     S
C1868  H1874   1.101   .     S
C1868  H1873   1.113   .     S
C1869  H1870   1.109   .     S
C1869  H1871   1.111   .     S
C1869  H1872   1.107   .     S
C1875  H1880   1.103   .     S
C1875  H1881   1.098   .     S
C1875  C1876   1.526   .     S
C1876  H1877   1.111   .     S
C1876  H1878   1.103   .     S
C1876  H1879   1.110   .     S
C1882  H1887   1.107   .     S
C1882  C1883   1.531   .     S
C1882  H1888   1.101   .     S
C1883  H1886   1.111   .     S
C1883  H1884   1.108   .     S
C1883  H1885   1.111   .     S
C1889  C1898   1.488   .     S
C1889  O1927   1.300   .     A
C1889  O1930   1.295   .     A
C1890  O1929   1.303   .     A
C1890  O1928   1.292   .     A
C1890  C1897   1.491   .     S
C1891  C1916   1.433   .     A
C1891  C1965   1.531   .     S
C1892  C1972   1.516   .     S
C1892  C1915   1.432   .     A
C1892  C856    1.417   1_556 S
C1893  C1979   1.531   .     S
C1893  C1898   1.426   .     A
C1894  C1897   1.424   .     A
C1894  C1986   1.527   .     S
C1894  C2014   1.399   .     S
C1895  C1993   1.540   .     S
C1895  C1897   1.441   .     A
C1895  C2011   1.425   .     S
C1896  C2000   1.527   .     S
C1896  C1898   1.411   .     A
C1899  H1921   1.081   .     S
C1899  N1926   1.367   .     A
C1900  N1925   1.367   .     A
C1900  H1922   1.081   .     S
C1900  C1193   1.412   1_565 S
C1901  H1923   1.079   .     S
C1901  N1926   1.365   .     A
C1902  H1924   1.081   .     S
C1902  N1925   1.366   .     A
C1902  C1191   1.413   1_565 S
C1903  C1908   1.457   .     S
C1903  O1931   1.287   .     A
C1903  O1934   1.290   .     A
C1904  O1932   1.292   .     A
C1904  O1933   1.286   .     A
C1904  C1907   1.459   .     S
C1905  C1915   1.430   .     A
C1905  Cl1935  1.778   .     S
C1905  C1907   1.411   .     A
C1906  C1916   1.417   .     A
C1906  Cl1936  1.773   .     S
C1906  C1908   1.402   .     A
C1907  C1909   1.402   .     A
C1908  C1910   1.407   .     A
C1909  C1937   1.521   .     S
C1909  C1911   1.402   .     A
C1910  C1944   1.523   .     S
C1910  C1912   1.408   .     A
C1911  C1917   1.411   .     A
C1911  C1913   1.400   .     A
C1912  C1914   1.407   .     A
C1912  C1918   1.412   .     A
C1913  C1915   1.425   .     A
C1913  C852    1.401   1_556 S
C1914  C1916   1.425   .     A
C1917  C1951   1.529   .     S
C1917  C829    1.425   1_556 S
C1918  C1958   1.531   .     S
Cu1919 O1931   1.963   .     S
Cu1919 N1925   2.007   .     S
Cu1919 Cu1920  2.670   .     S
Cu1919 O1929   1.987   .     S
Cu1919 O1927   1.990   .     S
Cu1919 O1933   1.956   .     S
Cu1920 N1926   2.007   .     S
Cu1920 O1928   1.990   .     S
Cu1920 O1932   1.963   .     S
Cu1920 O1934   1.956   .     S
Cu1920 O1930   1.987   .     S
C1937  H1942   1.108   .     S
C1937  H1943   1.108   .     S
C1937  C1938   1.530   .     S
C1938  H1940   1.111   .     S
C1938  H1941   1.110   .     S
C1938  H1939   1.108   .     S
C1944  C1945   1.530   .     S
C1944  H1950   1.103   .     S
C1944  H1949   1.107   .     S
C1945  H1947   1.108   .     S
C1945  H1948   1.110   .     S
C1945  H1946   1.111   .     S
C1951  H1957   1.098   .     S
C1951  H1956   1.107   .     S
C1951  C1952   1.531   .     S
C1952  H1955   1.111   .     S
C1952  H1954   1.111   .     S
C1952  H1953   1.105   .     S
C1958  C1959   1.531   .     S
C1958  H1964   1.110   .     S
C1958  H1963   1.108   .     S
C1959  H1962   1.111   .     S
C1959  H1960   1.111   .     S
H1961  C897    1.109   1_556 S
C1965  C1966   1.533   .     S
C1965  H1971   1.103   .     S
C1965  H1970   1.103   .     S
C1966  H1968   1.111   .     S
C1966  H1967   1.110   .     S
C1966  H1969   1.107   .     S
C1972  H1978   1.105   .     S
C1972  C1973   1.534   .     S
C1972  H1977   1.101   .     S
C1973  H1975   1.111   .     S
C1973  H1974   1.110   .     S
C1973  H1976   1.109   .     S
C1979  H1984   1.101   .     S
C1979  C1980   1.531   .     S
C1979  H1985   1.108   .     S
C1980  H1983   1.105   .     S
C1980  H1982   1.109   .     S
C1980  H1981   1.108   .     S
C1986  C1987   1.533   .     S
C1986  H1992   1.101   .     S
C1986  H1991   1.113   .     S
C1987  H1988   1.109   .     S
C1987  H1989   1.111   .     S
C1987  H1990   1.107   .     S
C1993  H1998   1.103   .     S
C1993  H1999   1.098   .     S
C1993  C1994   1.526   .     S
C1994  H1995   1.111   .     S
C1994  H1996   1.103   .     S
C1994  H1997   1.110   .     S
C2000  H2005   1.107   .     S
C2000  C2001   1.531   .     S
C2000  H2006   1.101   .     S
C2001  H2004   1.111   .     S
C2001  H2002   1.108   .     S
C2001  H2003   1.111   .     S
C2007  C2016   1.488   .     S
C2007  O2045   1.300   .     A
C2007  O2048   1.295   .     A
C2008  O2047   1.303   .     A
C2008  O2046   1.292   .     A
C2008  C2015   1.491   .     S
C2009  C2034   1.433   .     A
C2009  C2083   1.531   .     S
C2010  C2090   1.516   .     S
C2010  C2033   1.432   .     A
C2010  C974    1.417   1_556 S
C2011  C2097   1.531   .     S
C2011  C2016   1.426   .     A
C2012  C2015   1.424   .     A
C2012  C2104   1.527   .     S
C2012  C1778   1.399   1_655 S
C2013  C2111   1.540   .     S
C2013  C2015   1.441   .     A
C2013  C1775   1.425   1_655 S
C2014  C2118   1.527   .     S
C2014  C2016   1.411   .     A
C2017  H2039   1.081   .     S
C2017  N2044   1.367   .     A
C2018  N2043   1.367   .     A
C2018  H2040   1.081   .     S
C2018  C1311   1.412   1_565 S
C2019  H2041   1.079   .     S
C2019  N2044   1.365   .     A
C2020  H2042   1.081   .     S
C2020  N2043   1.366   .     A
C2020  C1309   1.413   1_565 S
C2021  C2026   1.457   .     S
C2021  O2049   1.287   .     A
C2021  O2052   1.290   .     A
C2022  O2050   1.292   .     A
C2022  O2051   1.286   .     A
C2022  C2025   1.459   .     S
C2023  C2033   1.430   .     A
C2023  Cl2053  1.778   .     S
C2023  C2025   1.411   .     A
C2024  C2034   1.417   .     A
C2024  Cl2054  1.773   .     S
C2024  C2026   1.402   .     A
C2025  C2027   1.402   .     A
C2026  C2028   1.407   .     A
C2027  C2055   1.521   .     S
C2027  C2029   1.402   .     A
C2028  C2062   1.523   .     S
C2028  C2030   1.408   .     A
C2029  C2035   1.411   .     A
C2029  C2031   1.400   .     A
C2030  C2032   1.407   .     A
C2030  C2036   1.412   .     A
C2031  C2033   1.425   .     A
C2031  C970    1.401   1_556 S
C2032  C2034   1.425   .     A
C2035  C2069   1.529   .     S
C2035  C947    1.425   1_556 S
C2036  C2076   1.531   .     S
Cu2037 O2049   1.963   .     S
Cu2037 N2043   2.007   .     S
Cu2037 Cu2038  2.670   .     S
Cu2037 O2047   1.987   .     S
Cu2037 O2045   1.990   .     S
Cu2037 O2051   1.956   .     S
Cu2038 N2044   2.007   .     S
Cu2038 O2046   1.990   .     S
Cu2038 O2050   1.963   .     S
Cu2038 O2052   1.956   .     S
Cu2038 O2048   1.987   .     S
C2055  H2060   1.108   .     S
C2055  H2061   1.108   .     S
C2055  C2056   1.530   .     S
C2056  H2058   1.111   .     S
C2056  H2059   1.110   .     S
C2056  H2057   1.108   .     S
C2062  C2063   1.530   .     S
C2062  H2068   1.103   .     S
C2062  H2067   1.107   .     S
C2063  H2065   1.108   .     S
C2063  H2066   1.110   .     S
C2063  H2064   1.111   .     S
C2069  H2075   1.098   .     S
C2069  H2074   1.107   .     S
C2069  C2070   1.531   .     S
C2070  H2073   1.111   .     S
C2070  H2072   1.111   .     S
C2070  H2071   1.105   .     S
C2076  C2077   1.531   .     S
C2076  H2082   1.110   .     S
C2076  H2081   1.108   .     S
C2077  H2080   1.111   .     S
C2077  H2078   1.111   .     S
H2079  C1015   1.109   1_556 S
C2083  C2084   1.533   .     S
C2083  H2089   1.103   .     S
C2083  H2088   1.103   .     S
C2084  H2086   1.111   .     S
C2084  H2085   1.110   .     S
C2084  H2087   1.107   .     S
C2090  H2096   1.105   .     S
C2090  C2091   1.534   .     S
C2090  H2095   1.101   .     S
C2091  H2093   1.111   .     S
C2091  H2092   1.110   .     S
C2091  H2094   1.109   .     S
C2097  H2102   1.101   .     S
C2097  C2098   1.531   .     S
C2097  H2103   1.108   .     S
C2098  H2101   1.105   .     S
C2098  H2100   1.109   .     S
C2098  H2099   1.108   .     S
C2104  C2105   1.533   .     S
C2104  H2110   1.101   .     S
C2104  H2109   1.113   .     S
C2105  H2106   1.109   .     S
C2105  H2107   1.111   .     S
C2105  H2108   1.107   .     S
C2111  H2116   1.103   .     S
C2111  H2117   1.098   .     S
C2111  C2112   1.526   .     S
C2112  H2113   1.111   .     S
C2112  H2114   1.103   .     S
C2112  H2115   1.110   .     S
C2118  H2123   1.107   .     S
C2118  C2119   1.531   .     S
C2118  H2124   1.101   .     S
C2119  H2122   1.111   .     S
C2119  H2120   1.108   .     S
C2119  H2121   1.111   .     S
