data_str_m2_o1_o18_pcu_sym.213
_audit_creation_date              2020-01-03
_audit_creation_method            'Materials Studio'
_symmetry_space_group_name_H-M    'P1'
_symmetry_Int_Tables_number       1
_symmetry_cell_setting            triclinic
loop_
_symmetry_equiv_pos_as_xyz
  x,y,z
_cell_length_a                    28.8002
_cell_length_b                    32.3212
_cell_length_c                    30.9458
_cell_angle_alpha                 87.5453
_cell_angle_beta                  74.1415
_cell_angle_gamma                 88.8423
loop_
_atom_site_label
_atom_site_type_symbol
_atom_site_fract_x
_atom_site_fract_y
_atom_site_fract_z
_atom_site_U_iso_or_equiv
_atom_site_adp_type
_atom_site_occupancy
O1     O     0.03958   0.10655   0.25000   0.00000  Uiso   1.00
O2     O     0.29375   0.22678   0.25000   0.00000  Uiso   1.00
O3     O     0.29372   0.10654   0.25001   0.00000  Uiso   1.00
O4     O     0.03961   0.22679   0.24999   0.00000  Uiso   1.00
C5     C     0.33330   0.08747   0.25131   0.00000  Uiso   1.00
C6     C     0.00006   0.24586   0.24859   0.00000  Uiso   1.00
O7     O     0.01852   0.16668   0.31491   0.00000  Uiso   1.00
O8     O     0.31481   0.16666   0.18509   0.00000  Uiso   1.00
O9     O     0.27267   0.16667   0.31492   0.00000  Uiso   1.00
O10    O     0.06067   0.16667   0.18508   0.00000  Uiso   1.00
C11    C     0.30598   0.16797   0.33599   0.00000  Uiso   1.00
C12    C     0.02736   0.16715   0.16393   0.00000  Uiso   1.00
Cu13   Cu    0.04689   0.16667   0.25000   0.00000  Uiso   1.00
Cu14   Cu    0.28645   0.16666   0.25000   0.00000  Uiso   1.00
C15    C     0.29048   0.17473   0.38456   0.00000  Uiso   1.00
C16    C     0.04276   0.16878   0.11458   0.00000  Uiso   1.00
C17    C     0.30508   0.20045   0.45199   0.00000  Uiso   1.00
C18    C     0.02603   0.16174   0.04292   0.00000  Uiso   1.00
C19    C     0.32216   0.19024   0.40701   0.00000  Uiso   1.00
C20    C     0.01007   0.16183   0.08959   0.00000  Uiso   1.00
C21    C     0.24171   0.16984   0.40749   0.00000  Uiso   1.00
C22    C     0.09127   0.17689   0.09238   0.00000  Uiso   1.00
C23    C     0.22323   0.18194   0.45210   0.00000  Uiso   1.00
C24    C     0.10811   0.17789   0.04522   0.00000  Uiso   1.00
C25    C     0.25609   0.19569   0.47493   0.00000  Uiso   1.00
C26    C     0.07464   0.16939   0.02062   0.00000  Uiso   1.00
C27    C     0.17317   0.17995   0.47476   0.00000  Uiso   1.00
C28    C     0.15746   0.18541   0.02189   0.00000  Uiso   1.00
C29    C     0.19150   0.19875   0.04371   0.00000  Uiso   1.00
C30    C     0.13825   0.17387   0.45142   0.00000  Uiso   1.00
C31    C     0.23968   0.20460   0.02029   0.00000  Uiso   1.00
C32    C     0.08998   0.16850   0.47398   0.00000  Uiso   1.00
H33    H     0.26444   0.21545   0.03808   0.00000  Uiso   1.00
H34    H     0.06467   0.16284   0.45472   0.00000  Uiso   1.00
H35    H     0.11559   0.18116   0.11272   0.00000  Uiso   1.00
H36    H     0.21883   0.15586   0.38993   0.00000  Uiso   1.00
H37    H     0.30579   0.15555   0.10610   0.00000  Uiso   1.00
H38    H     0.02648   0.19526   0.38962   0.00000  Uiso   1.00
H39    H     0.33004   0.21264   0.46873   0.00000  Uiso   1.00
H40    H     0.00044   0.15502   0.02428   0.00000  Uiso   1.00
H41    H     0.18175   0.20639   0.07862   0.00000  Uiso   1.00
H42    H     0.14725   0.17438   0.41532   0.00000  Uiso   1.00
C43    C     0.29500   0.01998   0.28067   0.00000  Uiso   1.00
C44    C     0.03808   0.31337   0.21843   0.00000  Uiso   1.00
C45    C     0.29515   0.31054   0.27746   0.00000  Uiso   1.00
C46    C     0.03830   0.02280   0.22220   0.00000  Uiso   1.00
H47    H     0.26650   0.29251   0.29995   0.00000  Uiso   1.00
H48    H     0.06692   0.04095   0.19984   0.00000  Uiso   1.00
C49    C     0.33311   0.29058   0.24721   0.00000  Uiso   1.00
C50    C     0.00031   0.04274   0.25248   0.00000  Uiso   1.00
C51    C     0.18474   0.13981   0.27730   0.00000  Uiso   1.00
C52    C     0.14869   0.19318   0.22232   0.00000  Uiso   1.00
H53    H     0.19847   0.11813   0.29841   0.00000  Uiso   1.00
H54    H     0.13533   0.21423   0.20021   0.00000  Uiso   1.00
C55    C     0.13505   0.14013   0.27869   0.00000  Uiso   1.00
C56    C     0.19783   0.19427   0.22265   0.00000  Uiso   1.00
N57    N     0.11736   0.16668   0.24999   0.00000  Uiso   1.00
N58    N     0.21597   0.16666   0.25001   0.00000  Uiso   1.00
N59    N     0.25667   0.03942   0.31372   0.00000  Uiso   1.00
O60    O     0.21344   0.02399   0.32455   0.00000  Uiso   1.00
O61    O     0.26608   0.06886   0.33739   0.00000  Uiso   1.00
N62    N     0.07522   0.29413   0.18394   0.00000  Uiso   1.00
O63    O     0.11726   0.31145   0.16881   0.00000  Uiso   1.00
O64    O     0.06491   0.26340   0.16245   0.00000  Uiso   1.00
C65    C     0.10403   0.10951   0.31245   0.00000  Uiso   1.00
C66    C     0.09932   0.11989   0.36168   0.00000  Uiso   1.00
C67    C     0.12793   0.08999   0.38452   0.00000  Uiso   1.00
H68    H     0.11915   0.05739   0.38021   0.00000  Uiso   1.00
H69    H     0.16724   0.09485   0.37068   0.00000  Uiso   1.00
H70    H     0.11829   0.09529   0.42108   0.00000  Uiso   1.00
H71    H     0.11044   0.15226   0.36377   0.00000  Uiso   1.00
H72    H     0.06072   0.11775   0.38122   0.00000  Uiso   1.00
H73    H     0.06740   0.10792   0.30963   0.00000  Uiso   1.00
H74    H     0.11921   0.07785   0.30512   0.00000  Uiso   1.00
C75    C     0.22755   0.22760   0.19222   0.00000  Uiso   1.00
C76    C     0.21371   0.27065   0.21124   0.00000  Uiso   1.00
C77    C     0.24351   0.30453   0.18078   0.00000  Uiso   1.00
H78    H     0.28267   0.29885   0.17640   0.00000  Uiso   1.00
H79    H     0.23615   0.30545   0.14732   0.00000  Uiso   1.00
H80    H     0.23370   0.00171   0.19611   0.00000  Uiso   1.00
H81    H     0.17489   0.27717   0.21472   0.00000  Uiso   1.00
H82    H     0.21945   0.27172   0.24522   0.00000  Uiso   1.00
H83    H     0.26639   0.22294   0.18620   0.00000  Uiso   1.00
H84    H     0.22095   0.22669   0.15848   0.00000  Uiso   1.00
O85    O     0.37291   0.10655   0.25000   0.00000  Uiso   1.00
O86    O     0.62709   0.22678   0.25000   0.00000  Uiso   1.00
O87    O     0.62706   0.10654   0.25001   0.00000  Uiso   1.00
O88    O     0.37294   0.22679   0.24999   0.00000  Uiso   1.00
C89    C     0.66663   0.08747   0.25131   0.00000  Uiso   1.00
C90    C     0.33340   0.24586   0.24859   0.00000  Uiso   1.00
O91    O     0.35186   0.16668   0.31491   0.00000  Uiso   1.00
O92    O     0.64814   0.16666   0.18509   0.00000  Uiso   1.00
O93    O     0.60600   0.16667   0.31492   0.00000  Uiso   1.00
O94    O     0.39400   0.16667   0.18508   0.00000  Uiso   1.00
C95    C     0.63932   0.16797   0.33599   0.00000  Uiso   1.00
C96    C     0.36070   0.16715   0.16393   0.00000  Uiso   1.00
Cu97   Cu    0.38022   0.16667   0.25000   0.00000  Uiso   1.00
Cu98   Cu    0.61978   0.16666   0.25000   0.00000  Uiso   1.00
C99    C     0.62381   0.17473   0.38456   0.00000  Uiso   1.00
C100   C     0.37609   0.16878   0.11458   0.00000  Uiso   1.00
C101   C     0.63842   0.20045   0.45199   0.00000  Uiso   1.00
C102   C     0.35936   0.16174   0.04292   0.00000  Uiso   1.00
C103   C     0.65549   0.19024   0.40701   0.00000  Uiso   1.00
C104   C     0.34340   0.16183   0.08959   0.00000  Uiso   1.00
C105   C     0.57504   0.16984   0.40749   0.00000  Uiso   1.00
C106   C     0.42460   0.17689   0.09238   0.00000  Uiso   1.00
C107   C     0.55656   0.18194   0.45210   0.00000  Uiso   1.00
C108   C     0.44145   0.17789   0.04522   0.00000  Uiso   1.00
C109   C     0.58943   0.19569   0.47493   0.00000  Uiso   1.00
C110   C     0.40797   0.16939   0.02062   0.00000  Uiso   1.00
C111   C     0.50650   0.17995   0.47476   0.00000  Uiso   1.00
C112   C     0.49080   0.18541   0.02189   0.00000  Uiso   1.00
C113   C     0.52483   0.19875   0.04371   0.00000  Uiso   1.00
C114   C     0.47159   0.17387   0.45142   0.00000  Uiso   1.00
C115   C     0.57301   0.20460   0.02029   0.00000  Uiso   1.00
C116   C     0.42331   0.16850   0.47398   0.00000  Uiso   1.00
H117   H     0.59778   0.21545   0.03808   0.00000  Uiso   1.00
H118   H     0.39801   0.16284   0.45472   0.00000  Uiso   1.00
H119   H     0.44892   0.18116   0.11272   0.00000  Uiso   1.00
H120   H     0.55216   0.15586   0.38993   0.00000  Uiso   1.00
H121   H     0.63912   0.15555   0.10610   0.00000  Uiso   1.00
H122   H     0.35981   0.19526   0.38962   0.00000  Uiso   1.00
H123   H     0.66338   0.21264   0.46873   0.00000  Uiso   1.00
H124   H     0.33377   0.15502   0.02428   0.00000  Uiso   1.00
H125   H     0.51509   0.20639   0.07862   0.00000  Uiso   1.00
H126   H     0.48058   0.17438   0.41532   0.00000  Uiso   1.00
C127   C     0.62833   0.01998   0.28067   0.00000  Uiso   1.00
C128   C     0.37142   0.31337   0.21843   0.00000  Uiso   1.00
C129   C     0.62848   0.31054   0.27746   0.00000  Uiso   1.00
C130   C     0.37163   0.02280   0.22220   0.00000  Uiso   1.00
H131   H     0.59983   0.29251   0.29995   0.00000  Uiso   1.00
H132   H     0.40025   0.04095   0.19984   0.00000  Uiso   1.00
C133   C     0.66644   0.29058   0.24721   0.00000  Uiso   1.00
C134   C     0.33365   0.04274   0.25248   0.00000  Uiso   1.00
C135   C     0.51807   0.13981   0.27730   0.00000  Uiso   1.00
C136   C     0.48202   0.19318   0.22232   0.00000  Uiso   1.00
H137   H     0.53180   0.11813   0.29841   0.00000  Uiso   1.00
H138   H     0.46866   0.21423   0.20021   0.00000  Uiso   1.00
C139   C     0.46838   0.14013   0.27869   0.00000  Uiso   1.00
C140   C     0.53117   0.19427   0.22265   0.00000  Uiso   1.00
N141   N     0.45069   0.16668   0.24999   0.00000  Uiso   1.00
N142   N     0.54931   0.16666   0.25001   0.00000  Uiso   1.00
N143   N     0.59001   0.03942   0.31372   0.00000  Uiso   1.00
O144   O     0.54677   0.02399   0.32455   0.00000  Uiso   1.00
O145   O     0.59941   0.06886   0.33739   0.00000  Uiso   1.00
N146   N     0.40856   0.29413   0.18394   0.00000  Uiso   1.00
O147   O     0.45060   0.31145   0.16881   0.00000  Uiso   1.00
O148   O     0.39824   0.26340   0.16245   0.00000  Uiso   1.00
C149   C     0.43737   0.10951   0.31245   0.00000  Uiso   1.00
C150   C     0.43265   0.11989   0.36168   0.00000  Uiso   1.00
C151   C     0.46127   0.08999   0.38452   0.00000  Uiso   1.00
H152   H     0.45249   0.05739   0.38021   0.00000  Uiso   1.00
H153   H     0.50058   0.09485   0.37068   0.00000  Uiso   1.00
H154   H     0.45163   0.09529   0.42108   0.00000  Uiso   1.00
H155   H     0.44377   0.15226   0.36377   0.00000  Uiso   1.00
H156   H     0.39405   0.11775   0.38122   0.00000  Uiso   1.00
H157   H     0.40073   0.10792   0.30963   0.00000  Uiso   1.00
H158   H     0.45255   0.07785   0.30512   0.00000  Uiso   1.00
C159   C     0.56088   0.22760   0.19222   0.00000  Uiso   1.00
C160   C     0.54705   0.27065   0.21124   0.00000  Uiso   1.00
C161   C     0.57684   0.30453   0.18078   0.00000  Uiso   1.00
H162   H     0.61600   0.29885   0.17640   0.00000  Uiso   1.00
H163   H     0.56948   0.30545   0.14732   0.00000  Uiso   1.00
H164   H     0.56703   0.00171   0.19611   0.00000  Uiso   1.00
H165   H     0.50822   0.27717   0.21472   0.00000  Uiso   1.00
H166   H     0.55279   0.27172   0.24522   0.00000  Uiso   1.00
H167   H     0.59972   0.22294   0.18620   0.00000  Uiso   1.00
H168   H     0.55428   0.22669   0.15848   0.00000  Uiso   1.00
O169   O     0.70625   0.10655   0.25000   0.00000  Uiso   1.00
O170   O     0.96042   0.22678   0.25000   0.00000  Uiso   1.00
O171   O     0.96039   0.10654   0.25001   0.00000  Uiso   1.00
O172   O     0.70628   0.22679   0.24999   0.00000  Uiso   1.00
C173   C     0.99997   0.08747   0.25131   0.00000  Uiso   1.00
C174   C     0.66673   0.24586   0.24859   0.00000  Uiso   1.00
O175   O     0.68519   0.16668   0.31491   0.00000  Uiso   1.00
O176   O     0.98148   0.16666   0.18509   0.00000  Uiso   1.00
O177   O     0.93933   0.16667   0.31492   0.00000  Uiso   1.00
O178   O     0.72733   0.16667   0.18508   0.00000  Uiso   1.00
C179   C     0.97265   0.16797   0.33599   0.00000  Uiso   1.00
C180   C     0.69403   0.16715   0.16393   0.00000  Uiso   1.00
Cu181  Cu    0.71355   0.16667   0.25000   0.00000  Uiso   1.00
Cu182  Cu    0.95311   0.16666   0.25000   0.00000  Uiso   1.00
C183   C     0.95715   0.17473   0.38456   0.00000  Uiso   1.00
C184   C     0.70943   0.16878   0.11458   0.00000  Uiso   1.00
C185   C     0.97175   0.20045   0.45199   0.00000  Uiso   1.00
C186   C     0.69270   0.16174   0.04292   0.00000  Uiso   1.00
C187   C     0.98883   0.19024   0.40701   0.00000  Uiso   1.00
C188   C     0.67673   0.16183   0.08959   0.00000  Uiso   1.00
C189   C     0.90837   0.16984   0.40749   0.00000  Uiso   1.00
C190   C     0.75794   0.17689   0.09238   0.00000  Uiso   1.00
C191   C     0.88990   0.18194   0.45210   0.00000  Uiso   1.00
C192   C     0.77478   0.17789   0.04522   0.00000  Uiso   1.00
C193   C     0.92276   0.19569   0.47493   0.00000  Uiso   1.00
C194   C     0.74131   0.16939   0.02062   0.00000  Uiso   1.00
C195   C     0.83983   0.17995   0.47476   0.00000  Uiso   1.00
C196   C     0.82413   0.18541   0.02189   0.00000  Uiso   1.00
C197   C     0.85816   0.19875   0.04371   0.00000  Uiso   1.00
C198   C     0.80492   0.17387   0.45142   0.00000  Uiso   1.00
C199   C     0.90635   0.20460   0.02029   0.00000  Uiso   1.00
C200   C     0.75665   0.16850   0.47398   0.00000  Uiso   1.00
H201   H     0.93111   0.21545   0.03808   0.00000  Uiso   1.00
H202   H     0.73134   0.16284   0.45472   0.00000  Uiso   1.00
H203   H     0.78225   0.18116   0.11272   0.00000  Uiso   1.00
H204   H     0.88550   0.15586   0.38993   0.00000  Uiso   1.00
H205   H     0.97245   0.15555   0.10610   0.00000  Uiso   1.00
H206   H     0.69315   0.19526   0.38962   0.00000  Uiso   1.00
H207   H     0.99671   0.21264   0.46873   0.00000  Uiso   1.00
H208   H     0.66711   0.15502   0.02428   0.00000  Uiso   1.00
H209   H     0.84842   0.20639   0.07862   0.00000  Uiso   1.00
H210   H     0.81392   0.17438   0.41532   0.00000  Uiso   1.00
C211   C     0.96166   0.01998   0.28067   0.00000  Uiso   1.00
C212   C     0.70475   0.31337   0.21843   0.00000  Uiso   1.00
C213   C     0.96182   0.31054   0.27746   0.00000  Uiso   1.00
C214   C     0.70496   0.02280   0.22220   0.00000  Uiso   1.00
H215   H     0.93316   0.29251   0.29995   0.00000  Uiso   1.00
H216   H     0.73359   0.04095   0.19984   0.00000  Uiso   1.00
C217   C     0.99977   0.29058   0.24721   0.00000  Uiso   1.00
C218   C     0.66698   0.04274   0.25248   0.00000  Uiso   1.00
C219   C     0.85141   0.13981   0.27730   0.00000  Uiso   1.00
C220   C     0.81535   0.19318   0.22232   0.00000  Uiso   1.00
H221   H     0.86514   0.11813   0.29841   0.00000  Uiso   1.00
H222   H     0.80199   0.21423   0.20021   0.00000  Uiso   1.00
C223   C     0.80172   0.14013   0.27869   0.00000  Uiso   1.00
C224   C     0.86450   0.19427   0.22265   0.00000  Uiso   1.00
N225   N     0.78403   0.16668   0.24999   0.00000  Uiso   1.00
N226   N     0.88264   0.16666   0.25001   0.00000  Uiso   1.00
N227   N     0.92334   0.03942   0.31372   0.00000  Uiso   1.00
O228   O     0.88011   0.02399   0.32455   0.00000  Uiso   1.00
O229   O     0.93275   0.06886   0.33739   0.00000  Uiso   1.00
N230   N     0.74189   0.29413   0.18394   0.00000  Uiso   1.00
O231   O     0.78393   0.31145   0.16881   0.00000  Uiso   1.00
O232   O     0.73157   0.26340   0.16245   0.00000  Uiso   1.00
C233   C     0.77070   0.10951   0.31245   0.00000  Uiso   1.00
C234   C     0.76598   0.11989   0.36168   0.00000  Uiso   1.00
C235   C     0.79460   0.08999   0.38452   0.00000  Uiso   1.00
H236   H     0.78582   0.05739   0.38021   0.00000  Uiso   1.00
H237   H     0.83391   0.09485   0.37068   0.00000  Uiso   1.00
H238   H     0.78496   0.09529   0.42108   0.00000  Uiso   1.00
H239   H     0.77710   0.15226   0.36377   0.00000  Uiso   1.00
H240   H     0.72739   0.11775   0.38122   0.00000  Uiso   1.00
H241   H     0.73407   0.10792   0.30963   0.00000  Uiso   1.00
H242   H     0.78588   0.07785   0.30512   0.00000  Uiso   1.00
C243   C     0.89421   0.22760   0.19222   0.00000  Uiso   1.00
C244   C     0.88038   0.27065   0.21124   0.00000  Uiso   1.00
C245   C     0.91018   0.30453   0.18078   0.00000  Uiso   1.00
H246   H     0.94933   0.29885   0.17640   0.00000  Uiso   1.00
H247   H     0.90282   0.30545   0.14732   0.00000  Uiso   1.00
H248   H     0.90036   0.00171   0.19611   0.00000  Uiso   1.00
H249   H     0.84155   0.27717   0.21472   0.00000  Uiso   1.00
H250   H     0.88612   0.27172   0.24522   0.00000  Uiso   1.00
H251   H     0.93306   0.22294   0.18620   0.00000  Uiso   1.00
H252   H     0.88762   0.22669   0.15848   0.00000  Uiso   1.00
O253   O     0.03958   0.43989   0.25000   0.00000  Uiso   1.00
O254   O     0.29375   0.56011   0.25000   0.00000  Uiso   1.00
O255   O     0.29372   0.43988   0.25001   0.00000  Uiso   1.00
O256   O     0.03961   0.56012   0.24999   0.00000  Uiso   1.00
C257   C     0.33330   0.42081   0.25131   0.00000  Uiso   1.00
C258   C     0.00006   0.57919   0.24859   0.00000  Uiso   1.00
O259   O     0.01852   0.50001   0.31491   0.00000  Uiso   1.00
O260   O     0.31481   0.49999   0.18509   0.00000  Uiso   1.00
O261   O     0.27267   0.50000   0.31492   0.00000  Uiso   1.00
O262   O     0.06067   0.50000   0.18508   0.00000  Uiso   1.00
C263   C     0.30598   0.50130   0.33599   0.00000  Uiso   1.00
C264   C     0.02736   0.50048   0.16393   0.00000  Uiso   1.00
Cu265  Cu    0.04689   0.50001   0.25000   0.00000  Uiso   1.00
Cu266  Cu    0.28645   0.49999   0.25000   0.00000  Uiso   1.00
C267   C     0.29048   0.50806   0.38456   0.00000  Uiso   1.00
C268   C     0.04276   0.50211   0.11458   0.00000  Uiso   1.00
C269   C     0.30508   0.53378   0.45199   0.00000  Uiso   1.00
C270   C     0.02603   0.49507   0.04292   0.00000  Uiso   1.00
C271   C     0.32216   0.52358   0.40701   0.00000  Uiso   1.00
C272   C     0.01007   0.49516   0.08959   0.00000  Uiso   1.00
C273   C     0.24171   0.50317   0.40749   0.00000  Uiso   1.00
C274   C     0.09127   0.51022   0.09238   0.00000  Uiso   1.00
C275   C     0.22323   0.51527   0.45210   0.00000  Uiso   1.00
C276   C     0.10811   0.51122   0.04522   0.00000  Uiso   1.00
C277   C     0.25609   0.52902   0.47493   0.00000  Uiso   1.00
C278   C     0.07464   0.50273   0.02062   0.00000  Uiso   1.00
C279   C     0.17317   0.51328   0.47476   0.00000  Uiso   1.00
C280   C     0.15746   0.51874   0.02189   0.00000  Uiso   1.00
C281   C     0.19150   0.53208   0.04371   0.00000  Uiso   1.00
C282   C     0.13825   0.50720   0.45142   0.00000  Uiso   1.00
C283   C     0.23968   0.53794   0.02029   0.00000  Uiso   1.00
C284   C     0.08998   0.50183   0.47398   0.00000  Uiso   1.00
H285   H     0.26444   0.54878   0.03808   0.00000  Uiso   1.00
H286   H     0.06467   0.49618   0.45472   0.00000  Uiso   1.00
H287   H     0.11559   0.51449   0.11272   0.00000  Uiso   1.00
H288   H     0.21883   0.48920   0.38993   0.00000  Uiso   1.00
H289   H     0.30579   0.48889   0.10610   0.00000  Uiso   1.00
H290   H     0.02648   0.52860   0.38962   0.00000  Uiso   1.00
H291   H     0.33004   0.54597   0.46873   0.00000  Uiso   1.00
H292   H     0.00044   0.48835   0.02428   0.00000  Uiso   1.00
H293   H     0.18175   0.53972   0.07862   0.00000  Uiso   1.00
H294   H     0.14725   0.50771   0.41532   0.00000  Uiso   1.00
C295   C     0.29500   0.35331   0.28067   0.00000  Uiso   1.00
C296   C     0.03808   0.64671   0.21843   0.00000  Uiso   1.00
C297   C     0.29515   0.64388   0.27746   0.00000  Uiso   1.00
C298   C     0.03830   0.35613   0.22220   0.00000  Uiso   1.00
H299   H     0.26650   0.62584   0.29995   0.00000  Uiso   1.00
H300   H     0.06692   0.37428   0.19984   0.00000  Uiso   1.00
C301   C     0.33311   0.62391   0.24721   0.00000  Uiso   1.00
C302   C     0.00031   0.37607   0.25248   0.00000  Uiso   1.00
C303   C     0.18474   0.47314   0.27730   0.00000  Uiso   1.00
C304   C     0.14869   0.52651   0.22232   0.00000  Uiso   1.00
H305   H     0.19847   0.45146   0.29841   0.00000  Uiso   1.00
H306   H     0.13533   0.54757   0.20021   0.00000  Uiso   1.00
C307   C     0.13505   0.47346   0.27869   0.00000  Uiso   1.00
C308   C     0.19783   0.52760   0.22265   0.00000  Uiso   1.00
N309   N     0.11736   0.50001   0.24999   0.00000  Uiso   1.00
N310   N     0.21597   0.49999   0.25001   0.00000  Uiso   1.00
N311   N     0.25667   0.37276   0.31372   0.00000  Uiso   1.00
O312   O     0.21344   0.35733   0.32455   0.00000  Uiso   1.00
O313   O     0.26608   0.40219   0.33739   0.00000  Uiso   1.00
N314   N     0.07522   0.62746   0.18394   0.00000  Uiso   1.00
O315   O     0.11726   0.64478   0.16881   0.00000  Uiso   1.00
O316   O     0.06491   0.59674   0.16245   0.00000  Uiso   1.00
C317   C     0.10403   0.44285   0.31245   0.00000  Uiso   1.00
C318   C     0.09932   0.45323   0.36168   0.00000  Uiso   1.00
C319   C     0.12793   0.42333   0.38452   0.00000  Uiso   1.00
H320   H     0.11915   0.39072   0.38021   0.00000  Uiso   1.00
H321   H     0.16724   0.42818   0.37068   0.00000  Uiso   1.00
H322   H     0.11829   0.42862   0.42108   0.00000  Uiso   1.00
H323   H     0.11044   0.48559   0.36377   0.00000  Uiso   1.00
H324   H     0.06072   0.45108   0.38122   0.00000  Uiso   1.00
H325   H     0.06740   0.44125   0.30963   0.00000  Uiso   1.00
H326   H     0.11921   0.41118   0.30512   0.00000  Uiso   1.00
C327   C     0.22755   0.56093   0.19222   0.00000  Uiso   1.00
C328   C     0.21371   0.60399   0.21124   0.00000  Uiso   1.00
C329   C     0.24351   0.63786   0.18078   0.00000  Uiso   1.00
H330   H     0.28267   0.63218   0.17640   0.00000  Uiso   1.00
H331   H     0.23615   0.63878   0.14732   0.00000  Uiso   1.00
H332   H     0.23370   0.33504   0.19611   0.00000  Uiso   1.00
H333   H     0.17489   0.61050   0.21472   0.00000  Uiso   1.00
H334   H     0.21945   0.60505   0.24522   0.00000  Uiso   1.00
H335   H     0.26639   0.55628   0.18620   0.00000  Uiso   1.00
H336   H     0.22095   0.56002   0.15848   0.00000  Uiso   1.00
O337   O     0.37291   0.43989   0.25000   0.00000  Uiso   1.00
O338   O     0.62709   0.56011   0.25000   0.00000  Uiso   1.00
O339   O     0.62706   0.43988   0.25001   0.00000  Uiso   1.00
O340   O     0.37294   0.56012   0.24999   0.00000  Uiso   1.00
C341   C     0.66663   0.42081   0.25131   0.00000  Uiso   1.00
C342   C     0.33340   0.57919   0.24859   0.00000  Uiso   1.00
O343   O     0.35186   0.50001   0.31491   0.00000  Uiso   1.00
O344   O     0.64814   0.49999   0.18509   0.00000  Uiso   1.00
O345   O     0.60600   0.50000   0.31492   0.00000  Uiso   1.00
O346   O     0.39400   0.50000   0.18508   0.00000  Uiso   1.00
C347   C     0.63932   0.50130   0.33599   0.00000  Uiso   1.00
C348   C     0.36070   0.50048   0.16393   0.00000  Uiso   1.00
Cu349  Cu    0.38022   0.50001   0.25000   0.00000  Uiso   1.00
Cu350  Cu    0.61978   0.49999   0.25000   0.00000  Uiso   1.00
C351   C     0.62381   0.50806   0.38456   0.00000  Uiso   1.00
C352   C     0.37609   0.50211   0.11458   0.00000  Uiso   1.00
C353   C     0.63842   0.53378   0.45199   0.00000  Uiso   1.00
C354   C     0.35936   0.49507   0.04292   0.00000  Uiso   1.00
C355   C     0.65549   0.52358   0.40701   0.00000  Uiso   1.00
C356   C     0.34340   0.49516   0.08959   0.00000  Uiso   1.00
C357   C     0.57504   0.50317   0.40749   0.00000  Uiso   1.00
C358   C     0.42460   0.51022   0.09238   0.00000  Uiso   1.00
C359   C     0.55656   0.51527   0.45210   0.00000  Uiso   1.00
C360   C     0.44145   0.51122   0.04522   0.00000  Uiso   1.00
C361   C     0.58943   0.52902   0.47493   0.00000  Uiso   1.00
C362   C     0.40797   0.50273   0.02062   0.00000  Uiso   1.00
C363   C     0.50650   0.51328   0.47476   0.00000  Uiso   1.00
C364   C     0.49080   0.51874   0.02189   0.00000  Uiso   1.00
C365   C     0.52483   0.53208   0.04371   0.00000  Uiso   1.00
C366   C     0.47159   0.50720   0.45142   0.00000  Uiso   1.00
C367   C     0.57301   0.53794   0.02029   0.00000  Uiso   1.00
C368   C     0.42331   0.50183   0.47398   0.00000  Uiso   1.00
H369   H     0.59778   0.54878   0.03808   0.00000  Uiso   1.00
H370   H     0.39801   0.49618   0.45472   0.00000  Uiso   1.00
H371   H     0.44892   0.51449   0.11272   0.00000  Uiso   1.00
H372   H     0.55216   0.48920   0.38993   0.00000  Uiso   1.00
H373   H     0.63912   0.48889   0.10610   0.00000  Uiso   1.00
H374   H     0.35981   0.52860   0.38962   0.00000  Uiso   1.00
H375   H     0.66338   0.54597   0.46873   0.00000  Uiso   1.00
H376   H     0.33377   0.48835   0.02428   0.00000  Uiso   1.00
H377   H     0.51509   0.53972   0.07862   0.00000  Uiso   1.00
H378   H     0.48058   0.50771   0.41532   0.00000  Uiso   1.00
C379   C     0.62833   0.35331   0.28067   0.00000  Uiso   1.00
C380   C     0.37142   0.64671   0.21843   0.00000  Uiso   1.00
C381   C     0.62848   0.64388   0.27746   0.00000  Uiso   1.00
C382   C     0.37163   0.35613   0.22220   0.00000  Uiso   1.00
H383   H     0.59983   0.62584   0.29995   0.00000  Uiso   1.00
H384   H     0.40025   0.37428   0.19984   0.00000  Uiso   1.00
C385   C     0.66644   0.62391   0.24721   0.00000  Uiso   1.00
C386   C     0.33365   0.37607   0.25248   0.00000  Uiso   1.00
C387   C     0.51807   0.47314   0.27730   0.00000  Uiso   1.00
C388   C     0.48202   0.52651   0.22232   0.00000  Uiso   1.00
H389   H     0.53180   0.45146   0.29841   0.00000  Uiso   1.00
H390   H     0.46866   0.54757   0.20021   0.00000  Uiso   1.00
C391   C     0.46838   0.47346   0.27869   0.00000  Uiso   1.00
C392   C     0.53117   0.52760   0.22265   0.00000  Uiso   1.00
N393   N     0.45069   0.50001   0.24999   0.00000  Uiso   1.00
N394   N     0.54931   0.49999   0.25001   0.00000  Uiso   1.00
N395   N     0.59001   0.37276   0.31372   0.00000  Uiso   1.00
O396   O     0.54677   0.35733   0.32455   0.00000  Uiso   1.00
O397   O     0.59941   0.40219   0.33739   0.00000  Uiso   1.00
N398   N     0.40856   0.62746   0.18394   0.00000  Uiso   1.00
O399   O     0.45060   0.64478   0.16881   0.00000  Uiso   1.00
O400   O     0.39824   0.59674   0.16245   0.00000  Uiso   1.00
C401   C     0.43737   0.44285   0.31245   0.00000  Uiso   1.00
C402   C     0.43265   0.45323   0.36168   0.00000  Uiso   1.00
C403   C     0.46127   0.42333   0.38452   0.00000  Uiso   1.00
H404   H     0.45249   0.39072   0.38021   0.00000  Uiso   1.00
H405   H     0.50058   0.42818   0.37068   0.00000  Uiso   1.00
H406   H     0.45163   0.42862   0.42108   0.00000  Uiso   1.00
H407   H     0.44377   0.48559   0.36377   0.00000  Uiso   1.00
H408   H     0.39405   0.45108   0.38122   0.00000  Uiso   1.00
H409   H     0.40073   0.44125   0.30963   0.00000  Uiso   1.00
H410   H     0.45255   0.41118   0.30512   0.00000  Uiso   1.00
C411   C     0.56088   0.56093   0.19222   0.00000  Uiso   1.00
C412   C     0.54705   0.60399   0.21124   0.00000  Uiso   1.00
C413   C     0.57684   0.63786   0.18078   0.00000  Uiso   1.00
H414   H     0.61600   0.63218   0.17640   0.00000  Uiso   1.00
H415   H     0.56948   0.63878   0.14732   0.00000  Uiso   1.00
H416   H     0.56703   0.33504   0.19611   0.00000  Uiso   1.00
H417   H     0.50822   0.61050   0.21472   0.00000  Uiso   1.00
H418   H     0.55279   0.60505   0.24522   0.00000  Uiso   1.00
H419   H     0.59972   0.55628   0.18620   0.00000  Uiso   1.00
H420   H     0.55428   0.56002   0.15848   0.00000  Uiso   1.00
O421   O     0.70625   0.43989   0.25000   0.00000  Uiso   1.00
O422   O     0.96042   0.56011   0.25000   0.00000  Uiso   1.00
O423   O     0.96039   0.43988   0.25001   0.00000  Uiso   1.00
O424   O     0.70628   0.56012   0.24999   0.00000  Uiso   1.00
C425   C     0.99997   0.42081   0.25131   0.00000  Uiso   1.00
C426   C     0.66673   0.57919   0.24859   0.00000  Uiso   1.00
O427   O     0.68519   0.50001   0.31491   0.00000  Uiso   1.00
O428   O     0.98148   0.49999   0.18509   0.00000  Uiso   1.00
O429   O     0.93933   0.50000   0.31492   0.00000  Uiso   1.00
O430   O     0.72733   0.50000   0.18508   0.00000  Uiso   1.00
C431   C     0.97265   0.50130   0.33599   0.00000  Uiso   1.00
C432   C     0.69403   0.50048   0.16393   0.00000  Uiso   1.00
Cu433  Cu    0.71355   0.50001   0.25000   0.00000  Uiso   1.00
Cu434  Cu    0.95311   0.49999   0.25000   0.00000  Uiso   1.00
C435   C     0.95715   0.50806   0.38456   0.00000  Uiso   1.00
C436   C     0.70943   0.50211   0.11458   0.00000  Uiso   1.00
C437   C     0.97175   0.53378   0.45199   0.00000  Uiso   1.00
C438   C     0.69270   0.49507   0.04292   0.00000  Uiso   1.00
C439   C     0.98883   0.52358   0.40701   0.00000  Uiso   1.00
C440   C     0.67673   0.49516   0.08959   0.00000  Uiso   1.00
C441   C     0.90837   0.50317   0.40749   0.00000  Uiso   1.00
C442   C     0.75794   0.51022   0.09238   0.00000  Uiso   1.00
C443   C     0.88990   0.51527   0.45210   0.00000  Uiso   1.00
C444   C     0.77478   0.51122   0.04522   0.00000  Uiso   1.00
C445   C     0.92276   0.52902   0.47493   0.00000  Uiso   1.00
C446   C     0.74131   0.50273   0.02062   0.00000  Uiso   1.00
C447   C     0.83983   0.51328   0.47476   0.00000  Uiso   1.00
C448   C     0.82413   0.51874   0.02189   0.00000  Uiso   1.00
C449   C     0.85816   0.53208   0.04371   0.00000  Uiso   1.00
C450   C     0.80492   0.50720   0.45142   0.00000  Uiso   1.00
C451   C     0.90635   0.53794   0.02029   0.00000  Uiso   1.00
C452   C     0.75665   0.50183   0.47398   0.00000  Uiso   1.00
H453   H     0.93111   0.54878   0.03808   0.00000  Uiso   1.00
H454   H     0.73134   0.49618   0.45472   0.00000  Uiso   1.00
H455   H     0.78225   0.51449   0.11272   0.00000  Uiso   1.00
H456   H     0.88550   0.48920   0.38993   0.00000  Uiso   1.00
H457   H     0.97245   0.48889   0.10610   0.00000  Uiso   1.00
H458   H     0.69315   0.52860   0.38962   0.00000  Uiso   1.00
H459   H     0.99671   0.54597   0.46873   0.00000  Uiso   1.00
H460   H     0.66711   0.48835   0.02428   0.00000  Uiso   1.00
H461   H     0.84842   0.53972   0.07862   0.00000  Uiso   1.00
H462   H     0.81392   0.50771   0.41532   0.00000  Uiso   1.00
C463   C     0.96166   0.35331   0.28067   0.00000  Uiso   1.00
C464   C     0.70475   0.64671   0.21843   0.00000  Uiso   1.00
C465   C     0.96182   0.64388   0.27746   0.00000  Uiso   1.00
C466   C     0.70496   0.35613   0.22220   0.00000  Uiso   1.00
H467   H     0.93316   0.62584   0.29995   0.00000  Uiso   1.00
H468   H     0.73359   0.37428   0.19984   0.00000  Uiso   1.00
C469   C     0.99977   0.62391   0.24721   0.00000  Uiso   1.00
C470   C     0.66698   0.37607   0.25248   0.00000  Uiso   1.00
C471   C     0.85141   0.47314   0.27730   0.00000  Uiso   1.00
C472   C     0.81535   0.52651   0.22232   0.00000  Uiso   1.00
H473   H     0.86514   0.45146   0.29841   0.00000  Uiso   1.00
H474   H     0.80199   0.54757   0.20021   0.00000  Uiso   1.00
C475   C     0.80172   0.47346   0.27869   0.00000  Uiso   1.00
C476   C     0.86450   0.52760   0.22265   0.00000  Uiso   1.00
N477   N     0.78403   0.50001   0.24999   0.00000  Uiso   1.00
N478   N     0.88264   0.49999   0.25001   0.00000  Uiso   1.00
N479   N     0.92334   0.37276   0.31372   0.00000  Uiso   1.00
O480   O     0.88011   0.35733   0.32455   0.00000  Uiso   1.00
O481   O     0.93275   0.40219   0.33739   0.00000  Uiso   1.00
N482   N     0.74189   0.62746   0.18394   0.00000  Uiso   1.00
O483   O     0.78393   0.64478   0.16881   0.00000  Uiso   1.00
O484   O     0.73157   0.59674   0.16245   0.00000  Uiso   1.00
C485   C     0.77070   0.44285   0.31245   0.00000  Uiso   1.00
C486   C     0.76598   0.45323   0.36168   0.00000  Uiso   1.00
C487   C     0.79460   0.42333   0.38452   0.00000  Uiso   1.00
H488   H     0.78582   0.39072   0.38021   0.00000  Uiso   1.00
H489   H     0.83391   0.42818   0.37068   0.00000  Uiso   1.00
H490   H     0.78496   0.42862   0.42108   0.00000  Uiso   1.00
H491   H     0.77710   0.48559   0.36377   0.00000  Uiso   1.00
H492   H     0.72739   0.45108   0.38122   0.00000  Uiso   1.00
H493   H     0.73407   0.44125   0.30963   0.00000  Uiso   1.00
H494   H     0.78588   0.41118   0.30512   0.00000  Uiso   1.00
C495   C     0.89421   0.56093   0.19222   0.00000  Uiso   1.00
C496   C     0.88038   0.60399   0.21124   0.00000  Uiso   1.00
C497   C     0.91018   0.63786   0.18078   0.00000  Uiso   1.00
H498   H     0.94933   0.63218   0.17640   0.00000  Uiso   1.00
H499   H     0.90282   0.63878   0.14732   0.00000  Uiso   1.00
H500   H     0.90036   0.33504   0.19611   0.00000  Uiso   1.00
H501   H     0.84155   0.61050   0.21472   0.00000  Uiso   1.00
H502   H     0.88612   0.60505   0.24522   0.00000  Uiso   1.00
H503   H     0.93306   0.55628   0.18620   0.00000  Uiso   1.00
H504   H     0.88762   0.56002   0.15848   0.00000  Uiso   1.00
O505   O     0.03958   0.77322   0.25000   0.00000  Uiso   1.00
O506   O     0.29375   0.89345   0.25000   0.00000  Uiso   1.00
O507   O     0.29372   0.77321   0.25001   0.00000  Uiso   1.00
O508   O     0.03961   0.89346   0.24999   0.00000  Uiso   1.00
C509   C     0.33330   0.75414   0.25131   0.00000  Uiso   1.00
C510   C     0.00006   0.91252   0.24859   0.00000  Uiso   1.00
O511   O     0.01852   0.83334   0.31491   0.00000  Uiso   1.00
O512   O     0.31481   0.83332   0.18509   0.00000  Uiso   1.00
O513   O     0.27267   0.83333   0.31492   0.00000  Uiso   1.00
O514   O     0.06067   0.83333   0.18508   0.00000  Uiso   1.00
C515   C     0.30598   0.83463   0.33599   0.00000  Uiso   1.00
C516   C     0.02736   0.83381   0.16393   0.00000  Uiso   1.00
Cu517  Cu    0.04689   0.83334   0.25000   0.00000  Uiso   1.00
Cu518  Cu    0.28645   0.83333   0.25000   0.00000  Uiso   1.00
C519   C     0.29048   0.84139   0.38456   0.00000  Uiso   1.00
C520   C     0.04276   0.83545   0.11458   0.00000  Uiso   1.00
C521   C     0.30508   0.86712   0.45199   0.00000  Uiso   1.00
C522   C     0.02603   0.82841   0.04292   0.00000  Uiso   1.00
C523   C     0.32216   0.85691   0.40701   0.00000  Uiso   1.00
C524   C     0.01007   0.82850   0.08959   0.00000  Uiso   1.00
C525   C     0.24171   0.83650   0.40749   0.00000  Uiso   1.00
C526   C     0.09127   0.84355   0.09238   0.00000  Uiso   1.00
C527   C     0.22323   0.84861   0.45210   0.00000  Uiso   1.00
C528   C     0.10811   0.84455   0.04522   0.00000  Uiso   1.00
C529   C     0.25609   0.86236   0.47493   0.00000  Uiso   1.00
C530   C     0.07464   0.83606   0.02062   0.00000  Uiso   1.00
C531   C     0.17317   0.84662   0.47476   0.00000  Uiso   1.00
C532   C     0.15746   0.85207   0.02189   0.00000  Uiso   1.00
C533   C     0.19150   0.86542   0.04371   0.00000  Uiso   1.00
C534   C     0.13825   0.84054   0.45142   0.00000  Uiso   1.00
C535   C     0.23968   0.87127   0.02029   0.00000  Uiso   1.00
C536   C     0.08998   0.83517   0.47398   0.00000  Uiso   1.00
H537   H     0.26444   0.88212   0.03808   0.00000  Uiso   1.00
H538   H     0.06467   0.82951   0.45472   0.00000  Uiso   1.00
H539   H     0.11559   0.84782   0.11272   0.00000  Uiso   1.00
H540   H     0.21883   0.82253   0.38993   0.00000  Uiso   1.00
H541   H     0.30579   0.82222   0.10610   0.00000  Uiso   1.00
H542   H     0.02648   0.86193   0.38962   0.00000  Uiso   1.00
H543   H     0.33004   0.87930   0.46873   0.00000  Uiso   1.00
H544   H     0.00044   0.82168   0.02428   0.00000  Uiso   1.00
H545   H     0.18175   0.87305   0.07862   0.00000  Uiso   1.00
H546   H     0.14725   0.84104   0.41532   0.00000  Uiso   1.00
C547   C     0.29500   0.68665   0.28067   0.00000  Uiso   1.00
C548   C     0.03808   0.98004   0.21843   0.00000  Uiso   1.00
C549   C     0.29515   0.97721   0.27746   0.00000  Uiso   1.00
C550   C     0.03830   0.68947   0.22220   0.00000  Uiso   1.00
H551   H     0.26650   0.95918   0.29995   0.00000  Uiso   1.00
H552   H     0.06692   0.70762   0.19984   0.00000  Uiso   1.00
C553   C     0.33311   0.95725   0.24721   0.00000  Uiso   1.00
C554   C     0.00031   0.70940   0.25248   0.00000  Uiso   1.00
C555   C     0.18474   0.80648   0.27730   0.00000  Uiso   1.00
C556   C     0.14869   0.85984   0.22232   0.00000  Uiso   1.00
H557   H     0.19847   0.78480   0.29841   0.00000  Uiso   1.00
H558   H     0.13533   0.88090   0.20021   0.00000  Uiso   1.00
C559   C     0.13505   0.80680   0.27869   0.00000  Uiso   1.00
C560   C     0.19783   0.86094   0.22265   0.00000  Uiso   1.00
N561   N     0.11736   0.83334   0.24999   0.00000  Uiso   1.00
N562   N     0.21597   0.83332   0.25001   0.00000  Uiso   1.00
N563   N     0.25667   0.70609   0.31372   0.00000  Uiso   1.00
O564   O     0.21344   0.69066   0.32455   0.00000  Uiso   1.00
O565   O     0.26608   0.73553   0.33739   0.00000  Uiso   1.00
N566   N     0.07522   0.96080   0.18394   0.00000  Uiso   1.00
O567   O     0.11726   0.97811   0.16881   0.00000  Uiso   1.00
O568   O     0.06491   0.93007   0.16245   0.00000  Uiso   1.00
C569   C     0.10403   0.77618   0.31245   0.00000  Uiso   1.00
C570   C     0.09932   0.78656   0.36168   0.00000  Uiso   1.00
C571   C     0.12793   0.75666   0.38452   0.00000  Uiso   1.00
H572   H     0.11915   0.72406   0.38021   0.00000  Uiso   1.00
H573   H     0.16724   0.76151   0.37068   0.00000  Uiso   1.00
H574   H     0.11829   0.76196   0.42108   0.00000  Uiso   1.00
H575   H     0.11044   0.81892   0.36377   0.00000  Uiso   1.00
H576   H     0.06072   0.78441   0.38122   0.00000  Uiso   1.00
H577   H     0.06740   0.77458   0.30963   0.00000  Uiso   1.00
H578   H     0.11921   0.74452   0.30512   0.00000  Uiso   1.00
C579   C     0.22755   0.89426   0.19222   0.00000  Uiso   1.00
C580   C     0.21371   0.93732   0.21124   0.00000  Uiso   1.00
C581   C     0.24351   0.97119   0.18078   0.00000  Uiso   1.00
H582   H     0.28267   0.96551   0.17640   0.00000  Uiso   1.00
H583   H     0.23615   0.97212   0.14732   0.00000  Uiso   1.00
H584   H     0.23370   0.66838   0.19611   0.00000  Uiso   1.00
H585   H     0.17489   0.94383   0.21472   0.00000  Uiso   1.00
H586   H     0.21945   0.93838   0.24522   0.00000  Uiso   1.00
H587   H     0.26639   0.88961   0.18620   0.00000  Uiso   1.00
H588   H     0.22095   0.89335   0.15848   0.00000  Uiso   1.00
O589   O     0.37291   0.77322   0.25000   0.00000  Uiso   1.00
O590   O     0.62709   0.89345   0.25000   0.00000  Uiso   1.00
O591   O     0.62706   0.77321   0.25001   0.00000  Uiso   1.00
O592   O     0.37294   0.89346   0.24999   0.00000  Uiso   1.00
C593   C     0.66663   0.75414   0.25131   0.00000  Uiso   1.00
C594   C     0.33340   0.91252   0.24859   0.00000  Uiso   1.00
O595   O     0.35186   0.83334   0.31491   0.00000  Uiso   1.00
O596   O     0.64814   0.83332   0.18509   0.00000  Uiso   1.00
O597   O     0.60600   0.83333   0.31492   0.00000  Uiso   1.00
O598   O     0.39400   0.83333   0.18508   0.00000  Uiso   1.00
C599   C     0.63932   0.83463   0.33599   0.00000  Uiso   1.00
C600   C     0.36070   0.83381   0.16393   0.00000  Uiso   1.00
Cu601  Cu    0.38022   0.83334   0.25000   0.00000  Uiso   1.00
Cu602  Cu    0.61978   0.83333   0.25000   0.00000  Uiso   1.00
C603   C     0.62381   0.84139   0.38456   0.00000  Uiso   1.00
C604   C     0.37609   0.83545   0.11458   0.00000  Uiso   1.00
C605   C     0.63842   0.86712   0.45199   0.00000  Uiso   1.00
C606   C     0.35936   0.82841   0.04292   0.00000  Uiso   1.00
C607   C     0.65549   0.85691   0.40701   0.00000  Uiso   1.00
C608   C     0.34340   0.82850   0.08959   0.00000  Uiso   1.00
C609   C     0.57504   0.83650   0.40749   0.00000  Uiso   1.00
C610   C     0.42460   0.84355   0.09238   0.00000  Uiso   1.00
C611   C     0.55656   0.84861   0.45210   0.00000  Uiso   1.00
C612   C     0.44145   0.84455   0.04522   0.00000  Uiso   1.00
C613   C     0.58943   0.86236   0.47493   0.00000  Uiso   1.00
C614   C     0.40797   0.83606   0.02062   0.00000  Uiso   1.00
C615   C     0.50650   0.84662   0.47476   0.00000  Uiso   1.00
C616   C     0.49080   0.85207   0.02189   0.00000  Uiso   1.00
C617   C     0.52483   0.86542   0.04371   0.00000  Uiso   1.00
C618   C     0.47159   0.84054   0.45142   0.00000  Uiso   1.00
C619   C     0.57301   0.87127   0.02029   0.00000  Uiso   1.00
C620   C     0.42331   0.83517   0.47398   0.00000  Uiso   1.00
H621   H     0.59778   0.88212   0.03808   0.00000  Uiso   1.00
H622   H     0.39801   0.82951   0.45472   0.00000  Uiso   1.00
H623   H     0.44892   0.84782   0.11272   0.00000  Uiso   1.00
H624   H     0.55216   0.82253   0.38993   0.00000  Uiso   1.00
H625   H     0.63912   0.82222   0.10610   0.00000  Uiso   1.00
H626   H     0.35981   0.86193   0.38962   0.00000  Uiso   1.00
H627   H     0.66338   0.87930   0.46873   0.00000  Uiso   1.00
H628   H     0.33377   0.82168   0.02428   0.00000  Uiso   1.00
H629   H     0.51509   0.87305   0.07862   0.00000  Uiso   1.00
H630   H     0.48058   0.84104   0.41532   0.00000  Uiso   1.00
C631   C     0.62833   0.68665   0.28067   0.00000  Uiso   1.00
C632   C     0.37142   0.98004   0.21843   0.00000  Uiso   1.00
C633   C     0.62848   0.97721   0.27746   0.00000  Uiso   1.00
C634   C     0.37163   0.68947   0.22220   0.00000  Uiso   1.00
H635   H     0.59983   0.95918   0.29995   0.00000  Uiso   1.00
H636   H     0.40025   0.70762   0.19984   0.00000  Uiso   1.00
C637   C     0.66644   0.95725   0.24721   0.00000  Uiso   1.00
C638   C     0.33365   0.70940   0.25248   0.00000  Uiso   1.00
C639   C     0.51807   0.80648   0.27730   0.00000  Uiso   1.00
C640   C     0.48202   0.85984   0.22232   0.00000  Uiso   1.00
H641   H     0.53180   0.78480   0.29841   0.00000  Uiso   1.00
H642   H     0.46866   0.88090   0.20021   0.00000  Uiso   1.00
C643   C     0.46838   0.80680   0.27869   0.00000  Uiso   1.00
C644   C     0.53117   0.86094   0.22265   0.00000  Uiso   1.00
N645   N     0.45069   0.83334   0.24999   0.00000  Uiso   1.00
N646   N     0.54931   0.83332   0.25001   0.00000  Uiso   1.00
N647   N     0.59001   0.70609   0.31372   0.00000  Uiso   1.00
O648   O     0.54677   0.69066   0.32455   0.00000  Uiso   1.00
O649   O     0.59941   0.73553   0.33739   0.00000  Uiso   1.00
N650   N     0.40856   0.96080   0.18394   0.00000  Uiso   1.00
O651   O     0.45060   0.97811   0.16881   0.00000  Uiso   1.00
O652   O     0.39824   0.93007   0.16245   0.00000  Uiso   1.00
C653   C     0.43737   0.77618   0.31245   0.00000  Uiso   1.00
C654   C     0.43265   0.78656   0.36168   0.00000  Uiso   1.00
C655   C     0.46127   0.75666   0.38452   0.00000  Uiso   1.00
H656   H     0.45249   0.72406   0.38021   0.00000  Uiso   1.00
H657   H     0.50058   0.76151   0.37068   0.00000  Uiso   1.00
H658   H     0.45163   0.76196   0.42108   0.00000  Uiso   1.00
H659   H     0.44377   0.81892   0.36377   0.00000  Uiso   1.00
H660   H     0.39405   0.78441   0.38122   0.00000  Uiso   1.00
H661   H     0.40073   0.77458   0.30963   0.00000  Uiso   1.00
H662   H     0.45255   0.74452   0.30512   0.00000  Uiso   1.00
C663   C     0.56088   0.89426   0.19222   0.00000  Uiso   1.00
C664   C     0.54705   0.93732   0.21124   0.00000  Uiso   1.00
C665   C     0.57684   0.97119   0.18078   0.00000  Uiso   1.00
H666   H     0.61600   0.96551   0.17640   0.00000  Uiso   1.00
H667   H     0.56948   0.97212   0.14732   0.00000  Uiso   1.00
H668   H     0.56703   0.66838   0.19611   0.00000  Uiso   1.00
H669   H     0.50822   0.94383   0.21472   0.00000  Uiso   1.00
H670   H     0.55279   0.93838   0.24522   0.00000  Uiso   1.00
H671   H     0.59972   0.88961   0.18620   0.00000  Uiso   1.00
H672   H     0.55428   0.89335   0.15848   0.00000  Uiso   1.00
O673   O     0.70625   0.77322   0.25000   0.00000  Uiso   1.00
O674   O     0.96042   0.89345   0.25000   0.00000  Uiso   1.00
O675   O     0.96039   0.77321   0.25001   0.00000  Uiso   1.00
O676   O     0.70628   0.89346   0.24999   0.00000  Uiso   1.00
C677   C     0.99997   0.75414   0.25131   0.00000  Uiso   1.00
C678   C     0.66673   0.91252   0.24859   0.00000  Uiso   1.00
O679   O     0.68519   0.83334   0.31491   0.00000  Uiso   1.00
O680   O     0.98148   0.83332   0.18509   0.00000  Uiso   1.00
O681   O     0.93933   0.83333   0.31492   0.00000  Uiso   1.00
O682   O     0.72733   0.83333   0.18508   0.00000  Uiso   1.00
C683   C     0.97265   0.83463   0.33599   0.00000  Uiso   1.00
C684   C     0.69403   0.83381   0.16393   0.00000  Uiso   1.00
Cu685  Cu    0.71355   0.83334   0.25000   0.00000  Uiso   1.00
Cu686  Cu    0.95311   0.83333   0.25000   0.00000  Uiso   1.00
C687   C     0.95715   0.84139   0.38456   0.00000  Uiso   1.00
C688   C     0.70943   0.83545   0.11458   0.00000  Uiso   1.00
C689   C     0.97175   0.86712   0.45199   0.00000  Uiso   1.00
C690   C     0.69270   0.82841   0.04292   0.00000  Uiso   1.00
C691   C     0.98883   0.85691   0.40701   0.00000  Uiso   1.00
C692   C     0.67673   0.82850   0.08959   0.00000  Uiso   1.00
C693   C     0.90837   0.83650   0.40749   0.00000  Uiso   1.00
C694   C     0.75794   0.84355   0.09238   0.00000  Uiso   1.00
C695   C     0.88990   0.84861   0.45210   0.00000  Uiso   1.00
C696   C     0.77478   0.84455   0.04522   0.00000  Uiso   1.00
C697   C     0.92276   0.86236   0.47493   0.00000  Uiso   1.00
C698   C     0.74131   0.83606   0.02062   0.00000  Uiso   1.00
C699   C     0.83983   0.84662   0.47476   0.00000  Uiso   1.00
C700   C     0.82413   0.85207   0.02189   0.00000  Uiso   1.00
C701   C     0.85816   0.86542   0.04371   0.00000  Uiso   1.00
C702   C     0.80492   0.84054   0.45142   0.00000  Uiso   1.00
C703   C     0.90635   0.87127   0.02029   0.00000  Uiso   1.00
C704   C     0.75665   0.83517   0.47398   0.00000  Uiso   1.00
H705   H     0.93111   0.88212   0.03808   0.00000  Uiso   1.00
H706   H     0.73134   0.82951   0.45472   0.00000  Uiso   1.00
H707   H     0.78225   0.84782   0.11272   0.00000  Uiso   1.00
H708   H     0.88550   0.82253   0.38993   0.00000  Uiso   1.00
H709   H     0.97245   0.82222   0.10610   0.00000  Uiso   1.00
H710   H     0.69315   0.86193   0.38962   0.00000  Uiso   1.00
H711   H     0.99671   0.87930   0.46873   0.00000  Uiso   1.00
H712   H     0.66711   0.82168   0.02428   0.00000  Uiso   1.00
H713   H     0.84842   0.87305   0.07862   0.00000  Uiso   1.00
H714   H     0.81392   0.84104   0.41532   0.00000  Uiso   1.00
C715   C     0.96166   0.68665   0.28067   0.00000  Uiso   1.00
C716   C     0.70475   0.98004   0.21843   0.00000  Uiso   1.00
C717   C     0.96182   0.97721   0.27746   0.00000  Uiso   1.00
C718   C     0.70496   0.68947   0.22220   0.00000  Uiso   1.00
H719   H     0.93316   0.95918   0.29995   0.00000  Uiso   1.00
H720   H     0.73359   0.70762   0.19984   0.00000  Uiso   1.00
C721   C     0.99977   0.95725   0.24721   0.00000  Uiso   1.00
C722   C     0.66698   0.70940   0.25248   0.00000  Uiso   1.00
C723   C     0.85141   0.80648   0.27730   0.00000  Uiso   1.00
C724   C     0.81535   0.85984   0.22232   0.00000  Uiso   1.00
H725   H     0.86514   0.78480   0.29841   0.00000  Uiso   1.00
H726   H     0.80199   0.88090   0.20021   0.00000  Uiso   1.00
C727   C     0.80172   0.80680   0.27869   0.00000  Uiso   1.00
C728   C     0.86450   0.86094   0.22265   0.00000  Uiso   1.00
N729   N     0.78403   0.83334   0.24999   0.00000  Uiso   1.00
N730   N     0.88264   0.83332   0.25001   0.00000  Uiso   1.00
N731   N     0.92334   0.70609   0.31372   0.00000  Uiso   1.00
O732   O     0.88011   0.69066   0.32455   0.00000  Uiso   1.00
O733   O     0.93275   0.73553   0.33739   0.00000  Uiso   1.00
N734   N     0.74189   0.96080   0.18394   0.00000  Uiso   1.00
O735   O     0.78393   0.97811   0.16881   0.00000  Uiso   1.00
O736   O     0.73157   0.93007   0.16245   0.00000  Uiso   1.00
C737   C     0.77070   0.77618   0.31245   0.00000  Uiso   1.00
C738   C     0.76598   0.78656   0.36168   0.00000  Uiso   1.00
C739   C     0.79460   0.75666   0.38452   0.00000  Uiso   1.00
H740   H     0.78582   0.72406   0.38021   0.00000  Uiso   1.00
H741   H     0.83391   0.76151   0.37068   0.00000  Uiso   1.00
H742   H     0.78496   0.76196   0.42108   0.00000  Uiso   1.00
H743   H     0.77710   0.81892   0.36377   0.00000  Uiso   1.00
H744   H     0.72739   0.78441   0.38122   0.00000  Uiso   1.00
H745   H     0.73407   0.77458   0.30963   0.00000  Uiso   1.00
H746   H     0.78588   0.74452   0.30512   0.00000  Uiso   1.00
C747   C     0.89421   0.89426   0.19222   0.00000  Uiso   1.00
C748   C     0.88038   0.93732   0.21124   0.00000  Uiso   1.00
C749   C     0.91018   0.97119   0.18078   0.00000  Uiso   1.00
H750   H     0.94933   0.96551   0.17640   0.00000  Uiso   1.00
H751   H     0.90282   0.97212   0.14732   0.00000  Uiso   1.00
H752   H     0.90036   0.66838   0.19611   0.00000  Uiso   1.00
H753   H     0.84155   0.94383   0.21472   0.00000  Uiso   1.00
H754   H     0.88612   0.93838   0.24522   0.00000  Uiso   1.00
H755   H     0.93306   0.88961   0.18620   0.00000  Uiso   1.00
H756   H     0.88762   0.89335   0.15848   0.00000  Uiso   1.00
O757   O     0.03958   0.10655   0.75000   0.00000  Uiso   1.00
O758   O     0.29375   0.22678   0.75000   0.00000  Uiso   1.00
O759   O     0.29372   0.10654   0.75001   0.00000  Uiso   1.00
O760   O     0.03961   0.22679   0.74999   0.00000  Uiso   1.00
C761   C     0.33330   0.08747   0.75131   0.00000  Uiso   1.00
C762   C     0.00006   0.24586   0.74859   0.00000  Uiso   1.00
O763   O     0.01852   0.16668   0.81491   0.00000  Uiso   1.00
O764   O     0.31481   0.16666   0.68509   0.00000  Uiso   1.00
O765   O     0.27267   0.16667   0.81492   0.00000  Uiso   1.00
O766   O     0.06067   0.16667   0.68508   0.00000  Uiso   1.00
C767   C     0.30598   0.16797   0.83599   0.00000  Uiso   1.00
C768   C     0.02736   0.16715   0.66393   0.00000  Uiso   1.00
Cu769  Cu    0.04689   0.16667   0.75000   0.00000  Uiso   1.00
Cu770  Cu    0.28645   0.16666   0.75000   0.00000  Uiso   1.00
C771   C     0.29048   0.17473   0.88456   0.00000  Uiso   1.00
C772   C     0.04276   0.16878   0.61458   0.00000  Uiso   1.00
C773   C     0.30508   0.20045   0.95199   0.00000  Uiso   1.00
C774   C     0.02603   0.16174   0.54292   0.00000  Uiso   1.00
C775   C     0.32216   0.19024   0.90701   0.00000  Uiso   1.00
C776   C     0.01007   0.16183   0.58959   0.00000  Uiso   1.00
C777   C     0.24171   0.16984   0.90749   0.00000  Uiso   1.00
C778   C     0.09127   0.17689   0.59238   0.00000  Uiso   1.00
C779   C     0.22323   0.18194   0.95210   0.00000  Uiso   1.00
C780   C     0.10811   0.17789   0.54522   0.00000  Uiso   1.00
C781   C     0.25609   0.19569   0.97493   0.00000  Uiso   1.00
C782   C     0.07464   0.16939   0.52062   0.00000  Uiso   1.00
C783   C     0.17317   0.17995   0.97476   0.00000  Uiso   1.00
C784   C     0.15746   0.18541   0.52189   0.00000  Uiso   1.00
C785   C     0.19150   0.19875   0.54371   0.00000  Uiso   1.00
C786   C     0.13825   0.17387   0.95142   0.00000  Uiso   1.00
C787   C     0.23968   0.20460   0.52029   0.00000  Uiso   1.00
C788   C     0.08998   0.16850   0.97398   0.00000  Uiso   1.00
H789   H     0.26444   0.21545   0.53808   0.00000  Uiso   1.00
H790   H     0.06467   0.16284   0.95472   0.00000  Uiso   1.00
H791   H     0.11559   0.18116   0.61272   0.00000  Uiso   1.00
H792   H     0.21883   0.15586   0.88993   0.00000  Uiso   1.00
H793   H     0.30579   0.15555   0.60610   0.00000  Uiso   1.00
H794   H     0.02648   0.19526   0.88962   0.00000  Uiso   1.00
H795   H     0.33004   0.21264   0.96873   0.00000  Uiso   1.00
H796   H     0.00044   0.15502   0.52428   0.00000  Uiso   1.00
H797   H     0.18175   0.20639   0.57862   0.00000  Uiso   1.00
H798   H     0.14725   0.17438   0.91532   0.00000  Uiso   1.00
C799   C     0.29500   0.01998   0.78067   0.00000  Uiso   1.00
C800   C     0.03808   0.31337   0.71843   0.00000  Uiso   1.00
C801   C     0.29515   0.31054   0.77746   0.00000  Uiso   1.00
C802   C     0.03830   0.02280   0.72220   0.00000  Uiso   1.00
H803   H     0.26650   0.29251   0.79995   0.00000  Uiso   1.00
H804   H     0.06692   0.04095   0.69984   0.00000  Uiso   1.00
C805   C     0.33311   0.29058   0.74721   0.00000  Uiso   1.00
C806   C     0.00031   0.04274   0.75248   0.00000  Uiso   1.00
C807   C     0.18474   0.13981   0.77730   0.00000  Uiso   1.00
C808   C     0.14869   0.19318   0.72232   0.00000  Uiso   1.00
H809   H     0.19847   0.11813   0.79841   0.00000  Uiso   1.00
H810   H     0.13533   0.21423   0.70021   0.00000  Uiso   1.00
C811   C     0.13505   0.14013   0.77869   0.00000  Uiso   1.00
C812   C     0.19783   0.19427   0.72265   0.00000  Uiso   1.00
N813   N     0.11736   0.16668   0.74999   0.00000  Uiso   1.00
N814   N     0.21597   0.16666   0.75001   0.00000  Uiso   1.00
N815   N     0.25667   0.03942   0.81372   0.00000  Uiso   1.00
O816   O     0.21344   0.02399   0.82455   0.00000  Uiso   1.00
O817   O     0.26608   0.06886   0.83739   0.00000  Uiso   1.00
N818   N     0.07522   0.29413   0.68394   0.00000  Uiso   1.00
O819   O     0.11726   0.31145   0.66881   0.00000  Uiso   1.00
O820   O     0.06491   0.26340   0.66245   0.00000  Uiso   1.00
C821   C     0.10403   0.10951   0.81245   0.00000  Uiso   1.00
C822   C     0.09932   0.11989   0.86168   0.00000  Uiso   1.00
C823   C     0.12793   0.08999   0.88452   0.00000  Uiso   1.00
H824   H     0.11915   0.05739   0.88021   0.00000  Uiso   1.00
H825   H     0.16724   0.09485   0.87068   0.00000  Uiso   1.00
H826   H     0.11829   0.09529   0.92108   0.00000  Uiso   1.00
H827   H     0.11044   0.15226   0.86377   0.00000  Uiso   1.00
H828   H     0.06072   0.11775   0.88122   0.00000  Uiso   1.00
H829   H     0.06740   0.10792   0.80963   0.00000  Uiso   1.00
H830   H     0.11921   0.07785   0.80512   0.00000  Uiso   1.00
C831   C     0.22755   0.22760   0.69222   0.00000  Uiso   1.00
C832   C     0.21371   0.27065   0.71124   0.00000  Uiso   1.00
C833   C     0.24351   0.30453   0.68078   0.00000  Uiso   1.00
H834   H     0.28267   0.29885   0.67640   0.00000  Uiso   1.00
H835   H     0.23615   0.30545   0.64732   0.00000  Uiso   1.00
H836   H     0.23370   0.00171   0.69611   0.00000  Uiso   1.00
H837   H     0.17489   0.27717   0.71472   0.00000  Uiso   1.00
H838   H     0.21945   0.27172   0.74522   0.00000  Uiso   1.00
H839   H     0.26639   0.22294   0.68620   0.00000  Uiso   1.00
H840   H     0.22095   0.22669   0.65848   0.00000  Uiso   1.00
O841   O     0.37291   0.10655   0.75000   0.00000  Uiso   1.00
O842   O     0.62709   0.22678   0.75000   0.00000  Uiso   1.00
O843   O     0.62706   0.10654   0.75001   0.00000  Uiso   1.00
O844   O     0.37294   0.22679   0.74999   0.00000  Uiso   1.00
C845   C     0.66663   0.08747   0.75131   0.00000  Uiso   1.00
C846   C     0.33340   0.24586   0.74859   0.00000  Uiso   1.00
O847   O     0.35186   0.16668   0.81491   0.00000  Uiso   1.00
O848   O     0.64814   0.16666   0.68509   0.00000  Uiso   1.00
O849   O     0.60600   0.16667   0.81492   0.00000  Uiso   1.00
O850   O     0.39400   0.16667   0.68508   0.00000  Uiso   1.00
C851   C     0.63932   0.16797   0.83599   0.00000  Uiso   1.00
C852   C     0.36070   0.16715   0.66393   0.00000  Uiso   1.00
Cu853  Cu    0.38022   0.16667   0.75000   0.00000  Uiso   1.00
Cu854  Cu    0.61978   0.16666   0.75000   0.00000  Uiso   1.00
C855   C     0.62381   0.17473   0.88456   0.00000  Uiso   1.00
C856   C     0.37609   0.16878   0.61458   0.00000  Uiso   1.00
C857   C     0.63842   0.20045   0.95199   0.00000  Uiso   1.00
C858   C     0.35936   0.16174   0.54292   0.00000  Uiso   1.00
C859   C     0.65549   0.19024   0.90701   0.00000  Uiso   1.00
C860   C     0.34340   0.16183   0.58959   0.00000  Uiso   1.00
C861   C     0.57504   0.16984   0.90749   0.00000  Uiso   1.00
C862   C     0.42460   0.17689   0.59238   0.00000  Uiso   1.00
C863   C     0.55656   0.18194   0.95210   0.00000  Uiso   1.00
C864   C     0.44145   0.17789   0.54522   0.00000  Uiso   1.00
C865   C     0.58943   0.19569   0.97493   0.00000  Uiso   1.00
C866   C     0.40797   0.16939   0.52062   0.00000  Uiso   1.00
C867   C     0.50650   0.17995   0.97476   0.00000  Uiso   1.00
C868   C     0.49080   0.18541   0.52189   0.00000  Uiso   1.00
C869   C     0.52483   0.19875   0.54371   0.00000  Uiso   1.00
C870   C     0.47159   0.17387   0.95142   0.00000  Uiso   1.00
C871   C     0.57301   0.20460   0.52029   0.00000  Uiso   1.00
C872   C     0.42331   0.16850   0.97398   0.00000  Uiso   1.00
H873   H     0.59778   0.21545   0.53808   0.00000  Uiso   1.00
H874   H     0.39801   0.16284   0.95472   0.00000  Uiso   1.00
H875   H     0.44892   0.18116   0.61272   0.00000  Uiso   1.00
H876   H     0.55216   0.15586   0.88993   0.00000  Uiso   1.00
H877   H     0.63912   0.15555   0.60610   0.00000  Uiso   1.00
H878   H     0.35981   0.19526   0.88962   0.00000  Uiso   1.00
H879   H     0.66338   0.21264   0.96873   0.00000  Uiso   1.00
H880   H     0.33377   0.15502   0.52428   0.00000  Uiso   1.00
H881   H     0.51509   0.20639   0.57862   0.00000  Uiso   1.00
H882   H     0.48058   0.17438   0.91532   0.00000  Uiso   1.00
C883   C     0.62833   0.01998   0.78067   0.00000  Uiso   1.00
C884   C     0.37142   0.31337   0.71843   0.00000  Uiso   1.00
C885   C     0.62848   0.31054   0.77746   0.00000  Uiso   1.00
C886   C     0.37163   0.02280   0.72220   0.00000  Uiso   1.00
H887   H     0.59983   0.29251   0.79995   0.00000  Uiso   1.00
H888   H     0.40025   0.04095   0.69984   0.00000  Uiso   1.00
C889   C     0.66644   0.29058   0.74721   0.00000  Uiso   1.00
C890   C     0.33365   0.04274   0.75248   0.00000  Uiso   1.00
C891   C     0.51807   0.13981   0.77730   0.00000  Uiso   1.00
C892   C     0.48202   0.19318   0.72232   0.00000  Uiso   1.00
H893   H     0.53180   0.11813   0.79841   0.00000  Uiso   1.00
H894   H     0.46866   0.21423   0.70021   0.00000  Uiso   1.00
C895   C     0.46838   0.14013   0.77869   0.00000  Uiso   1.00
C896   C     0.53117   0.19427   0.72265   0.00000  Uiso   1.00
N897   N     0.45069   0.16668   0.74999   0.00000  Uiso   1.00
N898   N     0.54931   0.16666   0.75001   0.00000  Uiso   1.00
N899   N     0.59001   0.03942   0.81372   0.00000  Uiso   1.00
O900   O     0.54677   0.02399   0.82455   0.00000  Uiso   1.00
O901   O     0.59941   0.06886   0.83739   0.00000  Uiso   1.00
N902   N     0.40856   0.29413   0.68394   0.00000  Uiso   1.00
O903   O     0.45060   0.31145   0.66881   0.00000  Uiso   1.00
O904   O     0.39824   0.26340   0.66245   0.00000  Uiso   1.00
C905   C     0.43737   0.10951   0.81245   0.00000  Uiso   1.00
C906   C     0.43265   0.11989   0.86168   0.00000  Uiso   1.00
C907   C     0.46127   0.08999   0.88452   0.00000  Uiso   1.00
H908   H     0.45249   0.05739   0.88021   0.00000  Uiso   1.00
H909   H     0.50058   0.09485   0.87068   0.00000  Uiso   1.00
H910   H     0.45163   0.09529   0.92108   0.00000  Uiso   1.00
H911   H     0.44377   0.15226   0.86377   0.00000  Uiso   1.00
H912   H     0.39405   0.11775   0.88122   0.00000  Uiso   1.00
H913   H     0.40073   0.10792   0.80963   0.00000  Uiso   1.00
H914   H     0.45255   0.07785   0.80512   0.00000  Uiso   1.00
C915   C     0.56088   0.22760   0.69222   0.00000  Uiso   1.00
C916   C     0.54705   0.27065   0.71124   0.00000  Uiso   1.00
C917   C     0.57684   0.30453   0.68078   0.00000  Uiso   1.00
H918   H     0.61600   0.29885   0.67640   0.00000  Uiso   1.00
H919   H     0.56948   0.30545   0.64732   0.00000  Uiso   1.00
H920   H     0.56703   0.00171   0.69611   0.00000  Uiso   1.00
H921   H     0.50822   0.27717   0.71472   0.00000  Uiso   1.00
H922   H     0.55279   0.27172   0.74522   0.00000  Uiso   1.00
H923   H     0.59972   0.22294   0.68620   0.00000  Uiso   1.00
H924   H     0.55428   0.22669   0.65848   0.00000  Uiso   1.00
O925   O     0.70625   0.10655   0.75000   0.00000  Uiso   1.00
O926   O     0.96042   0.22678   0.75000   0.00000  Uiso   1.00
O927   O     0.96039   0.10654   0.75001   0.00000  Uiso   1.00
O928   O     0.70628   0.22679   0.74999   0.00000  Uiso   1.00
C929   C     0.99997   0.08747   0.75131   0.00000  Uiso   1.00
C930   C     0.66673   0.24586   0.74859   0.00000  Uiso   1.00
O931   O     0.68519   0.16668   0.81491   0.00000  Uiso   1.00
O932   O     0.98148   0.16666   0.68509   0.00000  Uiso   1.00
O933   O     0.93933   0.16667   0.81492   0.00000  Uiso   1.00
O934   O     0.72733   0.16667   0.68508   0.00000  Uiso   1.00
C935   C     0.97265   0.16797   0.83599   0.00000  Uiso   1.00
C936   C     0.69403   0.16715   0.66393   0.00000  Uiso   1.00
Cu937  Cu    0.71355   0.16667   0.75000   0.00000  Uiso   1.00
Cu938  Cu    0.95311   0.16666   0.75000   0.00000  Uiso   1.00
C939   C     0.95715   0.17473   0.88456   0.00000  Uiso   1.00
C940   C     0.70943   0.16878   0.61458   0.00000  Uiso   1.00
C941   C     0.97175   0.20045   0.95199   0.00000  Uiso   1.00
C942   C     0.69270   0.16174   0.54292   0.00000  Uiso   1.00
C943   C     0.98883   0.19024   0.90701   0.00000  Uiso   1.00
C944   C     0.67673   0.16183   0.58959   0.00000  Uiso   1.00
C945   C     0.90837   0.16984   0.90749   0.00000  Uiso   1.00
C946   C     0.75794   0.17689   0.59238   0.00000  Uiso   1.00
C947   C     0.88990   0.18194   0.95210   0.00000  Uiso   1.00
C948   C     0.77478   0.17789   0.54522   0.00000  Uiso   1.00
C949   C     0.92276   0.19569   0.97493   0.00000  Uiso   1.00
C950   C     0.74131   0.16939   0.52062   0.00000  Uiso   1.00
C951   C     0.83983   0.17995   0.97476   0.00000  Uiso   1.00
C952   C     0.82413   0.18541   0.52189   0.00000  Uiso   1.00
C953   C     0.85816   0.19875   0.54371   0.00000  Uiso   1.00
C954   C     0.80492   0.17387   0.95142   0.00000  Uiso   1.00
C955   C     0.90635   0.20460   0.52029   0.00000  Uiso   1.00
C956   C     0.75665   0.16850   0.97398   0.00000  Uiso   1.00
H957   H     0.93111   0.21545   0.53808   0.00000  Uiso   1.00
H958   H     0.73134   0.16284   0.95472   0.00000  Uiso   1.00
H959   H     0.78225   0.18116   0.61272   0.00000  Uiso   1.00
H960   H     0.88550   0.15586   0.88993   0.00000  Uiso   1.00
H961   H     0.97245   0.15555   0.60610   0.00000  Uiso   1.00
H962   H     0.69315   0.19526   0.88962   0.00000  Uiso   1.00
H963   H     0.99671   0.21264   0.96873   0.00000  Uiso   1.00
H964   H     0.66711   0.15502   0.52428   0.00000  Uiso   1.00
H965   H     0.84842   0.20639   0.57862   0.00000  Uiso   1.00
H966   H     0.81392   0.17438   0.91532   0.00000  Uiso   1.00
C967   C     0.96166   0.01998   0.78067   0.00000  Uiso   1.00
C968   C     0.70475   0.31337   0.71843   0.00000  Uiso   1.00
C969   C     0.96182   0.31054   0.77746   0.00000  Uiso   1.00
C970   C     0.70496   0.02280   0.72220   0.00000  Uiso   1.00
H971   H     0.93316   0.29251   0.79995   0.00000  Uiso   1.00
H972   H     0.73359   0.04095   0.69984   0.00000  Uiso   1.00
C973   C     0.99977   0.29058   0.74721   0.00000  Uiso   1.00
C974   C     0.66698   0.04274   0.75248   0.00000  Uiso   1.00
C975   C     0.85141   0.13981   0.77730   0.00000  Uiso   1.00
C976   C     0.81535   0.19318   0.72232   0.00000  Uiso   1.00
H977   H     0.86514   0.11813   0.79841   0.00000  Uiso   1.00
H978   H     0.80199   0.21423   0.70021   0.00000  Uiso   1.00
C979   C     0.80172   0.14013   0.77869   0.00000  Uiso   1.00
C980   C     0.86450   0.19427   0.72265   0.00000  Uiso   1.00
N981   N     0.78403   0.16668   0.74999   0.00000  Uiso   1.00
N982   N     0.88264   0.16666   0.75001   0.00000  Uiso   1.00
N983   N     0.92334   0.03942   0.81372   0.00000  Uiso   1.00
O984   O     0.88011   0.02399   0.82455   0.00000  Uiso   1.00
O985   O     0.93275   0.06886   0.83739   0.00000  Uiso   1.00
N986   N     0.74189   0.29413   0.68394   0.00000  Uiso   1.00
O987   O     0.78393   0.31145   0.66881   0.00000  Uiso   1.00
O988   O     0.73157   0.26340   0.66245   0.00000  Uiso   1.00
C989   C     0.77070   0.10951   0.81245   0.00000  Uiso   1.00
C990   C     0.76598   0.11989   0.86168   0.00000  Uiso   1.00
C991   C     0.79460   0.08999   0.88452   0.00000  Uiso   1.00
H992   H     0.78582   0.05739   0.88021   0.00000  Uiso   1.00
H993   H     0.83391   0.09485   0.87068   0.00000  Uiso   1.00
H994   H     0.78496   0.09529   0.92108   0.00000  Uiso   1.00
H995   H     0.77710   0.15226   0.86377   0.00000  Uiso   1.00
H996   H     0.72739   0.11775   0.88122   0.00000  Uiso   1.00
H997   H     0.73407   0.10792   0.80963   0.00000  Uiso   1.00
H998   H     0.78588   0.07785   0.80512   0.00000  Uiso   1.00
C999   C     0.89421   0.22760   0.69222   0.00000  Uiso   1.00
C1000  C     0.88038   0.27065   0.71124   0.00000  Uiso   1.00
C1001  C     0.91018   0.30453   0.68078   0.00000  Uiso   1.00
H1002  H     0.94933   0.29885   0.67640   0.00000  Uiso   1.00
H1003  H     0.90282   0.30545   0.64732   0.00000  Uiso   1.00
H1004  H     0.90036   0.00171   0.69611   0.00000  Uiso   1.00
H1005  H     0.84155   0.27717   0.71472   0.00000  Uiso   1.00
H1006  H     0.88612   0.27172   0.74522   0.00000  Uiso   1.00
H1007  H     0.93306   0.22294   0.68620   0.00000  Uiso   1.00
H1008  H     0.88762   0.22669   0.65848   0.00000  Uiso   1.00
O1009  O     0.03958   0.43989   0.75000   0.00000  Uiso   1.00
O1010  O     0.29375   0.56011   0.75000   0.00000  Uiso   1.00
O1011  O     0.29372   0.43988   0.75001   0.00000  Uiso   1.00
O1012  O     0.03961   0.56012   0.74999   0.00000  Uiso   1.00
C1013  C     0.33330   0.42081   0.75131   0.00000  Uiso   1.00
C1014  C     0.00006   0.57919   0.74859   0.00000  Uiso   1.00
O1015  O     0.01852   0.50001   0.81491   0.00000  Uiso   1.00
O1016  O     0.31481   0.49999   0.68509   0.00000  Uiso   1.00
O1017  O     0.27267   0.50000   0.81492   0.00000  Uiso   1.00
O1018  O     0.06067   0.50000   0.68508   0.00000  Uiso   1.00
C1019  C     0.30598   0.50130   0.83599   0.00000  Uiso   1.00
C1020  C     0.02736   0.50048   0.66393   0.00000  Uiso   1.00
Cu1021 Cu    0.04689   0.50001   0.75000   0.00000  Uiso   1.00
Cu1022 Cu    0.28645   0.49999   0.75000   0.00000  Uiso   1.00
C1023  C     0.29048   0.50806   0.88456   0.00000  Uiso   1.00
C1024  C     0.04276   0.50211   0.61458   0.00000  Uiso   1.00
C1025  C     0.30508   0.53378   0.95199   0.00000  Uiso   1.00
C1026  C     0.02603   0.49507   0.54292   0.00000  Uiso   1.00
C1027  C     0.32216   0.52358   0.90701   0.00000  Uiso   1.00
C1028  C     0.01007   0.49516   0.58959   0.00000  Uiso   1.00
C1029  C     0.24171   0.50317   0.90749   0.00000  Uiso   1.00
C1030  C     0.09127   0.51022   0.59238   0.00000  Uiso   1.00
C1031  C     0.22323   0.51527   0.95210   0.00000  Uiso   1.00
C1032  C     0.10811   0.51122   0.54522   0.00000  Uiso   1.00
C1033  C     0.25609   0.52902   0.97493   0.00000  Uiso   1.00
C1034  C     0.07464   0.50273   0.52062   0.00000  Uiso   1.00
C1035  C     0.17317   0.51328   0.97476   0.00000  Uiso   1.00
C1036  C     0.15746   0.51874   0.52189   0.00000  Uiso   1.00
C1037  C     0.19150   0.53208   0.54371   0.00000  Uiso   1.00
C1038  C     0.13825   0.50720   0.95142   0.00000  Uiso   1.00
C1039  C     0.23968   0.53794   0.52029   0.00000  Uiso   1.00
C1040  C     0.08998   0.50183   0.97398   0.00000  Uiso   1.00
H1041  H     0.26444   0.54878   0.53808   0.00000  Uiso   1.00
H1042  H     0.06467   0.49618   0.95472   0.00000  Uiso   1.00
H1043  H     0.11559   0.51449   0.61272   0.00000  Uiso   1.00
H1044  H     0.21883   0.48920   0.88993   0.00000  Uiso   1.00
H1045  H     0.30579   0.48889   0.60610   0.00000  Uiso   1.00
H1046  H     0.02648   0.52860   0.88962   0.00000  Uiso   1.00
H1047  H     0.33004   0.54597   0.96873   0.00000  Uiso   1.00
H1048  H     0.00044   0.48835   0.52428   0.00000  Uiso   1.00
H1049  H     0.18175   0.53972   0.57862   0.00000  Uiso   1.00
H1050  H     0.14725   0.50771   0.91532   0.00000  Uiso   1.00
C1051  C     0.29500   0.35331   0.78067   0.00000  Uiso   1.00
C1052  C     0.03808   0.64671   0.71843   0.00000  Uiso   1.00
C1053  C     0.29515   0.64388   0.77746   0.00000  Uiso   1.00
C1054  C     0.03830   0.35613   0.72220   0.00000  Uiso   1.00
H1055  H     0.26650   0.62584   0.79995   0.00000  Uiso   1.00
H1056  H     0.06692   0.37428   0.69984   0.00000  Uiso   1.00
C1057  C     0.33311   0.62391   0.74721   0.00000  Uiso   1.00
C1058  C     0.00031   0.37607   0.75248   0.00000  Uiso   1.00
C1059  C     0.18474   0.47314   0.77730   0.00000  Uiso   1.00
C1060  C     0.14869   0.52651   0.72232   0.00000  Uiso   1.00
H1061  H     0.19847   0.45146   0.79841   0.00000  Uiso   1.00
H1062  H     0.13533   0.54757   0.70021   0.00000  Uiso   1.00
C1063  C     0.13505   0.47346   0.77869   0.00000  Uiso   1.00
C1064  C     0.19783   0.52760   0.72265   0.00000  Uiso   1.00
N1065  N     0.11736   0.50001   0.74999   0.00000  Uiso   1.00
N1066  N     0.21597   0.49999   0.75001   0.00000  Uiso   1.00
N1067  N     0.25667   0.37276   0.81372   0.00000  Uiso   1.00
O1068  O     0.21344   0.35733   0.82455   0.00000  Uiso   1.00
O1069  O     0.26608   0.40219   0.83739   0.00000  Uiso   1.00
N1070  N     0.07522   0.62746   0.68394   0.00000  Uiso   1.00
O1071  O     0.11726   0.64478   0.66881   0.00000  Uiso   1.00
O1072  O     0.06491   0.59674   0.66245   0.00000  Uiso   1.00
C1073  C     0.10403   0.44285   0.81245   0.00000  Uiso   1.00
C1074  C     0.09932   0.45323   0.86168   0.00000  Uiso   1.00
C1075  C     0.12793   0.42333   0.88452   0.00000  Uiso   1.00
H1076  H     0.11915   0.39072   0.88021   0.00000  Uiso   1.00
H1077  H     0.16724   0.42818   0.87068   0.00000  Uiso   1.00
H1078  H     0.11829   0.42862   0.92108   0.00000  Uiso   1.00
H1079  H     0.11044   0.48559   0.86377   0.00000  Uiso   1.00
H1080  H     0.06072   0.45108   0.88122   0.00000  Uiso   1.00
H1081  H     0.06740   0.44125   0.80963   0.00000  Uiso   1.00
H1082  H     0.11921   0.41118   0.80512   0.00000  Uiso   1.00
C1083  C     0.22755   0.56093   0.69222   0.00000  Uiso   1.00
C1084  C     0.21371   0.60399   0.71124   0.00000  Uiso   1.00
C1085  C     0.24351   0.63786   0.68078   0.00000  Uiso   1.00
H1086  H     0.28267   0.63218   0.67640   0.00000  Uiso   1.00
H1087  H     0.23615   0.63878   0.64732   0.00000  Uiso   1.00
H1088  H     0.23370   0.33504   0.69611   0.00000  Uiso   1.00
H1089  H     0.17489   0.61050   0.71472   0.00000  Uiso   1.00
H1090  H     0.21945   0.60505   0.74522   0.00000  Uiso   1.00
H1091  H     0.26639   0.55628   0.68620   0.00000  Uiso   1.00
H1092  H     0.22095   0.56002   0.65848   0.00000  Uiso   1.00
O1093  O     0.37291   0.43989   0.75000   0.00000  Uiso   1.00
O1094  O     0.62709   0.56011   0.75000   0.00000  Uiso   1.00
O1095  O     0.62706   0.43988   0.75001   0.00000  Uiso   1.00
O1096  O     0.37294   0.56012   0.74999   0.00000  Uiso   1.00
C1097  C     0.66663   0.42081   0.75131   0.00000  Uiso   1.00
C1098  C     0.33340   0.57919   0.74859   0.00000  Uiso   1.00
O1099  O     0.35186   0.50001   0.81491   0.00000  Uiso   1.00
O1100  O     0.64814   0.49999   0.68509   0.00000  Uiso   1.00
O1101  O     0.60600   0.50000   0.81492   0.00000  Uiso   1.00
O1102  O     0.39400   0.50000   0.68508   0.00000  Uiso   1.00
C1103  C     0.63932   0.50130   0.83599   0.00000  Uiso   1.00
C1104  C     0.36070   0.50048   0.66393   0.00000  Uiso   1.00
Cu1105 Cu    0.38022   0.50001   0.75000   0.00000  Uiso   1.00
Cu1106 Cu    0.61978   0.49999   0.75000   0.00000  Uiso   1.00
C1107  C     0.62381   0.50806   0.88456   0.00000  Uiso   1.00
C1108  C     0.37609   0.50211   0.61458   0.00000  Uiso   1.00
C1109  C     0.63842   0.53378   0.95199   0.00000  Uiso   1.00
C1110  C     0.35936   0.49507   0.54292   0.00000  Uiso   1.00
C1111  C     0.65549   0.52358   0.90701   0.00000  Uiso   1.00
C1112  C     0.34340   0.49516   0.58959   0.00000  Uiso   1.00
C1113  C     0.57504   0.50317   0.90749   0.00000  Uiso   1.00
C1114  C     0.42460   0.51022   0.59238   0.00000  Uiso   1.00
C1115  C     0.55656   0.51527   0.95210   0.00000  Uiso   1.00
C1116  C     0.44145   0.51122   0.54522   0.00000  Uiso   1.00
C1117  C     0.58943   0.52902   0.97493   0.00000  Uiso   1.00
C1118  C     0.40797   0.50273   0.52062   0.00000  Uiso   1.00
C1119  C     0.50650   0.51328   0.97476   0.00000  Uiso   1.00
C1120  C     0.49080   0.51874   0.52189   0.00000  Uiso   1.00
C1121  C     0.52483   0.53208   0.54371   0.00000  Uiso   1.00
C1122  C     0.47159   0.50720   0.95142   0.00000  Uiso   1.00
C1123  C     0.57301   0.53794   0.52029   0.00000  Uiso   1.00
C1124  C     0.42331   0.50183   0.97398   0.00000  Uiso   1.00
H1125  H     0.59778   0.54878   0.53808   0.00000  Uiso   1.00
H1126  H     0.39801   0.49618   0.95472   0.00000  Uiso   1.00
H1127  H     0.44892   0.51449   0.61272   0.00000  Uiso   1.00
H1128  H     0.55216   0.48920   0.88993   0.00000  Uiso   1.00
H1129  H     0.63912   0.48889   0.60610   0.00000  Uiso   1.00
H1130  H     0.35981   0.52860   0.88962   0.00000  Uiso   1.00
H1131  H     0.66338   0.54597   0.96873   0.00000  Uiso   1.00
H1132  H     0.33377   0.48835   0.52428   0.00000  Uiso   1.00
H1133  H     0.51509   0.53972   0.57862   0.00000  Uiso   1.00
H1134  H     0.48058   0.50771   0.91532   0.00000  Uiso   1.00
C1135  C     0.62833   0.35331   0.78067   0.00000  Uiso   1.00
C1136  C     0.37142   0.64671   0.71843   0.00000  Uiso   1.00
C1137  C     0.62848   0.64388   0.77746   0.00000  Uiso   1.00
C1138  C     0.37163   0.35613   0.72220   0.00000  Uiso   1.00
H1139  H     0.59983   0.62584   0.79995   0.00000  Uiso   1.00
H1140  H     0.40025   0.37428   0.69984   0.00000  Uiso   1.00
C1141  C     0.66644   0.62391   0.74721   0.00000  Uiso   1.00
C1142  C     0.33365   0.37607   0.75248   0.00000  Uiso   1.00
C1143  C     0.51807   0.47314   0.77730   0.00000  Uiso   1.00
C1144  C     0.48202   0.52651   0.72232   0.00000  Uiso   1.00
H1145  H     0.53180   0.45146   0.79841   0.00000  Uiso   1.00
H1146  H     0.46866   0.54757   0.70021   0.00000  Uiso   1.00
C1147  C     0.46838   0.47346   0.77869   0.00000  Uiso   1.00
C1148  C     0.53117   0.52760   0.72265   0.00000  Uiso   1.00
N1149  N     0.45069   0.50001   0.74999   0.00000  Uiso   1.00
N1150  N     0.54931   0.49999   0.75001   0.00000  Uiso   1.00
N1151  N     0.59001   0.37276   0.81372   0.00000  Uiso   1.00
O1152  O     0.54677   0.35733   0.82455   0.00000  Uiso   1.00
O1153  O     0.59941   0.40219   0.83739   0.00000  Uiso   1.00
N1154  N     0.40856   0.62746   0.68394   0.00000  Uiso   1.00
O1155  O     0.45060   0.64478   0.66881   0.00000  Uiso   1.00
O1156  O     0.39824   0.59674   0.66245   0.00000  Uiso   1.00
C1157  C     0.43737   0.44285   0.81245   0.00000  Uiso   1.00
C1158  C     0.43265   0.45323   0.86168   0.00000  Uiso   1.00
C1159  C     0.46127   0.42333   0.88452   0.00000  Uiso   1.00
H1160  H     0.45249   0.39072   0.88021   0.00000  Uiso   1.00
H1161  H     0.50058   0.42818   0.87068   0.00000  Uiso   1.00
H1162  H     0.45163   0.42862   0.92108   0.00000  Uiso   1.00
H1163  H     0.44377   0.48559   0.86377   0.00000  Uiso   1.00
H1164  H     0.39405   0.45108   0.88122   0.00000  Uiso   1.00
H1165  H     0.40073   0.44125   0.80963   0.00000  Uiso   1.00
H1166  H     0.45255   0.41118   0.80512   0.00000  Uiso   1.00
C1167  C     0.56088   0.56093   0.69222   0.00000  Uiso   1.00
C1168  C     0.54705   0.60399   0.71124   0.00000  Uiso   1.00
C1169  C     0.57684   0.63786   0.68078   0.00000  Uiso   1.00
H1170  H     0.61600   0.63218   0.67640   0.00000  Uiso   1.00
H1171  H     0.56948   0.63878   0.64732   0.00000  Uiso   1.00
H1172  H     0.56703   0.33504   0.69611   0.00000  Uiso   1.00
H1173  H     0.50822   0.61050   0.71472   0.00000  Uiso   1.00
H1174  H     0.55279   0.60505   0.74522   0.00000  Uiso   1.00
H1175  H     0.59972   0.55628   0.68620   0.00000  Uiso   1.00
H1176  H     0.55428   0.56002   0.65848   0.00000  Uiso   1.00
O1177  O     0.70625   0.43989   0.75000   0.00000  Uiso   1.00
O1178  O     0.96042   0.56011   0.75000   0.00000  Uiso   1.00
O1179  O     0.96039   0.43988   0.75001   0.00000  Uiso   1.00
O1180  O     0.70628   0.56012   0.74999   0.00000  Uiso   1.00
C1181  C     0.99997   0.42081   0.75131   0.00000  Uiso   1.00
C1182  C     0.66673   0.57919   0.74859   0.00000  Uiso   1.00
O1183  O     0.68519   0.50001   0.81491   0.00000  Uiso   1.00
O1184  O     0.98148   0.49999   0.68509   0.00000  Uiso   1.00
O1185  O     0.93933   0.50000   0.81492   0.00000  Uiso   1.00
O1186  O     0.72733   0.50000   0.68508   0.00000  Uiso   1.00
C1187  C     0.97265   0.50130   0.83599   0.00000  Uiso   1.00
C1188  C     0.69403   0.50048   0.66393   0.00000  Uiso   1.00
Cu1189 Cu    0.71355   0.50001   0.75000   0.00000  Uiso   1.00
Cu1190 Cu    0.95311   0.49999   0.75000   0.00000  Uiso   1.00
C1191  C     0.95715   0.50806   0.88456   0.00000  Uiso   1.00
C1192  C     0.70943   0.50211   0.61458   0.00000  Uiso   1.00
C1193  C     0.97175   0.53378   0.95199   0.00000  Uiso   1.00
C1194  C     0.69270   0.49507   0.54292   0.00000  Uiso   1.00
C1195  C     0.98883   0.52358   0.90701   0.00000  Uiso   1.00
C1196  C     0.67673   0.49516   0.58959   0.00000  Uiso   1.00
C1197  C     0.90837   0.50317   0.90749   0.00000  Uiso   1.00
C1198  C     0.75794   0.51022   0.59238   0.00000  Uiso   1.00
C1199  C     0.88990   0.51527   0.95210   0.00000  Uiso   1.00
C1200  C     0.77478   0.51122   0.54522   0.00000  Uiso   1.00
C1201  C     0.92276   0.52902   0.97493   0.00000  Uiso   1.00
C1202  C     0.74131   0.50273   0.52062   0.00000  Uiso   1.00
C1203  C     0.83983   0.51328   0.97476   0.00000  Uiso   1.00
C1204  C     0.82413   0.51874   0.52189   0.00000  Uiso   1.00
C1205  C     0.85816   0.53208   0.54371   0.00000  Uiso   1.00
C1206  C     0.80492   0.50720   0.95142   0.00000  Uiso   1.00
C1207  C     0.90635   0.53794   0.52029   0.00000  Uiso   1.00
C1208  C     0.75665   0.50183   0.97398   0.00000  Uiso   1.00
H1209  H     0.93111   0.54878   0.53808   0.00000  Uiso   1.00
H1210  H     0.73134   0.49618   0.95472   0.00000  Uiso   1.00
H1211  H     0.78225   0.51449   0.61272   0.00000  Uiso   1.00
H1212  H     0.88550   0.48920   0.88993   0.00000  Uiso   1.00
H1213  H     0.97245   0.48889   0.60610   0.00000  Uiso   1.00
H1214  H     0.69315   0.52860   0.88962   0.00000  Uiso   1.00
H1215  H     0.99671   0.54597   0.96873   0.00000  Uiso   1.00
H1216  H     0.66711   0.48835   0.52428   0.00000  Uiso   1.00
H1217  H     0.84842   0.53972   0.57862   0.00000  Uiso   1.00
H1218  H     0.81392   0.50771   0.91532   0.00000  Uiso   1.00
C1219  C     0.96166   0.35331   0.78067   0.00000  Uiso   1.00
C1220  C     0.70475   0.64671   0.71843   0.00000  Uiso   1.00
C1221  C     0.96182   0.64388   0.77746   0.00000  Uiso   1.00
C1222  C     0.70496   0.35613   0.72220   0.00000  Uiso   1.00
H1223  H     0.93316   0.62584   0.79995   0.00000  Uiso   1.00
H1224  H     0.73359   0.37428   0.69984   0.00000  Uiso   1.00
C1225  C     0.99977   0.62391   0.74721   0.00000  Uiso   1.00
C1226  C     0.66698   0.37607   0.75248   0.00000  Uiso   1.00
C1227  C     0.85141   0.47314   0.77730   0.00000  Uiso   1.00
C1228  C     0.81535   0.52651   0.72232   0.00000  Uiso   1.00
H1229  H     0.86514   0.45146   0.79841   0.00000  Uiso   1.00
H1230  H     0.80199   0.54757   0.70021   0.00000  Uiso   1.00
C1231  C     0.80172   0.47346   0.77869   0.00000  Uiso   1.00
C1232  C     0.86450   0.52760   0.72265   0.00000  Uiso   1.00
N1233  N     0.78403   0.50001   0.74999   0.00000  Uiso   1.00
N1234  N     0.88264   0.49999   0.75001   0.00000  Uiso   1.00
N1235  N     0.92334   0.37276   0.81372   0.00000  Uiso   1.00
O1236  O     0.88011   0.35733   0.82455   0.00000  Uiso   1.00
O1237  O     0.93275   0.40219   0.83739   0.00000  Uiso   1.00
N1238  N     0.74189   0.62746   0.68394   0.00000  Uiso   1.00
O1239  O     0.78393   0.64478   0.66881   0.00000  Uiso   1.00
O1240  O     0.73157   0.59674   0.66245   0.00000  Uiso   1.00
C1241  C     0.77070   0.44285   0.81245   0.00000  Uiso   1.00
C1242  C     0.76598   0.45323   0.86168   0.00000  Uiso   1.00
C1243  C     0.79460   0.42333   0.88452   0.00000  Uiso   1.00
H1244  H     0.78582   0.39072   0.88021   0.00000  Uiso   1.00
H1245  H     0.83391   0.42818   0.87068   0.00000  Uiso   1.00
H1246  H     0.78496   0.42862   0.92108   0.00000  Uiso   1.00
H1247  H     0.77710   0.48559   0.86377   0.00000  Uiso   1.00
H1248  H     0.72739   0.45108   0.88122   0.00000  Uiso   1.00
H1249  H     0.73407   0.44125   0.80963   0.00000  Uiso   1.00
H1250  H     0.78588   0.41118   0.80512   0.00000  Uiso   1.00
C1251  C     0.89421   0.56093   0.69222   0.00000  Uiso   1.00
C1252  C     0.88038   0.60399   0.71124   0.00000  Uiso   1.00
C1253  C     0.91018   0.63786   0.68078   0.00000  Uiso   1.00
H1254  H     0.94933   0.63218   0.67640   0.00000  Uiso   1.00
H1255  H     0.90282   0.63878   0.64732   0.00000  Uiso   1.00
H1256  H     0.90036   0.33504   0.69611   0.00000  Uiso   1.00
H1257  H     0.84155   0.61050   0.71472   0.00000  Uiso   1.00
H1258  H     0.88612   0.60505   0.74522   0.00000  Uiso   1.00
H1259  H     0.93306   0.55628   0.68620   0.00000  Uiso   1.00
H1260  H     0.88762   0.56002   0.65848   0.00000  Uiso   1.00
O1261  O     0.03958   0.77322   0.75000   0.00000  Uiso   1.00
O1262  O     0.29375   0.89345   0.75000   0.00000  Uiso   1.00
O1263  O     0.29372   0.77321   0.75001   0.00000  Uiso   1.00
O1264  O     0.03961   0.89346   0.74999   0.00000  Uiso   1.00
C1265  C     0.33330   0.75414   0.75131   0.00000  Uiso   1.00
C1266  C     0.00006   0.91252   0.74859   0.00000  Uiso   1.00
O1267  O     0.01852   0.83334   0.81491   0.00000  Uiso   1.00
O1268  O     0.31481   0.83332   0.68509   0.00000  Uiso   1.00
O1269  O     0.27267   0.83333   0.81492   0.00000  Uiso   1.00
O1270  O     0.06067   0.83333   0.68508   0.00000  Uiso   1.00
C1271  C     0.30598   0.83463   0.83599   0.00000  Uiso   1.00
C1272  C     0.02736   0.83381   0.66393   0.00000  Uiso   1.00
Cu1273 Cu    0.04689   0.83334   0.75000   0.00000  Uiso   1.00
Cu1274 Cu    0.28645   0.83333   0.75000   0.00000  Uiso   1.00
C1275  C     0.29048   0.84139   0.88456   0.00000  Uiso   1.00
C1276  C     0.04276   0.83545   0.61458   0.00000  Uiso   1.00
C1277  C     0.30508   0.86712   0.95199   0.00000  Uiso   1.00
C1278  C     0.02603   0.82841   0.54292   0.00000  Uiso   1.00
C1279  C     0.32216   0.85691   0.90701   0.00000  Uiso   1.00
C1280  C     0.01007   0.82850   0.58959   0.00000  Uiso   1.00
C1281  C     0.24171   0.83650   0.90749   0.00000  Uiso   1.00
C1282  C     0.09127   0.84355   0.59238   0.00000  Uiso   1.00
C1283  C     0.22323   0.84861   0.95210   0.00000  Uiso   1.00
C1284  C     0.10811   0.84455   0.54522   0.00000  Uiso   1.00
C1285  C     0.25609   0.86236   0.97493   0.00000  Uiso   1.00
C1286  C     0.07464   0.83606   0.52062   0.00000  Uiso   1.00
C1287  C     0.17317   0.84662   0.97476   0.00000  Uiso   1.00
C1288  C     0.15746   0.85207   0.52189   0.00000  Uiso   1.00
C1289  C     0.19150   0.86542   0.54371   0.00000  Uiso   1.00
C1290  C     0.13825   0.84054   0.95142   0.00000  Uiso   1.00
C1291  C     0.23968   0.87127   0.52029   0.00000  Uiso   1.00
C1292  C     0.08998   0.83517   0.97398   0.00000  Uiso   1.00
H1293  H     0.26444   0.88212   0.53808   0.00000  Uiso   1.00
H1294  H     0.06467   0.82951   0.95472   0.00000  Uiso   1.00
H1295  H     0.11559   0.84782   0.61272   0.00000  Uiso   1.00
H1296  H     0.21883   0.82253   0.88993   0.00000  Uiso   1.00
H1297  H     0.30579   0.82222   0.60610   0.00000  Uiso   1.00
H1298  H     0.02648   0.86193   0.88962   0.00000  Uiso   1.00
H1299  H     0.33004   0.87930   0.96873   0.00000  Uiso   1.00
H1300  H     0.00044   0.82168   0.52428   0.00000  Uiso   1.00
H1301  H     0.18175   0.87305   0.57862   0.00000  Uiso   1.00
H1302  H     0.14725   0.84104   0.91532   0.00000  Uiso   1.00
C1303  C     0.29500   0.68665   0.78067   0.00000  Uiso   1.00
C1304  C     0.03808   0.98004   0.71843   0.00000  Uiso   1.00
C1305  C     0.29515   0.97721   0.77746   0.00000  Uiso   1.00
C1306  C     0.03830   0.68947   0.72220   0.00000  Uiso   1.00
H1307  H     0.26650   0.95918   0.79995   0.00000  Uiso   1.00
H1308  H     0.06692   0.70762   0.69984   0.00000  Uiso   1.00
C1309  C     0.33311   0.95725   0.74721   0.00000  Uiso   1.00
C1310  C     0.00031   0.70940   0.75248   0.00000  Uiso   1.00
C1311  C     0.18474   0.80648   0.77730   0.00000  Uiso   1.00
C1312  C     0.14869   0.85984   0.72232   0.00000  Uiso   1.00
H1313  H     0.19847   0.78480   0.79841   0.00000  Uiso   1.00
H1314  H     0.13533   0.88090   0.70021   0.00000  Uiso   1.00
C1315  C     0.13505   0.80680   0.77869   0.00000  Uiso   1.00
C1316  C     0.19783   0.86094   0.72265   0.00000  Uiso   1.00
N1317  N     0.11736   0.83334   0.74999   0.00000  Uiso   1.00
N1318  N     0.21597   0.83332   0.75001   0.00000  Uiso   1.00
N1319  N     0.25667   0.70609   0.81372   0.00000  Uiso   1.00
O1320  O     0.21344   0.69066   0.82455   0.00000  Uiso   1.00
O1321  O     0.26608   0.73553   0.83739   0.00000  Uiso   1.00
N1322  N     0.07522   0.96080   0.68394   0.00000  Uiso   1.00
O1323  O     0.11726   0.97811   0.66881   0.00000  Uiso   1.00
O1324  O     0.06491   0.93007   0.66245   0.00000  Uiso   1.00
C1325  C     0.10403   0.77618   0.81245   0.00000  Uiso   1.00
C1326  C     0.09932   0.78656   0.86168   0.00000  Uiso   1.00
C1327  C     0.12793   0.75666   0.88452   0.00000  Uiso   1.00
H1328  H     0.11915   0.72406   0.88021   0.00000  Uiso   1.00
H1329  H     0.16724   0.76151   0.87068   0.00000  Uiso   1.00
H1330  H     0.11829   0.76196   0.92108   0.00000  Uiso   1.00
H1331  H     0.11044   0.81892   0.86377   0.00000  Uiso   1.00
H1332  H     0.06072   0.78441   0.88122   0.00000  Uiso   1.00
H1333  H     0.06740   0.77458   0.80963   0.00000  Uiso   1.00
H1334  H     0.11921   0.74452   0.80512   0.00000  Uiso   1.00
C1335  C     0.22755   0.89426   0.69222   0.00000  Uiso   1.00
C1336  C     0.21371   0.93732   0.71124   0.00000  Uiso   1.00
C1337  C     0.24351   0.97119   0.68078   0.00000  Uiso   1.00
H1338  H     0.28267   0.96551   0.67640   0.00000  Uiso   1.00
H1339  H     0.23615   0.97212   0.64732   0.00000  Uiso   1.00
H1340  H     0.23370   0.66838   0.69611   0.00000  Uiso   1.00
H1341  H     0.17489   0.94383   0.71472   0.00000  Uiso   1.00
H1342  H     0.21945   0.93838   0.74522   0.00000  Uiso   1.00
H1343  H     0.26639   0.88961   0.68620   0.00000  Uiso   1.00
H1344  H     0.22095   0.89335   0.65848   0.00000  Uiso   1.00
O1345  O     0.37291   0.77322   0.75000   0.00000  Uiso   1.00
O1346  O     0.62709   0.89345   0.75000   0.00000  Uiso   1.00
O1347  O     0.62706   0.77321   0.75001   0.00000  Uiso   1.00
O1348  O     0.37294   0.89346   0.74999   0.00000  Uiso   1.00
C1349  C     0.66663   0.75414   0.75131   0.00000  Uiso   1.00
C1350  C     0.33340   0.91252   0.74859   0.00000  Uiso   1.00
O1351  O     0.35186   0.83334   0.81491   0.00000  Uiso   1.00
O1352  O     0.64814   0.83332   0.68509   0.00000  Uiso   1.00
O1353  O     0.60600   0.83333   0.81492   0.00000  Uiso   1.00
O1354  O     0.39400   0.83333   0.68508   0.00000  Uiso   1.00
C1355  C     0.63932   0.83463   0.83599   0.00000  Uiso   1.00
C1356  C     0.36070   0.83381   0.66393   0.00000  Uiso   1.00
Cu1357 Cu    0.38022   0.83334   0.75000   0.00000  Uiso   1.00
Cu1358 Cu    0.61978   0.83333   0.75000   0.00000  Uiso   1.00
C1359  C     0.62381   0.84139   0.88456   0.00000  Uiso   1.00
C1360  C     0.37609   0.83545   0.61458   0.00000  Uiso   1.00
C1361  C     0.63842   0.86712   0.95199   0.00000  Uiso   1.00
C1362  C     0.35936   0.82841   0.54292   0.00000  Uiso   1.00
C1363  C     0.65549   0.85691   0.90701   0.00000  Uiso   1.00
C1364  C     0.34340   0.82850   0.58959   0.00000  Uiso   1.00
C1365  C     0.57504   0.83650   0.90749   0.00000  Uiso   1.00
C1366  C     0.42460   0.84355   0.59238   0.00000  Uiso   1.00
C1367  C     0.55656   0.84861   0.95210   0.00000  Uiso   1.00
C1368  C     0.44145   0.84455   0.54522   0.00000  Uiso   1.00
C1369  C     0.58943   0.86236   0.97493   0.00000  Uiso   1.00
C1370  C     0.40797   0.83606   0.52062   0.00000  Uiso   1.00
C1371  C     0.50650   0.84662   0.97476   0.00000  Uiso   1.00
C1372  C     0.49080   0.85207   0.52189   0.00000  Uiso   1.00
C1373  C     0.52483   0.86542   0.54371   0.00000  Uiso   1.00
C1374  C     0.47159   0.84054   0.95142   0.00000  Uiso   1.00
C1375  C     0.57301   0.87127   0.52029   0.00000  Uiso   1.00
C1376  C     0.42331   0.83517   0.97398   0.00000  Uiso   1.00
H1377  H     0.59778   0.88212   0.53808   0.00000  Uiso   1.00
H1378  H     0.39801   0.82951   0.95472   0.00000  Uiso   1.00
H1379  H     0.44892   0.84782   0.61272   0.00000  Uiso   1.00
H1380  H     0.55216   0.82253   0.88993   0.00000  Uiso   1.00
H1381  H     0.63912   0.82222   0.60610   0.00000  Uiso   1.00
H1382  H     0.35981   0.86193   0.88962   0.00000  Uiso   1.00
H1383  H     0.66338   0.87930   0.96873   0.00000  Uiso   1.00
H1384  H     0.33377   0.82168   0.52428   0.00000  Uiso   1.00
H1385  H     0.51509   0.87305   0.57862   0.00000  Uiso   1.00
H1386  H     0.48058   0.84104   0.91532   0.00000  Uiso   1.00
C1387  C     0.62833   0.68665   0.78067   0.00000  Uiso   1.00
C1388  C     0.37142   0.98004   0.71843   0.00000  Uiso   1.00
C1389  C     0.62848   0.97721   0.77746   0.00000  Uiso   1.00
C1390  C     0.37163   0.68947   0.72220   0.00000  Uiso   1.00
H1391  H     0.59983   0.95918   0.79995   0.00000  Uiso   1.00
H1392  H     0.40025   0.70762   0.69984   0.00000  Uiso   1.00
C1393  C     0.66644   0.95725   0.74721   0.00000  Uiso   1.00
C1394  C     0.33365   0.70940   0.75248   0.00000  Uiso   1.00
C1395  C     0.51807   0.80648   0.77730   0.00000  Uiso   1.00
C1396  C     0.48202   0.85984   0.72232   0.00000  Uiso   1.00
H1397  H     0.53180   0.78480   0.79841   0.00000  Uiso   1.00
H1398  H     0.46866   0.88090   0.70021   0.00000  Uiso   1.00
C1399  C     0.46838   0.80680   0.77869   0.00000  Uiso   1.00
C1400  C     0.53117   0.86094   0.72265   0.00000  Uiso   1.00
N1401  N     0.45069   0.83334   0.74999   0.00000  Uiso   1.00
N1402  N     0.54931   0.83332   0.75001   0.00000  Uiso   1.00
N1403  N     0.59001   0.70609   0.81372   0.00000  Uiso   1.00
O1404  O     0.54677   0.69066   0.82455   0.00000  Uiso   1.00
O1405  O     0.59941   0.73553   0.83739   0.00000  Uiso   1.00
N1406  N     0.40856   0.96080   0.68394   0.00000  Uiso   1.00
O1407  O     0.45060   0.97811   0.66881   0.00000  Uiso   1.00
O1408  O     0.39824   0.93007   0.66245   0.00000  Uiso   1.00
C1409  C     0.43737   0.77618   0.81245   0.00000  Uiso   1.00
C1410  C     0.43265   0.78656   0.86168   0.00000  Uiso   1.00
C1411  C     0.46127   0.75666   0.88452   0.00000  Uiso   1.00
H1412  H     0.45249   0.72406   0.88021   0.00000  Uiso   1.00
H1413  H     0.50058   0.76151   0.87068   0.00000  Uiso   1.00
H1414  H     0.45163   0.76196   0.92108   0.00000  Uiso   1.00
H1415  H     0.44377   0.81892   0.86377   0.00000  Uiso   1.00
H1416  H     0.39405   0.78441   0.88122   0.00000  Uiso   1.00
H1417  H     0.40073   0.77458   0.80963   0.00000  Uiso   1.00
H1418  H     0.45255   0.74452   0.80512   0.00000  Uiso   1.00
C1419  C     0.56088   0.89426   0.69222   0.00000  Uiso   1.00
C1420  C     0.54705   0.93732   0.71124   0.00000  Uiso   1.00
C1421  C     0.57684   0.97119   0.68078   0.00000  Uiso   1.00
H1422  H     0.61600   0.96551   0.67640   0.00000  Uiso   1.00
H1423  H     0.56948   0.97212   0.64732   0.00000  Uiso   1.00
H1424  H     0.56703   0.66838   0.69611   0.00000  Uiso   1.00
H1425  H     0.50822   0.94383   0.71472   0.00000  Uiso   1.00
H1426  H     0.55279   0.93838   0.74522   0.00000  Uiso   1.00
H1427  H     0.59972   0.88961   0.68620   0.00000  Uiso   1.00
H1428  H     0.55428   0.89335   0.65848   0.00000  Uiso   1.00
O1429  O     0.70625   0.77322   0.75000   0.00000  Uiso   1.00
O1430  O     0.96042   0.89345   0.75000   0.00000  Uiso   1.00
O1431  O     0.96039   0.77321   0.75001   0.00000  Uiso   1.00
O1432  O     0.70628   0.89346   0.74999   0.00000  Uiso   1.00
C1433  C     0.99997   0.75414   0.75131   0.00000  Uiso   1.00
C1434  C     0.66673   0.91252   0.74859   0.00000  Uiso   1.00
O1435  O     0.68519   0.83334   0.81491   0.00000  Uiso   1.00
O1436  O     0.98148   0.83332   0.68509   0.00000  Uiso   1.00
O1437  O     0.93933   0.83333   0.81492   0.00000  Uiso   1.00
O1438  O     0.72733   0.83333   0.68508   0.00000  Uiso   1.00
C1439  C     0.97265   0.83463   0.83599   0.00000  Uiso   1.00
C1440  C     0.69403   0.83381   0.66393   0.00000  Uiso   1.00
Cu1441 Cu    0.71355   0.83334   0.75000   0.00000  Uiso   1.00
Cu1442 Cu    0.95311   0.83333   0.75000   0.00000  Uiso   1.00
C1443  C     0.95715   0.84139   0.88456   0.00000  Uiso   1.00
C1444  C     0.70943   0.83545   0.61458   0.00000  Uiso   1.00
C1445  C     0.97175   0.86712   0.95199   0.00000  Uiso   1.00
C1446  C     0.69270   0.82841   0.54292   0.00000  Uiso   1.00
C1447  C     0.98883   0.85691   0.90701   0.00000  Uiso   1.00
C1448  C     0.67673   0.82850   0.58959   0.00000  Uiso   1.00
C1449  C     0.90837   0.83650   0.90749   0.00000  Uiso   1.00
C1450  C     0.75794   0.84355   0.59238   0.00000  Uiso   1.00
C1451  C     0.88990   0.84861   0.95210   0.00000  Uiso   1.00
C1452  C     0.77478   0.84455   0.54522   0.00000  Uiso   1.00
C1453  C     0.92276   0.86236   0.97493   0.00000  Uiso   1.00
C1454  C     0.74131   0.83606   0.52062   0.00000  Uiso   1.00
C1455  C     0.83983   0.84662   0.97476   0.00000  Uiso   1.00
C1456  C     0.82413   0.85207   0.52189   0.00000  Uiso   1.00
C1457  C     0.85816   0.86542   0.54371   0.00000  Uiso   1.00
C1458  C     0.80492   0.84054   0.95142   0.00000  Uiso   1.00
C1459  C     0.90635   0.87127   0.52029   0.00000  Uiso   1.00
C1460  C     0.75665   0.83517   0.97398   0.00000  Uiso   1.00
H1461  H     0.93111   0.88212   0.53808   0.00000  Uiso   1.00
H1462  H     0.73134   0.82951   0.95472   0.00000  Uiso   1.00
H1463  H     0.78225   0.84782   0.61272   0.00000  Uiso   1.00
H1464  H     0.88550   0.82253   0.88993   0.00000  Uiso   1.00
H1465  H     0.97245   0.82222   0.60610   0.00000  Uiso   1.00
H1466  H     0.69315   0.86193   0.88962   0.00000  Uiso   1.00
H1467  H     0.99671   0.87930   0.96873   0.00000  Uiso   1.00
H1468  H     0.66711   0.82168   0.52428   0.00000  Uiso   1.00
H1469  H     0.84842   0.87305   0.57862   0.00000  Uiso   1.00
H1470  H     0.81392   0.84104   0.91532   0.00000  Uiso   1.00
C1471  C     0.96166   0.68665   0.78067   0.00000  Uiso   1.00
C1472  C     0.70475   0.98004   0.71843   0.00000  Uiso   1.00
C1473  C     0.96182   0.97721   0.77746   0.00000  Uiso   1.00
C1474  C     0.70496   0.68947   0.72220   0.00000  Uiso   1.00
H1475  H     0.93316   0.95918   0.79995   0.00000  Uiso   1.00
H1476  H     0.73359   0.70762   0.69984   0.00000  Uiso   1.00
C1477  C     0.99977   0.95725   0.74721   0.00000  Uiso   1.00
C1478  C     0.66698   0.70940   0.75248   0.00000  Uiso   1.00
C1479  C     0.85141   0.80648   0.77730   0.00000  Uiso   1.00
C1480  C     0.81535   0.85984   0.72232   0.00000  Uiso   1.00
H1481  H     0.86514   0.78480   0.79841   0.00000  Uiso   1.00
H1482  H     0.80199   0.88090   0.70021   0.00000  Uiso   1.00
C1483  C     0.80172   0.80680   0.77869   0.00000  Uiso   1.00
C1484  C     0.86450   0.86094   0.72265   0.00000  Uiso   1.00
N1485  N     0.78403   0.83334   0.74999   0.00000  Uiso   1.00
N1486  N     0.88264   0.83332   0.75001   0.00000  Uiso   1.00
N1487  N     0.92334   0.70609   0.81372   0.00000  Uiso   1.00
O1488  O     0.88011   0.69066   0.82455   0.00000  Uiso   1.00
O1489  O     0.93275   0.73553   0.83739   0.00000  Uiso   1.00
N1490  N     0.74189   0.96080   0.68394   0.00000  Uiso   1.00
O1491  O     0.78393   0.97811   0.66881   0.00000  Uiso   1.00
O1492  O     0.73157   0.93007   0.66245   0.00000  Uiso   1.00
C1493  C     0.77070   0.77618   0.81245   0.00000  Uiso   1.00
C1494  C     0.76598   0.78656   0.86168   0.00000  Uiso   1.00
C1495  C     0.79460   0.75666   0.88452   0.00000  Uiso   1.00
H1496  H     0.78582   0.72406   0.88021   0.00000  Uiso   1.00
H1497  H     0.83391   0.76151   0.87068   0.00000  Uiso   1.00
H1498  H     0.78496   0.76196   0.92108   0.00000  Uiso   1.00
H1499  H     0.77710   0.81892   0.86377   0.00000  Uiso   1.00
H1500  H     0.72739   0.78441   0.88122   0.00000  Uiso   1.00
H1501  H     0.73407   0.77458   0.80963   0.00000  Uiso   1.00
H1502  H     0.78588   0.74452   0.80512   0.00000  Uiso   1.00
C1503  C     0.89421   0.89426   0.69222   0.00000  Uiso   1.00
C1504  C     0.88038   0.93732   0.71124   0.00000  Uiso   1.00
C1505  C     0.91018   0.97119   0.68078   0.00000  Uiso   1.00
H1506  H     0.94933   0.96551   0.67640   0.00000  Uiso   1.00
H1507  H     0.90282   0.97212   0.64732   0.00000  Uiso   1.00
H1508  H     0.90036   0.66838   0.69611   0.00000  Uiso   1.00
H1509  H     0.84155   0.94383   0.71472   0.00000  Uiso   1.00
H1510  H     0.88612   0.93838   0.74522   0.00000  Uiso   1.00
H1511  H     0.93306   0.88961   0.68620   0.00000  Uiso   1.00
H1512  H     0.88762   0.89335   0.65848   0.00000  Uiso   1.00
loop_
_geom_bond_atom_site_label_1
_geom_bond_atom_site_label_2
_geom_bond_distance
_geom_bond_site_symmetry_2
_ccdc_geom_bond_type
O1     Cu13    1.959   .     S
O1     C173    1.298   1_455 S
O2     Cu14    1.959   .     S
O2     C90     1.298   .     S
O3     Cu14    1.950   .     S
O3     C5      1.294   .     A
O4     Cu13    1.950   .     S
O4     C6      1.294   .     A
C5     O85     1.298   .     S
C5     C134    1.445   .     S
C6     O170    1.298   1_455 S
C6     C217    1.444   1_455 S
O7     Cu13    1.951   .     S
O7     C179    1.305   1_455 S
O8     Cu14    1.951   .     S
O8     C96     1.305   .     S
O9     Cu14    1.939   .     S
O9     C11     1.301   .     A
O10    C12     1.300   .     A
O10    Cu13    1.939   .     S
C11    C15     1.471   .     S
C11    O91     1.305   .     S
C12    C16     1.468   .     S
C12    O176    1.305   1_455 S
Cu13   N57     2.030   .     S
Cu13   Cu182   2.701   1_455 S
Cu14   N58     2.030   .     S
Cu14   Cu97    2.701   .     S
C15    C19     1.400   .     A
C15    C21     1.399   .     A
C16    C20     1.399   .     A
C16    C22     1.403   .     A
C17    H39     1.083   .     S
C17    C25     1.404   .     A
C17    C19     1.395   .     A
C18    C26     1.403   .     A
C18    H40     1.083   .     S
C18    C20     1.391   .     A
C19    H122    1.083   .     S
C20    H205    1.083   1_455 S
C21    H36     1.078   .     S
C21    C23     1.407   .     A
C22    H35     1.076   .     S
C22    C24     1.406   .     A
C23    C27     1.422   .     A
C23    C25     1.415   .     A
C24    C26     1.419   .     A
C24    C28     1.428   .     A
C25    C787    1.394   .     S
C26    C788    1.390   1_554 S
C27    C30     1.410   .     A
C27    C784    1.422   .     S
C28    C29     1.416   .     A
C28    C783    1.422   1_554 S
C29    H41     1.078   .     S
C29    C31     1.391   .     A
C30    C32     1.385   .     A
C30    H42     1.075   .     S
C31    H33     1.084   .     S
C31    C781    1.394   1_554 S
C32    H34     1.083   .     S
C32    C782    1.390   .     S
H37    C104    1.083   .     S
H38    C187    1.083   1_455 S
C43    N59     1.439   .     S
C43    C549    1.390   1_545 S
C43    C134    1.410   .     S
C44    N62     1.441   .     S
C44    C298    1.392   .     S
C44    C217    1.412   1_455 S
C45    H47     1.084   .     S
C45    C49     1.397   .     A
C45    C295    1.390   .     S
C46    H48     1.084   .     S
C46    C50     1.397   .     A
C46    C548    1.392   1_545 S
C49    C128    1.412   .     S
C49    C90     1.444   .     S
C50    C173    1.445   1_455 S
C50    C211    1.410   1_455 S
C51    C55     1.420   .     A
C51    H53     1.079   .     S
C51    N58     1.352   .     A
C52    H54     1.083   .     S
C52    N57     1.352   .     A
C52    C56     1.419   .     A
C55    C65     1.519   .     S
C55    N57     1.396   .     A
C56    C75     1.513   .     S
C56    N58     1.394   .     A
N59    O60     1.302   .     A
N59    O61     1.301   .     A
N62    O64     1.301   .     A
N62    O63     1.301   .     A
C65    H73     1.085   .     S
C65    H74     1.112   .     S
C65    C66     1.543   .     S
C66    H72     1.113   .     S
C66    C67     1.530   .     S
C66    H71     1.110   .     S
C67    H68     1.111   .     S
C67    H70     1.109   .     S
C67    H69     1.107   .     S
C75    C76     1.537   .     S
C75    H84     1.113   .     S
C75    H83     1.091   .     S
C76    C77     1.527   .     S
C76    H82     1.110   .     S
C76    H81     1.110   .     S
C77    H78     1.111   .     S
C77    H79     1.111   .     S
C77    H332    1.111   .     S
H80    C581    1.111   1_545 S
O85    Cu97    1.959   .     S
O86    Cu98    1.959   .     S
O86    C174    1.298   .     S
O87    Cu98    1.950   .     S
O87    C89     1.294   .     A
O88    Cu97    1.950   .     S
O88    C90     1.294   .     A
C89    O169    1.298   .     S
C89    C218    1.445   .     S
O91    Cu97    1.951   .     S
O92    Cu98    1.951   .     S
O92    C180    1.305   .     S
O93    Cu98    1.939   .     S
O93    C95     1.301   .     A
O94    C96     1.300   .     A
O94    Cu97    1.939   .     S
C95    C99     1.471   .     S
C95    O175    1.305   .     S
C96    C100    1.468   .     S
Cu97   N141    2.030   .     S
Cu98   N142    2.030   .     S
Cu98   Cu181   2.701   .     S
C99    C103    1.400   .     A
C99    C105    1.399   .     A
C100   C104    1.399   .     A
C100   C106    1.403   .     A
C101   H123    1.083   .     S
C101   C109    1.404   .     A
C101   C103    1.395   .     A
C102   C110    1.403   .     A
C102   H124    1.083   .     S
C102   C104    1.391   .     A
C103   H206    1.083   .     S
C105   H120    1.078   .     S
C105   C107    1.407   .     A
C106   H119    1.076   .     S
C106   C108    1.406   .     A
C107   C111    1.422   .     A
C107   C109    1.415   .     A
C108   C110    1.419   .     A
C108   C112    1.428   .     A
C109   C871    1.394   .     S
C110   C872    1.390   1_554 S
C111   C114    1.410   .     A
C111   C868    1.422   .     S
C112   C113    1.416   .     A
C112   C867    1.422   1_554 S
C113   H125    1.078   .     S
C113   C115    1.391   .     A
C114   C116    1.385   .     A
C114   H126    1.075   .     S
C115   H117    1.084   .     S
C115   C865    1.394   1_554 S
C116   H118    1.083   .     S
C116   C866    1.390   .     S
H121   C188    1.083   .     S
C127   N143    1.439   .     S
C127   C633    1.390   1_545 S
C127   C218    1.410   .     S
C128   N146    1.441   .     S
C128   C382    1.392   .     S
C129   H131    1.084   .     S
C129   C133    1.397   .     A
C129   C379    1.390   .     S
C130   H132    1.084   .     S
C130   C134    1.397   .     A
C130   C632    1.392   1_545 S
C133   C212    1.412   .     S
C133   C174    1.444   .     S
C135   C139    1.420   .     A
C135   H137    1.079   .     S
C135   N142    1.352   .     A
C136   H138    1.083   .     S
C136   N141    1.352   .     A
C136   C140    1.419   .     A
C139   C149    1.519   .     S
C139   N141    1.396   .     A
C140   C159    1.513   .     S
C140   N142    1.394   .     A
N143   O144    1.302   .     A
N143   O145    1.301   .     A
N146   O148    1.301   .     A
N146   O147    1.301   .     A
C149   H157    1.085   .     S
C149   H158    1.112   .     S
C149   C150    1.543   .     S
C150   H156    1.113   .     S
C150   C151    1.530   .     S
C150   H155    1.110   .     S
C151   H152    1.111   .     S
C151   H154    1.109   .     S
C151   H153    1.107   .     S
C159   C160    1.537   .     S
C159   H168    1.113   .     S
C159   H167    1.091   .     S
C160   C161    1.527   .     S
C160   H166    1.110   .     S
C160   H165    1.110   .     S
C161   H162    1.111   .     S
C161   H163    1.111   .     S
C161   H416    1.111   .     S
H164   C665    1.111   1_545 S
O169   Cu181   1.959   .     S
O170   Cu182   1.959   .     S
O170   C6      1.298   1_655 S
O171   Cu182   1.950   .     S
O171   C173    1.294   .     A
O172   Cu181   1.950   .     S
O172   C174    1.294   .     A
C173   O1      1.298   1_655 S
C173   C50     1.445   1_655 S
O175   Cu181   1.951   .     S
O176   Cu182   1.951   .     S
O176   C12     1.305   1_655 S
O177   Cu182   1.939   .     S
O177   C179    1.301   .     A
O178   C180    1.300   .     A
O178   Cu181   1.939   .     S
C179   C183    1.471   .     S
C179   O7      1.305   1_655 S
C180   C184    1.468   .     S
Cu181  N225    2.030   .     S
Cu182  N226    2.030   .     S
Cu182  Cu13    2.701   1_655 S
C183   C187    1.400   .     A
C183   C189    1.399   .     A
C184   C188    1.399   .     A
C184   C190    1.403   .     A
C185   H207    1.083   .     S
C185   C193    1.404   .     A
C185   C187    1.395   .     A
C186   C194    1.403   .     A
C186   H208    1.083   .     S
C186   C188    1.391   .     A
C187   H38     1.083   1_655 S
C189   H204    1.078   .     S
C189   C191    1.407   .     A
C190   H203    1.076   .     S
C190   C192    1.406   .     A
C191   C195    1.422   .     A
C191   C193    1.415   .     A
C192   C194    1.419   .     A
C192   C196    1.428   .     A
C193   C955    1.394   .     S
C194   C956    1.390   1_554 S
C195   C198    1.410   .     A
C195   C952    1.422   .     S
C196   C197    1.416   .     A
C196   C951    1.422   1_554 S
C197   H209    1.078   .     S
C197   C199    1.391   .     A
C198   C200    1.385   .     A
C198   H210    1.075   .     S
C199   H201    1.084   .     S
C199   C949    1.394   1_554 S
C200   H202    1.083   .     S
C200   C950    1.390   .     S
H205   C20     1.083   1_655 S
C211   N227    1.439   .     S
C211   C717    1.390   1_545 S
C211   C50     1.410   1_655 S
C212   N230    1.441   .     S
C212   C466    1.392   .     S
C213   H215    1.084   .     S
C213   C217    1.397   .     A
C213   C463    1.390   .     S
C214   H216    1.084   .     S
C214   C218    1.397   .     A
C214   C716    1.392   1_545 S
C217   C44     1.412   1_655 S
C217   C6      1.444   1_655 S
C219   C223    1.420   .     A
C219   H221    1.079   .     S
C219   N226    1.352   .     A
C220   H222    1.083   .     S
C220   N225    1.352   .     A
C220   C224    1.419   .     A
C223   C233    1.519   .     S
C223   N225    1.396   .     A
C224   C243    1.513   .     S
C224   N226    1.394   .     A
N227   O228    1.302   .     A
N227   O229    1.301   .     A
N230   O232    1.301   .     A
N230   O231    1.301   .     A
C233   H241    1.085   .     S
C233   H242    1.112   .     S
C233   C234    1.543   .     S
C234   H240    1.113   .     S
C234   C235    1.530   .     S
C234   H239    1.110   .     S
C235   H236    1.111   .     S
C235   H238    1.109   .     S
C235   H237    1.107   .     S
C243   C244    1.537   .     S
C243   H252    1.113   .     S
C243   H251    1.091   .     S
C244   C245    1.527   .     S
C244   H250    1.110   .     S
C244   H249    1.110   .     S
C245   H246    1.111   .     S
C245   H247    1.111   .     S
C245   H500    1.111   .     S
H248   C749    1.111   1_545 S
O253   Cu265   1.959   .     S
O253   C425    1.298   1_455 S
O254   Cu266   1.959   .     S
O254   C342    1.298   .     S
O255   Cu266   1.950   .     S
O255   C257    1.294   .     A
O256   Cu265   1.950   .     S
O256   C258    1.294   .     A
C257   O337    1.298   .     S
C257   C386    1.445   .     S
C258   O422    1.298   1_455 S
C258   C469    1.444   1_455 S
O259   Cu265   1.951   .     S
O259   C431    1.305   1_455 S
O260   Cu266   1.951   .     S
O260   C348    1.305   .     S
O261   Cu266   1.939   .     S
O261   C263    1.301   .     A
O262   C264    1.300   .     A
O262   Cu265   1.939   .     S
C263   C267    1.471   .     S
C263   O343    1.305   .     S
C264   C268    1.468   .     S
C264   O428    1.305   1_455 S
Cu265  N309    2.030   .     S
Cu265  Cu434   2.701   1_455 S
Cu266  N310    2.030   .     S
Cu266  Cu349   2.701   .     S
C267   C271    1.400   .     A
C267   C273    1.399   .     A
C268   C272    1.399   .     A
C268   C274    1.403   .     A
C269   H291    1.083   .     S
C269   C277    1.404   .     A
C269   C271    1.395   .     A
C270   C278    1.403   .     A
C270   H292    1.083   .     S
C270   C272    1.391   .     A
C271   H374    1.083   .     S
C272   H457    1.083   1_455 S
C273   H288    1.078   .     S
C273   C275    1.407   .     A
C274   H287    1.076   .     S
C274   C276    1.406   .     A
C275   C279    1.422   .     A
C275   C277    1.415   .     A
C276   C278    1.419   .     A
C276   C280    1.428   .     A
C277   C1039   1.394   .     S
C278   C1040   1.390   1_554 S
C279   C282    1.410   .     A
C279   C1036   1.422   .     S
C280   C281    1.416   .     A
C280   C1035   1.422   1_554 S
C281   H293    1.078   .     S
C281   C283    1.391   .     A
C282   C284    1.385   .     A
C282   H294    1.075   .     S
C283   H285    1.084   .     S
C283   C1033   1.394   1_554 S
C284   H286    1.083   .     S
C284   C1034   1.390   .     S
H289   C356    1.083   .     S
H290   C439    1.083   1_455 S
C295   N311    1.439   .     S
C295   C386    1.410   .     S
C296   N314    1.441   .     S
C296   C550    1.392   .     S
C296   C469    1.412   1_455 S
C297   H299    1.084   .     S
C297   C301    1.397   .     A
C297   C547    1.390   .     S
C298   H300    1.084   .     S
C298   C302    1.397   .     A
C301   C380    1.412   .     S
C301   C342    1.444   .     S
C302   C425    1.445   1_455 S
C302   C463    1.410   1_455 S
C303   C307    1.420   .     A
C303   H305    1.079   .     S
C303   N310    1.352   .     A
C304   H306    1.083   .     S
C304   N309    1.352   .     A
C304   C308    1.419   .     A
C307   C317    1.519   .     S
C307   N309    1.396   .     A
C308   C327    1.513   .     S
C308   N310    1.394   .     A
N311   O312    1.302   .     A
N311   O313    1.301   .     A
N314   O316    1.301   .     A
N314   O315    1.301   .     A
C317   H325    1.085   .     S
C317   H326    1.112   .     S
C317   C318    1.543   .     S
C318   H324    1.113   .     S
C318   C319    1.530   .     S
C318   H323    1.110   .     S
C319   H320    1.111   .     S
C319   H322    1.109   .     S
C319   H321    1.107   .     S
C327   C328    1.537   .     S
C327   H336    1.113   .     S
C327   H335    1.091   .     S
C328   C329    1.527   .     S
C328   H334    1.110   .     S
C328   H333    1.110   .     S
C329   H330    1.111   .     S
C329   H331    1.111   .     S
C329   H584    1.111   .     S
O337   Cu349   1.959   .     S
O338   Cu350   1.959   .     S
O338   C426    1.298   .     S
O339   Cu350   1.950   .     S
O339   C341    1.294   .     A
O340   Cu349   1.950   .     S
O340   C342    1.294   .     A
C341   O421    1.298   .     S
C341   C470    1.445   .     S
O343   Cu349   1.951   .     S
O344   Cu350   1.951   .     S
O344   C432    1.305   .     S
O345   Cu350   1.939   .     S
O345   C347    1.301   .     A
O346   C348    1.300   .     A
O346   Cu349   1.939   .     S
C347   C351    1.471   .     S
C347   O427    1.305   .     S
C348   C352    1.468   .     S
Cu349  N393    2.030   .     S
Cu350  N394    2.030   .     S
Cu350  Cu433   2.701   .     S
C351   C355    1.400   .     A
C351   C357    1.399   .     A
C352   C356    1.399   .     A
C352   C358    1.403   .     A
C353   H375    1.083   .     S
C353   C361    1.404   .     A
C353   C355    1.395   .     A
C354   C362    1.403   .     A
C354   H376    1.083   .     S
C354   C356    1.391   .     A
C355   H458    1.083   .     S
C357   H372    1.078   .     S
C357   C359    1.407   .     A
C358   H371    1.076   .     S
C358   C360    1.406   .     A
C359   C363    1.422   .     A
C359   C361    1.415   .     A
C360   C362    1.419   .     A
C360   C364    1.428   .     A
C361   C1123   1.394   .     S
C362   C1124   1.390   1_554 S
C363   C366    1.410   .     A
C363   C1120   1.422   .     S
C364   C365    1.416   .     A
C364   C1119   1.422   1_554 S
C365   H377    1.078   .     S
C365   C367    1.391   .     A
C366   C368    1.385   .     A
C366   H378    1.075   .     S
C367   H369    1.084   .     S
C367   C1117   1.394   1_554 S
C368   H370    1.083   .     S
C368   C1118   1.390   .     S
H373   C440    1.083   .     S
C379   N395    1.439   .     S
C379   C470    1.410   .     S
C380   N398    1.441   .     S
C380   C634    1.392   .     S
C381   H383    1.084   .     S
C381   C385    1.397   .     A
C381   C631    1.390   .     S
C382   H384    1.084   .     S
C382   C386    1.397   .     A
C385   C464    1.412   .     S
C385   C426    1.444   .     S
C387   C391    1.420   .     A
C387   H389    1.079   .     S
C387   N394    1.352   .     A
C388   H390    1.083   .     S
C388   N393    1.352   .     A
C388   C392    1.419   .     A
C391   C401    1.519   .     S
C391   N393    1.396   .     A
C392   C411    1.513   .     S
C392   N394    1.394   .     A
N395   O396    1.302   .     A
N395   O397    1.301   .     A
N398   O400    1.301   .     A
N398   O399    1.301   .     A
C401   H409    1.085   .     S
C401   H410    1.112   .     S
C401   C402    1.543   .     S
C402   H408    1.113   .     S
C402   C403    1.530   .     S
C402   H407    1.110   .     S
C403   H404    1.111   .     S
C403   H406    1.109   .     S
C403   H405    1.107   .     S
C411   C412    1.537   .     S
C411   H420    1.113   .     S
C411   H419    1.091   .     S
C412   C413    1.527   .     S
C412   H418    1.110   .     S
C412   H417    1.110   .     S
C413   H414    1.111   .     S
C413   H415    1.111   .     S
C413   H668    1.111   .     S
O421   Cu433   1.959   .     S
O422   Cu434   1.959   .     S
O422   C258    1.298   1_655 S
O423   Cu434   1.950   .     S
O423   C425    1.294   .     A
O424   Cu433   1.950   .     S
O424   C426    1.294   .     A
C425   O253    1.298   1_655 S
C425   C302    1.445   1_655 S
O427   Cu433   1.951   .     S
O428   Cu434   1.951   .     S
O428   C264    1.305   1_655 S
O429   Cu434   1.939   .     S
O429   C431    1.301   .     A
O430   C432    1.300   .     A
O430   Cu433   1.939   .     S
C431   C435    1.471   .     S
C431   O259    1.305   1_655 S
C432   C436    1.468   .     S
Cu433  N477    2.030   .     S
Cu434  N478    2.030   .     S
Cu434  Cu265   2.701   1_655 S
C435   C439    1.400   .     A
C435   C441    1.399   .     A
C436   C440    1.399   .     A
C436   C442    1.403   .     A
C437   H459    1.083   .     S
C437   C445    1.404   .     A
C437   C439    1.395   .     A
C438   C446    1.403   .     A
C438   H460    1.083   .     S
C438   C440    1.391   .     A
C439   H290    1.083   1_655 S
C441   H456    1.078   .     S
C441   C443    1.407   .     A
C442   H455    1.076   .     S
C442   C444    1.406   .     A
C443   C447    1.422   .     A
C443   C445    1.415   .     A
C444   C446    1.419   .     A
C444   C448    1.428   .     A
C445   C1207   1.394   .     S
C446   C1208   1.390   1_554 S
C447   C450    1.410   .     A
C447   C1204   1.422   .     S
C448   C449    1.416   .     A
C448   C1203   1.422   1_554 S
C449   H461    1.078   .     S
C449   C451    1.391   .     A
C450   C452    1.385   .     A
C450   H462    1.075   .     S
C451   H453    1.084   .     S
C451   C1201   1.394   1_554 S
C452   H454    1.083   .     S
C452   C1202   1.390   .     S
H457   C272    1.083   1_655 S
C463   N479    1.439   .     S
C463   C302    1.410   1_655 S
C464   N482    1.441   .     S
C464   C718    1.392   .     S
C465   H467    1.084   .     S
C465   C469    1.397   .     A
C465   C715    1.390   .     S
C466   H468    1.084   .     S
C466   C470    1.397   .     A
C469   C296    1.412   1_655 S
C469   C258    1.444   1_655 S
C471   C475    1.420   .     A
C471   H473    1.079   .     S
C471   N478    1.352   .     A
C472   H474    1.083   .     S
C472   N477    1.352   .     A
C472   C476    1.419   .     A
C475   C485    1.519   .     S
C475   N477    1.396   .     A
C476   C495    1.513   .     S
C476   N478    1.394   .     A
N479   O480    1.302   .     A
N479   O481    1.301   .     A
N482   O484    1.301   .     A
N482   O483    1.301   .     A
C485   H493    1.085   .     S
C485   H494    1.112   .     S
C485   C486    1.543   .     S
C486   H492    1.113   .     S
C486   C487    1.530   .     S
C486   H491    1.110   .     S
C487   H488    1.111   .     S
C487   H490    1.109   .     S
C487   H489    1.107   .     S
C495   C496    1.537   .     S
C495   H504    1.113   .     S
C495   H503    1.091   .     S
C496   C497    1.527   .     S
C496   H502    1.110   .     S
C496   H501    1.110   .     S
C497   H498    1.111   .     S
C497   H499    1.111   .     S
C497   H752    1.111   .     S
O505   Cu517   1.959   .     S
O505   C677    1.298   1_455 S
O506   Cu518   1.959   .     S
O506   C594    1.298   .     S
O507   Cu518   1.950   .     S
O507   C509    1.294   .     A
O508   Cu517   1.950   .     S
O508   C510    1.294   .     A
C509   O589    1.298   .     S
C509   C638    1.445   .     S
C510   O674    1.298   1_455 S
C510   C721    1.444   1_455 S
O511   Cu517   1.951   .     S
O511   C683    1.305   1_455 S
O512   Cu518   1.951   .     S
O512   C600    1.305   .     S
O513   Cu518   1.939   .     S
O513   C515    1.301   .     A
O514   C516    1.300   .     A
O514   Cu517   1.939   .     S
C515   C519    1.471   .     S
C515   O595    1.305   .     S
C516   C520    1.468   .     S
C516   O680    1.305   1_455 S
Cu517  N561    2.030   .     S
Cu517  Cu686   2.701   1_455 S
Cu518  N562    2.030   .     S
Cu518  Cu601   2.701   .     S
C519   C523    1.400   .     A
C519   C525    1.399   .     A
C520   C524    1.399   .     A
C520   C526    1.403   .     A
C521   H543    1.083   .     S
C521   C529    1.404   .     A
C521   C523    1.395   .     A
C522   C530    1.403   .     A
C522   H544    1.083   .     S
C522   C524    1.391   .     A
C523   H626    1.083   .     S
C524   H709    1.083   1_455 S
C525   H540    1.078   .     S
C525   C527    1.407   .     A
C526   H539    1.076   .     S
C526   C528    1.406   .     A
C527   C531    1.422   .     A
C527   C529    1.415   .     A
C528   C530    1.419   .     A
C528   C532    1.428   .     A
C529   C1291   1.394   .     S
C530   C1292   1.390   1_554 S
C531   C534    1.410   .     A
C531   C1288   1.422   .     S
C532   C533    1.416   .     A
C532   C1287   1.422   1_554 S
C533   H545    1.078   .     S
C533   C535    1.391   .     A
C534   C536    1.385   .     A
C534   H546    1.075   .     S
C535   H537    1.084   .     S
C535   C1285   1.394   1_554 S
C536   H538    1.083   .     S
C536   C1286   1.390   .     S
H541   C608    1.083   .     S
H542   C691    1.083   1_455 S
C547   N563    1.439   .     S
C547   C638    1.410   .     S
C548   N566    1.441   .     S
C548   C46     1.392   1_565 S
C548   C721    1.412   1_455 S
C549   H551    1.084   .     S
C549   C553    1.397   .     A
C549   C43     1.390   1_565 S
C550   H552    1.084   .     S
C550   C554    1.397   .     A
C553   C632    1.412   .     S
C553   C594    1.444   .     S
C554   C677    1.445   1_455 S
C554   C715    1.410   1_455 S
C555   C559    1.420   .     A
C555   H557    1.079   .     S
C555   N562    1.352   .     A
C556   H558    1.083   .     S
C556   N561    1.352   .     A
C556   C560    1.419   .     A
C559   C569    1.519   .     S
C559   N561    1.396   .     A
C560   C579    1.513   .     S
C560   N562    1.394   .     A
N563   O564    1.302   .     A
N563   O565    1.301   .     A
N566   O568    1.301   .     A
N566   O567    1.301   .     A
C569   H577    1.085   .     S
C569   H578    1.112   .     S
C569   C570    1.543   .     S
C570   H576    1.113   .     S
C570   C571    1.530   .     S
C570   H575    1.110   .     S
C571   H572    1.111   .     S
C571   H574    1.109   .     S
C571   H573    1.107   .     S
C579   C580    1.537   .     S
C579   H588    1.113   .     S
C579   H587    1.091   .     S
C580   C581    1.527   .     S
C580   H586    1.110   .     S
C580   H585    1.110   .     S
C581   H582    1.111   .     S
C581   H583    1.111   .     S
C581   H80     1.111   1_565 S
O589   Cu601   1.959   .     S
O590   Cu602   1.959   .     S
O590   C678    1.298   .     S
O591   Cu602   1.950   .     S
O591   C593    1.294   .     A
O592   Cu601   1.950   .     S
O592   C594    1.294   .     A
C593   O673    1.298   .     S
C593   C722    1.445   .     S
O595   Cu601   1.951   .     S
O596   Cu602   1.951   .     S
O596   C684    1.305   .     S
O597   Cu602   1.939   .     S
O597   C599    1.301   .     A
O598   C600    1.300   .     A
O598   Cu601   1.939   .     S
C599   C603    1.471   .     S
C599   O679    1.305   .     S
C600   C604    1.468   .     S
Cu601  N645    2.030   .     S
Cu602  N646    2.030   .     S
Cu602  Cu685   2.701   .     S
C603   C607    1.400   .     A
C603   C609    1.399   .     A
C604   C608    1.399   .     A
C604   C610    1.403   .     A
C605   H627    1.083   .     S
C605   C613    1.404   .     A
C605   C607    1.395   .     A
C606   C614    1.403   .     A
C606   H628    1.083   .     S
C606   C608    1.391   .     A
C607   H710    1.083   .     S
C609   H624    1.078   .     S
C609   C611    1.407   .     A
C610   H623    1.076   .     S
C610   C612    1.406   .     A
C611   C615    1.422   .     A
C611   C613    1.415   .     A
C612   C614    1.419   .     A
C612   C616    1.428   .     A
C613   C1375   1.394   .     S
C614   C1376   1.390   1_554 S
C615   C618    1.410   .     A
C615   C1372   1.422   .     S
C616   C617    1.416   .     A
C616   C1371   1.422   1_554 S
C617   H629    1.078   .     S
C617   C619    1.391   .     A
C618   C620    1.385   .     A
C618   H630    1.075   .     S
C619   H621    1.084   .     S
C619   C1369   1.394   1_554 S
C620   H622    1.083   .     S
C620   C1370   1.390   .     S
H625   C692    1.083   .     S
C631   N647    1.439   .     S
C631   C722    1.410   .     S
C632   N650    1.441   .     S
C632   C130    1.392   1_565 S
C633   H635    1.084   .     S
C633   C637    1.397   .     A
C633   C127    1.390   1_565 S
C634   H636    1.084   .     S
C634   C638    1.397   .     A
C637   C716    1.412   .     S
C637   C678    1.444   .     S
C639   C643    1.420   .     A
C639   H641    1.079   .     S
C639   N646    1.352   .     A
C640   H642    1.083   .     S
C640   N645    1.352   .     A
C640   C644    1.419   .     A
C643   C653    1.519   .     S
C643   N645    1.396   .     A
C644   C663    1.513   .     S
C644   N646    1.394   .     A
N647   O648    1.302   .     A
N647   O649    1.301   .     A
N650   O652    1.301   .     A
N650   O651    1.301   .     A
C653   H661    1.085   .     S
C653   H662    1.112   .     S
C653   C654    1.543   .     S
C654   H660    1.113   .     S
C654   C655    1.530   .     S
C654   H659    1.110   .     S
C655   H656    1.111   .     S
C655   H658    1.109   .     S
C655   H657    1.107   .     S
C663   C664    1.537   .     S
C663   H672    1.113   .     S
C663   H671    1.091   .     S
C664   C665    1.527   .     S
C664   H670    1.110   .     S
C664   H669    1.110   .     S
C665   H666    1.111   .     S
C665   H667    1.111   .     S
C665   H164    1.111   1_565 S
O673   Cu685   1.959   .     S
O674   Cu686   1.959   .     S
O674   C510    1.298   1_655 S
O675   Cu686   1.950   .     S
O675   C677    1.294   .     A
O676   Cu685   1.950   .     S
O676   C678    1.294   .     A
C677   O505    1.298   1_655 S
C677   C554    1.445   1_655 S
O679   Cu685   1.951   .     S
O680   Cu686   1.951   .     S
O680   C516    1.305   1_655 S
O681   Cu686   1.939   .     S
O681   C683    1.301   .     A
O682   C684    1.300   .     A
O682   Cu685   1.939   .     S
C683   C687    1.471   .     S
C683   O511    1.305   1_655 S
C684   C688    1.468   .     S
Cu685  N729    2.030   .     S
Cu686  N730    2.030   .     S
Cu686  Cu517   2.701   1_655 S
C687   C691    1.400   .     A
C687   C693    1.399   .     A
C688   C692    1.399   .     A
C688   C694    1.403   .     A
C689   H711    1.083   .     S
C689   C697    1.404   .     A
C689   C691    1.395   .     A
C690   C698    1.403   .     A
C690   H712    1.083   .     S
C690   C692    1.391   .     A
C691   H542    1.083   1_655 S
C693   H708    1.078   .     S
C693   C695    1.407   .     A
C694   H707    1.076   .     S
C694   C696    1.406   .     A
C695   C699    1.422   .     A
C695   C697    1.415   .     A
C696   C698    1.419   .     A
C696   C700    1.428   .     A
C697   C1459   1.394   .     S
C698   C1460   1.390   1_554 S
C699   C702    1.410   .     A
C699   C1456   1.422   .     S
C700   C701    1.416   .     A
C700   C1455   1.422   1_554 S
C701   H713    1.078   .     S
C701   C703    1.391   .     A
C702   C704    1.385   .     A
C702   H714    1.075   .     S
C703   H705    1.084   .     S
C703   C1453   1.394   1_554 S
C704   H706    1.083   .     S
C704   C1454   1.390   .     S
H709   C524    1.083   1_655 S
C715   N731    1.439   .     S
C715   C554    1.410   1_655 S
C716   N734    1.441   .     S
C716   C214    1.392   1_565 S
C717   H719    1.084   .     S
C717   C721    1.397   .     A
C717   C211    1.390   1_565 S
C718   H720    1.084   .     S
C718   C722    1.397   .     A
C721   C548    1.412   1_655 S
C721   C510    1.444   1_655 S
C723   C727    1.420   .     A
C723   H725    1.079   .     S
C723   N730    1.352   .     A
C724   H726    1.083   .     S
C724   N729    1.352   .     A
C724   C728    1.419   .     A
C727   C737    1.519   .     S
C727   N729    1.396   .     A
C728   C747    1.513   .     S
C728   N730    1.394   .     A
N731   O732    1.302   .     A
N731   O733    1.301   .     A
N734   O736    1.301   .     A
N734   O735    1.301   .     A
C737   H745    1.085   .     S
C737   H746    1.112   .     S
C737   C738    1.543   .     S
C738   H744    1.113   .     S
C738   C739    1.530   .     S
C738   H743    1.110   .     S
C739   H740    1.111   .     S
C739   H742    1.109   .     S
C739   H741    1.107   .     S
C747   C748    1.537   .     S
C747   H756    1.113   .     S
C747   H755    1.091   .     S
C748   C749    1.527   .     S
C748   H754    1.110   .     S
C748   H753    1.110   .     S
C749   H750    1.111   .     S
C749   H751    1.111   .     S
C749   H248    1.111   1_565 S
O757   Cu769   1.959   .     S
O757   C929    1.298   1_455 S
O758   Cu770   1.959   .     S
O758   C846    1.298   .     S
O759   Cu770   1.950   .     S
O759   C761    1.294   .     A
O760   Cu769   1.950   .     S
O760   C762    1.294   .     A
C761   O841    1.298   .     S
C761   C890    1.445   .     S
C762   O926    1.298   1_455 S
C762   C973    1.444   1_455 S
O763   Cu769   1.951   .     S
O763   C935    1.305   1_455 S
O764   Cu770   1.951   .     S
O764   C852    1.305   .     S
O765   Cu770   1.939   .     S
O765   C767    1.301   .     A
O766   C768    1.300   .     A
O766   Cu769   1.939   .     S
C767   C771    1.471   .     S
C767   O847    1.305   .     S
C768   C772    1.468   .     S
C768   O932    1.305   1_455 S
Cu769  N813    2.030   .     S
Cu769  Cu938   2.701   1_455 S
Cu770  N814    2.030   .     S
Cu770  Cu853   2.701   .     S
C771   C775    1.400   .     A
C771   C777    1.399   .     A
C772   C776    1.399   .     A
C772   C778    1.403   .     A
C773   H795    1.083   .     S
C773   C781    1.404   .     A
C773   C775    1.395   .     A
C774   C782    1.403   .     A
C774   H796    1.083   .     S
C774   C776    1.391   .     A
C775   H878    1.083   .     S
C776   H961    1.083   1_455 S
C777   H792    1.078   .     S
C777   C779    1.407   .     A
C778   H791    1.076   .     S
C778   C780    1.406   .     A
C779   C783    1.422   .     A
C779   C781    1.415   .     A
C780   C782    1.419   .     A
C780   C784    1.428   .     A
C781   C31     1.394   1_556 S
C783   C786    1.410   .     A
C783   C28     1.422   1_556 S
C784   C785    1.416   .     A
C785   H797    1.078   .     S
C785   C787    1.391   .     A
C786   C788    1.385   .     A
C786   H798    1.075   .     S
C787   H789    1.084   .     S
C788   H790    1.083   .     S
C788   C26     1.390   1_556 S
H793   C860    1.083   .     S
H794   C943    1.083   1_455 S
C799   N815    1.439   .     S
C799   C1305   1.390   1_545 S
C799   C890    1.410   .     S
C800   N818    1.441   .     S
C800   C1054   1.392   .     S
C800   C973    1.412   1_455 S
C801   H803    1.084   .     S
C801   C805    1.397   .     A
C801   C1051   1.390   .     S
C802   H804    1.084   .     S
C802   C806    1.397   .     A
C802   C1304   1.392   1_545 S
C805   C884    1.412   .     S
C805   C846    1.444   .     S
C806   C929    1.445   1_455 S
C806   C967    1.410   1_455 S
C807   C811    1.420   .     A
C807   H809    1.079   .     S
C807   N814    1.352   .     A
C808   H810    1.083   .     S
C808   N813    1.352   .     A
C808   C812    1.419   .     A
C811   C821    1.519   .     S
C811   N813    1.396   .     A
C812   C831    1.513   .     S
C812   N814    1.394   .     A
N815   O816    1.302   .     A
N815   O817    1.301   .     A
N818   O820    1.301   .     A
N818   O819    1.301   .     A
C821   H829    1.085   .     S
C821   H830    1.112   .     S
C821   C822    1.543   .     S
C822   H828    1.113   .     S
C822   C823    1.530   .     S
C822   H827    1.110   .     S
C823   H824    1.111   .     S
C823   H826    1.109   .     S
C823   H825    1.107   .     S
C831   C832    1.537   .     S
C831   H840    1.113   .     S
C831   H839    1.091   .     S
C832   C833    1.527   .     S
C832   H838    1.110   .     S
C832   H837    1.110   .     S
C833   H834    1.111   .     S
C833   H835    1.111   .     S
C833   H1088   1.111   .     S
H836   C1337   1.111   1_545 S
O841   Cu853   1.959   .     S
O842   Cu854   1.959   .     S
O842   C930    1.298   .     S
O843   Cu854   1.950   .     S
O843   C845    1.294   .     A
O844   Cu853   1.950   .     S
O844   C846    1.294   .     A
C845   O925    1.298   .     S
C845   C974    1.445   .     S
O847   Cu853   1.951   .     S
O848   Cu854   1.951   .     S
O848   C936    1.305   .     S
O849   Cu854   1.939   .     S
O849   C851    1.301   .     A
O850   C852    1.300   .     A
O850   Cu853   1.939   .     S
C851   C855    1.471   .     S
C851   O931    1.305   .     S
C852   C856    1.468   .     S
Cu853  N897    2.030   .     S
Cu854  N898    2.030   .     S
Cu854  Cu937   2.701   .     S
C855   C859    1.400   .     A
C855   C861    1.399   .     A
C856   C860    1.399   .     A
C856   C862    1.403   .     A
C857   H879    1.083   .     S
C857   C865    1.404   .     A
C857   C859    1.395   .     A
C858   C866    1.403   .     A
C858   H880    1.083   .     S
C858   C860    1.391   .     A
C859   H962    1.083   .     S
C861   H876    1.078   .     S
C861   C863    1.407   .     A
C862   H875    1.076   .     S
C862   C864    1.406   .     A
C863   C867    1.422   .     A
C863   C865    1.415   .     A
C864   C866    1.419   .     A
C864   C868    1.428   .     A
C865   C115    1.394   1_556 S
C867   C870    1.410   .     A
C867   C112    1.422   1_556 S
C868   C869    1.416   .     A
C869   H881    1.078   .     S
C869   C871    1.391   .     A
C870   C872    1.385   .     A
C870   H882    1.075   .     S
C871   H873    1.084   .     S
C872   H874    1.083   .     S
C872   C110    1.390   1_556 S
H877   C944    1.083   .     S
C883   N899    1.439   .     S
C883   C1389   1.390   1_545 S
C883   C974    1.410   .     S
C884   N902    1.441   .     S
C884   C1138   1.392   .     S
C885   H887    1.084   .     S
C885   C889    1.397   .     A
C885   C1135   1.390   .     S
C886   H888    1.084   .     S
C886   C890    1.397   .     A
C886   C1388   1.392   1_545 S
C889   C968    1.412   .     S
C889   C930    1.444   .     S
C891   C895    1.420   .     A
C891   H893    1.079   .     S
C891   N898    1.352   .     A
C892   H894    1.083   .     S
C892   N897    1.352   .     A
C892   C896    1.419   .     A
C895   C905    1.519   .     S
C895   N897    1.396   .     A
C896   C915    1.513   .     S
C896   N898    1.394   .     A
N899   O900    1.302   .     A
N899   O901    1.301   .     A
N902   O904    1.301   .     A
N902   O903    1.301   .     A
C905   H913    1.085   .     S
C905   H914    1.112   .     S
C905   C906    1.543   .     S
C906   H912    1.113   .     S
C906   C907    1.530   .     S
C906   H911    1.110   .     S
C907   H908    1.111   .     S
C907   H910    1.109   .     S
C907   H909    1.107   .     S
C915   C916    1.537   .     S
C915   H924    1.113   .     S
C915   H923    1.091   .     S
C916   C917    1.527   .     S
C916   H922    1.110   .     S
C916   H921    1.110   .     S
C917   H918    1.111   .     S
C917   H919    1.111   .     S
C917   H1172   1.111   .     S
H920   C1421   1.111   1_545 S
O925   Cu937   1.959   .     S
O926   Cu938   1.959   .     S
O926   C762    1.298   1_655 S
O927   Cu938   1.950   .     S
O927   C929    1.294   .     A
O928   Cu937   1.950   .     S
O928   C930    1.294   .     A
C929   O757    1.298   1_655 S
C929   C806    1.445   1_655 S
O931   Cu937   1.951   .     S
O932   Cu938   1.951   .     S
O932   C768    1.305   1_655 S
O933   Cu938   1.939   .     S
O933   C935    1.301   .     A
O934   C936    1.300   .     A
O934   Cu937   1.939   .     S
C935   C939    1.471   .     S
C935   O763    1.305   1_655 S
C936   C940    1.468   .     S
Cu937  N981    2.030   .     S
Cu938  N982    2.030   .     S
Cu938  Cu769   2.701   1_655 S
C939   C943    1.400   .     A
C939   C945    1.399   .     A
C940   C944    1.399   .     A
C940   C946    1.403   .     A
C941   H963    1.083   .     S
C941   C949    1.404   .     A
C941   C943    1.395   .     A
C942   C950    1.403   .     A
C942   H964    1.083   .     S
C942   C944    1.391   .     A
C943   H794    1.083   1_655 S
C945   H960    1.078   .     S
C945   C947    1.407   .     A
C946   H959    1.076   .     S
C946   C948    1.406   .     A
C947   C951    1.422   .     A
C947   C949    1.415   .     A
C948   C950    1.419   .     A
C948   C952    1.428   .     A
C949   C199    1.394   1_556 S
C951   C954    1.410   .     A
C951   C196    1.422   1_556 S
C952   C953    1.416   .     A
C953   H965    1.078   .     S
C953   C955    1.391   .     A
C954   C956    1.385   .     A
C954   H966    1.075   .     S
C955   H957    1.084   .     S
C956   H958    1.083   .     S
C956   C194    1.390   1_556 S
H961   C776    1.083   1_655 S
C967   N983    1.439   .     S
C967   C1473   1.390   1_545 S
C967   C806    1.410   1_655 S
C968   N986    1.441   .     S
C968   C1222   1.392   .     S
C969   H971    1.084   .     S
C969   C973    1.397   .     A
C969   C1219   1.390   .     S
C970   H972    1.084   .     S
C970   C974    1.397   .     A
C970   C1472   1.392   1_545 S
C973   C800    1.412   1_655 S
C973   C762    1.444   1_655 S
C975   C979    1.420   .     A
C975   H977    1.079   .     S
C975   N982    1.352   .     A
C976   H978    1.083   .     S
C976   N981    1.352   .     A
C976   C980    1.419   .     A
C979   C989    1.519   .     S
C979   N981    1.396   .     A
C980   C999    1.513   .     S
C980   N982    1.394   .     A
N983   O984    1.302   .     A
N983   O985    1.301   .     A
N986   O988    1.301   .     A
N986   O987    1.301   .     A
C989   H997    1.085   .     S
C989   H998    1.112   .     S
C989   C990    1.543   .     S
C990   H996    1.113   .     S
C990   C991    1.530   .     S
C990   H995    1.110   .     S
C991   H992    1.111   .     S
C991   H994    1.109   .     S
C991   H993    1.107   .     S
C999   C1000   1.537   .     S
C999   H1008   1.113   .     S
C999   H1007   1.091   .     S
C1000  C1001   1.527   .     S
C1000  H1006   1.110   .     S
C1000  H1005   1.110   .     S
C1001  H1002   1.111   .     S
C1001  H1003   1.111   .     S
C1001  H1256   1.111   .     S
H1004  C1505   1.111   1_545 S
O1009  Cu1021  1.959   .     S
O1009  C1181   1.298   1_455 S
O1010  Cu1022  1.959   .     S
O1010  C1098   1.298   .     S
O1011  Cu1022  1.950   .     S
O1011  C1013   1.294   .     A
O1012  Cu1021  1.950   .     S
O1012  C1014   1.294   .     A
C1013  O1093   1.298   .     S
C1013  C1142   1.445   .     S
C1014  O1178   1.298   1_455 S
C1014  C1225   1.444   1_455 S
O1015  Cu1021  1.951   .     S
O1015  C1187   1.305   1_455 S
O1016  Cu1022  1.951   .     S
O1016  C1104   1.305   .     S
O1017  Cu1022  1.939   .     S
O1017  C1019   1.301   .     A
O1018  C1020   1.300   .     A
O1018  Cu1021  1.939   .     S
C1019  C1023   1.471   .     S
C1019  O1099   1.305   .     S
C1020  C1024   1.468   .     S
C1020  O1184   1.305   1_455 S
Cu1021 N1065   2.030   .     S
Cu1021 Cu1190  2.701   1_455 S
Cu1022 N1066   2.030   .     S
Cu1022 Cu1105  2.701   .     S
C1023  C1027   1.400   .     A
C1023  C1029   1.399   .     A
C1024  C1028   1.399   .     A
C1024  C1030   1.403   .     A
C1025  H1047   1.083   .     S
C1025  C1033   1.404   .     A
C1025  C1027   1.395   .     A
C1026  C1034   1.403   .     A
C1026  H1048   1.083   .     S
C1026  C1028   1.391   .     A
C1027  H1130   1.083   .     S
C1028  H1213   1.083   1_455 S
C1029  H1044   1.078   .     S
C1029  C1031   1.407   .     A
C1030  H1043   1.076   .     S
C1030  C1032   1.406   .     A
C1031  C1035   1.422   .     A
C1031  C1033   1.415   .     A
C1032  C1034   1.419   .     A
C1032  C1036   1.428   .     A
C1033  C283    1.394   1_556 S
C1035  C1038   1.410   .     A
C1035  C280    1.422   1_556 S
C1036  C1037   1.416   .     A
C1037  H1049   1.078   .     S
C1037  C1039   1.391   .     A
C1038  C1040   1.385   .     A
C1038  H1050   1.075   .     S
C1039  H1041   1.084   .     S
C1040  H1042   1.083   .     S
C1040  C278    1.390   1_556 S
H1045  C1112   1.083   .     S
H1046  C1195   1.083   1_455 S
C1051  N1067   1.439   .     S
C1051  C1142   1.410   .     S
C1052  N1070   1.441   .     S
C1052  C1306   1.392   .     S
C1052  C1225   1.412   1_455 S
C1053  H1055   1.084   .     S
C1053  C1057   1.397   .     A
C1053  C1303   1.390   .     S
C1054  H1056   1.084   .     S
C1054  C1058   1.397   .     A
C1057  C1136   1.412   .     S
C1057  C1098   1.444   .     S
C1058  C1181   1.445   1_455 S
C1058  C1219   1.410   1_455 S
C1059  C1063   1.420   .     A
C1059  H1061   1.079   .     S
C1059  N1066   1.352   .     A
C1060  H1062   1.083   .     S
C1060  N1065   1.352   .     A
C1060  C1064   1.419   .     A
C1063  C1073   1.519   .     S
C1063  N1065   1.396   .     A
C1064  C1083   1.513   .     S
C1064  N1066   1.394   .     A
N1067  O1068   1.302   .     A
N1067  O1069   1.301   .     A
N1070  O1072   1.301   .     A
N1070  O1071   1.301   .     A
C1073  H1081   1.085   .     S
C1073  H1082   1.112   .     S
C1073  C1074   1.543   .     S
C1074  H1080   1.113   .     S
C1074  C1075   1.530   .     S
C1074  H1079   1.110   .     S
C1075  H1076   1.111   .     S
C1075  H1078   1.109   .     S
C1075  H1077   1.107   .     S
C1083  C1084   1.537   .     S
C1083  H1092   1.113   .     S
C1083  H1091   1.091   .     S
C1084  C1085   1.527   .     S
C1084  H1090   1.110   .     S
C1084  H1089   1.110   .     S
C1085  H1086   1.111   .     S
C1085  H1087   1.111   .     S
C1085  H1340   1.111   .     S
O1093  Cu1105  1.959   .     S
O1094  Cu1106  1.959   .     S
O1094  C1182   1.298   .     S
O1095  Cu1106  1.950   .     S
O1095  C1097   1.294   .     A
O1096  Cu1105  1.950   .     S
O1096  C1098   1.294   .     A
C1097  O1177   1.298   .     S
C1097  C1226   1.445   .     S
O1099  Cu1105  1.951   .     S
O1100  Cu1106  1.951   .     S
O1100  C1188   1.305   .     S
O1101  Cu1106  1.939   .     S
O1101  C1103   1.301   .     A
O1102  C1104   1.300   .     A
O1102  Cu1105  1.939   .     S
C1103  C1107   1.471   .     S
C1103  O1183   1.305   .     S
C1104  C1108   1.468   .     S
Cu1105 N1149   2.030   .     S
Cu1106 N1150   2.030   .     S
Cu1106 Cu1189  2.701   .     S
C1107  C1111   1.400   .     A
C1107  C1113   1.399   .     A
C1108  C1112   1.399   .     A
C1108  C1114   1.403   .     A
C1109  H1131   1.083   .     S
C1109  C1117   1.404   .     A
C1109  C1111   1.395   .     A
C1110  C1118   1.403   .     A
C1110  H1132   1.083   .     S
C1110  C1112   1.391   .     A
C1111  H1214   1.083   .     S
C1113  H1128   1.078   .     S
C1113  C1115   1.407   .     A
C1114  H1127   1.076   .     S
C1114  C1116   1.406   .     A
C1115  C1119   1.422   .     A
C1115  C1117   1.415   .     A
C1116  C1118   1.419   .     A
C1116  C1120   1.428   .     A
C1117  C367    1.394   1_556 S
C1119  C1122   1.410   .     A
C1119  C364    1.422   1_556 S
C1120  C1121   1.416   .     A
C1121  H1133   1.078   .     S
C1121  C1123   1.391   .     A
C1122  C1124   1.385   .     A
C1122  H1134   1.075   .     S
C1123  H1125   1.084   .     S
C1124  H1126   1.083   .     S
C1124  C362    1.390   1_556 S
H1129  C1196   1.083   .     S
C1135  N1151   1.439   .     S
C1135  C1226   1.410   .     S
C1136  N1154   1.441   .     S
C1136  C1390   1.392   .     S
C1137  H1139   1.084   .     S
C1137  C1141   1.397   .     A
C1137  C1387   1.390   .     S
C1138  H1140   1.084   .     S
C1138  C1142   1.397   .     A
C1141  C1220   1.412   .     S
C1141  C1182   1.444   .     S
C1143  C1147   1.420   .     A
C1143  H1145   1.079   .     S
C1143  N1150   1.352   .     A
C1144  H1146   1.083   .     S
C1144  N1149   1.352   .     A
C1144  C1148   1.419   .     A
C1147  C1157   1.519   .     S
C1147  N1149   1.396   .     A
C1148  C1167   1.513   .     S
C1148  N1150   1.394   .     A
N1151  O1152   1.302   .     A
N1151  O1153   1.301   .     A
N1154  O1156   1.301   .     A
N1154  O1155   1.301   .     A
C1157  H1165   1.085   .     S
C1157  H1166   1.112   .     S
C1157  C1158   1.543   .     S
C1158  H1164   1.113   .     S
C1158  C1159   1.530   .     S
C1158  H1163   1.110   .     S
C1159  H1160   1.111   .     S
C1159  H1162   1.109   .     S
C1159  H1161   1.107   .     S
C1167  C1168   1.537   .     S
C1167  H1176   1.113   .     S
C1167  H1175   1.091   .     S
C1168  C1169   1.527   .     S
C1168  H1174   1.110   .     S
C1168  H1173   1.110   .     S
C1169  H1170   1.111   .     S
C1169  H1171   1.111   .     S
C1169  H1424   1.111   .     S
O1177  Cu1189  1.959   .     S
O1178  Cu1190  1.959   .     S
O1178  C1014   1.298   1_655 S
O1179  Cu1190  1.950   .     S
O1179  C1181   1.294   .     A
O1180  Cu1189  1.950   .     S
O1180  C1182   1.294   .     A
C1181  O1009   1.298   1_655 S
C1181  C1058   1.445   1_655 S
O1183  Cu1189  1.951   .     S
O1184  Cu1190  1.951   .     S
O1184  C1020   1.305   1_655 S
O1185  Cu1190  1.939   .     S
O1185  C1187   1.301   .     A
O1186  C1188   1.300   .     A
O1186  Cu1189  1.939   .     S
C1187  C1191   1.471   .     S
C1187  O1015   1.305   1_655 S
C1188  C1192   1.468   .     S
Cu1189 N1233   2.030   .     S
Cu1190 N1234   2.030   .     S
Cu1190 Cu1021  2.701   1_655 S
C1191  C1195   1.400   .     A
C1191  C1197   1.399   .     A
C1192  C1196   1.399   .     A
C1192  C1198   1.403   .     A
C1193  H1215   1.083   .     S
C1193  C1201   1.404   .     A
C1193  C1195   1.395   .     A
C1194  C1202   1.403   .     A
C1194  H1216   1.083   .     S
C1194  C1196   1.391   .     A
C1195  H1046   1.083   1_655 S
C1197  H1212   1.078   .     S
C1197  C1199   1.407   .     A
C1198  H1211   1.076   .     S
C1198  C1200   1.406   .     A
C1199  C1203   1.422   .     A
C1199  C1201   1.415   .     A
C1200  C1202   1.419   .     A
C1200  C1204   1.428   .     A
C1201  C451    1.394   1_556 S
C1203  C1206   1.410   .     A
C1203  C448    1.422   1_556 S
C1204  C1205   1.416   .     A
C1205  H1217   1.078   .     S
C1205  C1207   1.391   .     A
C1206  C1208   1.385   .     A
C1206  H1218   1.075   .     S
C1207  H1209   1.084   .     S
C1208  H1210   1.083   .     S
C1208  C446    1.390   1_556 S
H1213  C1028   1.083   1_655 S
C1219  N1235   1.439   .     S
C1219  C1058   1.410   1_655 S
C1220  N1238   1.441   .     S
C1220  C1474   1.392   .     S
C1221  H1223   1.084   .     S
C1221  C1225   1.397   .     A
C1221  C1471   1.390   .     S
C1222  H1224   1.084   .     S
C1222  C1226   1.397   .     A
C1225  C1052   1.412   1_655 S
C1225  C1014   1.444   1_655 S
C1227  C1231   1.420   .     A
C1227  H1229   1.079   .     S
C1227  N1234   1.352   .     A
C1228  H1230   1.083   .     S
C1228  N1233   1.352   .     A
C1228  C1232   1.419   .     A
C1231  C1241   1.519   .     S
C1231  N1233   1.396   .     A
C1232  C1251   1.513   .     S
C1232  N1234   1.394   .     A
N1235  O1236   1.302   .     A
N1235  O1237   1.301   .     A
N1238  O1240   1.301   .     A
N1238  O1239   1.301   .     A
C1241  H1249   1.085   .     S
C1241  H1250   1.112   .     S
C1241  C1242   1.543   .     S
C1242  H1248   1.113   .     S
C1242  C1243   1.530   .     S
C1242  H1247   1.110   .     S
C1243  H1244   1.111   .     S
C1243  H1246   1.109   .     S
C1243  H1245   1.107   .     S
C1251  C1252   1.537   .     S
C1251  H1260   1.113   .     S
C1251  H1259   1.091   .     S
C1252  C1253   1.527   .     S
C1252  H1258   1.110   .     S
C1252  H1257   1.110   .     S
C1253  H1254   1.111   .     S
C1253  H1255   1.111   .     S
C1253  H1508   1.111   .     S
O1261  Cu1273  1.959   .     S
O1261  C1433   1.298   1_455 S
O1262  Cu1274  1.959   .     S
O1262  C1350   1.298   .     S
O1263  Cu1274  1.950   .     S
O1263  C1265   1.294   .     A
O1264  Cu1273  1.950   .     S
O1264  C1266   1.294   .     A
C1265  O1345   1.298   .     S
C1265  C1394   1.445   .     S
C1266  O1430   1.298   1_455 S
C1266  C1477   1.444   1_455 S
O1267  Cu1273  1.951   .     S
O1267  C1439   1.305   1_455 S
O1268  Cu1274  1.951   .     S
O1268  C1356   1.305   .     S
O1269  Cu1274  1.939   .     S
O1269  C1271   1.301   .     A
O1270  C1272   1.300   .     A
O1270  Cu1273  1.939   .     S
C1271  C1275   1.471   .     S
C1271  O1351   1.305   .     S
C1272  C1276   1.468   .     S
C1272  O1436   1.305   1_455 S
Cu1273 N1317   2.030   .     S
Cu1273 Cu1442  2.701   1_455 S
Cu1274 N1318   2.030   .     S
Cu1274 Cu1357  2.701   .     S
C1275  C1279   1.400   .     A
C1275  C1281   1.399   .     A
C1276  C1280   1.399   .     A
C1276  C1282   1.403   .     A
C1277  H1299   1.083   .     S
C1277  C1285   1.404   .     A
C1277  C1279   1.395   .     A
C1278  C1286   1.403   .     A
C1278  H1300   1.083   .     S
C1278  C1280   1.391   .     A
C1279  H1382   1.083   .     S
C1280  H1465   1.083   1_455 S
C1281  H1296   1.078   .     S
C1281  C1283   1.407   .     A
C1282  H1295   1.076   .     S
C1282  C1284   1.406   .     A
C1283  C1287   1.422   .     A
C1283  C1285   1.415   .     A
C1284  C1286   1.419   .     A
C1284  C1288   1.428   .     A
C1285  C535    1.394   1_556 S
C1287  C1290   1.410   .     A
C1287  C532    1.422   1_556 S
C1288  C1289   1.416   .     A
C1289  H1301   1.078   .     S
C1289  C1291   1.391   .     A
C1290  C1292   1.385   .     A
C1290  H1302   1.075   .     S
C1291  H1293   1.084   .     S
C1292  H1294   1.083   .     S
C1292  C530    1.390   1_556 S
H1297  C1364   1.083   .     S
H1298  C1447   1.083   1_455 S
C1303  N1319   1.439   .     S
C1303  C1394   1.410   .     S
C1304  N1322   1.441   .     S
C1304  C802    1.392   1_565 S
C1304  C1477   1.412   1_455 S
C1305  H1307   1.084   .     S
C1305  C1309   1.397   .     A
C1305  C799    1.390   1_565 S
C1306  H1308   1.084   .     S
C1306  C1310   1.397   .     A
C1309  C1388   1.412   .     S
C1309  C1350   1.444   .     S
C1310  C1433   1.445   1_455 S
C1310  C1471   1.410   1_455 S
C1311  C1315   1.420   .     A
C1311  H1313   1.079   .     S
C1311  N1318   1.352   .     A
C1312  H1314   1.083   .     S
C1312  N1317   1.352   .     A
C1312  C1316   1.419   .     A
C1315  C1325   1.519   .     S
C1315  N1317   1.396   .     A
C1316  C1335   1.513   .     S
C1316  N1318   1.394   .     A
N1319  O1320   1.302   .     A
N1319  O1321   1.301   .     A
N1322  O1324   1.301   .     A
N1322  O1323   1.301   .     A
C1325  H1333   1.085   .     S
C1325  H1334   1.112   .     S
C1325  C1326   1.543   .     S
C1326  H1332   1.113   .     S
C1326  C1327   1.530   .     S
C1326  H1331   1.110   .     S
C1327  H1328   1.111   .     S
C1327  H1330   1.109   .     S
C1327  H1329   1.107   .     S
C1335  C1336   1.537   .     S
C1335  H1344   1.113   .     S
C1335  H1343   1.091   .     S
C1336  C1337   1.527   .     S
C1336  H1342   1.110   .     S
C1336  H1341   1.110   .     S
C1337  H1338   1.111   .     S
C1337  H1339   1.111   .     S
C1337  H836    1.111   1_565 S
O1345  Cu1357  1.959   .     S
O1346  Cu1358  1.959   .     S
O1346  C1434   1.298   .     S
O1347  Cu1358  1.950   .     S
O1347  C1349   1.294   .     A
O1348  Cu1357  1.950   .     S
O1348  C1350   1.294   .     A
C1349  O1429   1.298   .     S
C1349  C1478   1.445   .     S
O1351  Cu1357  1.951   .     S
O1352  Cu1358  1.951   .     S
O1352  C1440   1.305   .     S
O1353  Cu1358  1.939   .     S
O1353  C1355   1.301   .     A
O1354  C1356   1.300   .     A
O1354  Cu1357  1.939   .     S
C1355  C1359   1.471   .     S
C1355  O1435   1.305   .     S
C1356  C1360   1.468   .     S
Cu1357 N1401   2.030   .     S
Cu1358 N1402   2.030   .     S
Cu1358 Cu1441  2.701   .     S
C1359  C1363   1.400   .     A
C1359  C1365   1.399   .     A
C1360  C1364   1.399   .     A
C1360  C1366   1.403   .     A
C1361  H1383   1.083   .     S
C1361  C1369   1.404   .     A
C1361  C1363   1.395   .     A
C1362  C1370   1.403   .     A
C1362  H1384   1.083   .     S
C1362  C1364   1.391   .     A
C1363  H1466   1.083   .     S
C1365  H1380   1.078   .     S
C1365  C1367   1.407   .     A
C1366  H1379   1.076   .     S
C1366  C1368   1.406   .     A
C1367  C1371   1.422   .     A
C1367  C1369   1.415   .     A
C1368  C1370   1.419   .     A
C1368  C1372   1.428   .     A
C1369  C619    1.394   1_556 S
C1371  C1374   1.410   .     A
C1371  C616    1.422   1_556 S
C1372  C1373   1.416   .     A
C1373  H1385   1.078   .     S
C1373  C1375   1.391   .     A
C1374  C1376   1.385   .     A
C1374  H1386   1.075   .     S
C1375  H1377   1.084   .     S
C1376  H1378   1.083   .     S
C1376  C614    1.390   1_556 S
H1381  C1448   1.083   .     S
C1387  N1403   1.439   .     S
C1387  C1478   1.410   .     S
C1388  N1406   1.441   .     S
C1388  C886    1.392   1_565 S
C1389  H1391   1.084   .     S
C1389  C1393   1.397   .     A
C1389  C883    1.390   1_565 S
C1390  H1392   1.084   .     S
C1390  C1394   1.397   .     A
C1393  C1472   1.412   .     S
C1393  C1434   1.444   .     S
C1395  C1399   1.420   .     A
C1395  H1397   1.079   .     S
C1395  N1402   1.352   .     A
C1396  H1398   1.083   .     S
C1396  N1401   1.352   .     A
C1396  C1400   1.419   .     A
C1399  C1409   1.519   .     S
C1399  N1401   1.396   .     A
C1400  C1419   1.513   .     S
C1400  N1402   1.394   .     A
N1403  O1404   1.302   .     A
N1403  O1405   1.301   .     A
N1406  O1408   1.301   .     A
N1406  O1407   1.301   .     A
C1409  H1417   1.085   .     S
C1409  H1418   1.112   .     S
C1409  C1410   1.543   .     S
C1410  H1416   1.113   .     S
C1410  C1411   1.530   .     S
C1410  H1415   1.110   .     S
C1411  H1412   1.111   .     S
C1411  H1414   1.109   .     S
C1411  H1413   1.107   .     S
C1419  C1420   1.537   .     S
C1419  H1428   1.113   .     S
C1419  H1427   1.091   .     S
C1420  C1421   1.527   .     S
C1420  H1426   1.110   .     S
C1420  H1425   1.110   .     S
C1421  H1422   1.111   .     S
C1421  H1423   1.111   .     S
C1421  H920    1.111   1_565 S
O1429  Cu1441  1.959   .     S
O1430  Cu1442  1.959   .     S
O1430  C1266   1.298   1_655 S
O1431  Cu1442  1.950   .     S
O1431  C1433   1.294   .     A
O1432  Cu1441  1.950   .     S
O1432  C1434   1.294   .     A
C1433  O1261   1.298   1_655 S
C1433  C1310   1.445   1_655 S
O1435  Cu1441  1.951   .     S
O1436  Cu1442  1.951   .     S
O1436  C1272   1.305   1_655 S
O1437  Cu1442  1.939   .     S
O1437  C1439   1.301   .     A
O1438  C1440   1.300   .     A
O1438  Cu1441  1.939   .     S
C1439  C1443   1.471   .     S
C1439  O1267   1.305   1_655 S
C1440  C1444   1.468   .     S
Cu1441 N1485   2.030   .     S
Cu1442 N1486   2.030   .     S
Cu1442 Cu1273  2.701   1_655 S
C1443  C1447   1.400   .     A
C1443  C1449   1.399   .     A
C1444  C1448   1.399   .     A
C1444  C1450   1.403   .     A
C1445  H1467   1.083   .     S
C1445  C1453   1.404   .     A
C1445  C1447   1.395   .     A
C1446  C1454   1.403   .     A
C1446  H1468   1.083   .     S
C1446  C1448   1.391   .     A
C1447  H1298   1.083   1_655 S
C1449  H1464   1.078   .     S
C1449  C1451   1.407   .     A
C1450  H1463   1.076   .     S
C1450  C1452   1.406   .     A
C1451  C1455   1.422   .     A
C1451  C1453   1.415   .     A
C1452  C1454   1.419   .     A
C1452  C1456   1.428   .     A
C1453  C703    1.394   1_556 S
C1455  C1458   1.410   .     A
C1455  C700    1.422   1_556 S
C1456  C1457   1.416   .     A
C1457  H1469   1.078   .     S
C1457  C1459   1.391   .     A
C1458  C1460   1.385   .     A
C1458  H1470   1.075   .     S
C1459  H1461   1.084   .     S
C1460  H1462   1.083   .     S
C1460  C698    1.390   1_556 S
H1465  C1280   1.083   1_655 S
C1471  N1487   1.439   .     S
C1471  C1310   1.410   1_655 S
C1472  N1490   1.441   .     S
C1472  C970    1.392   1_565 S
C1473  H1475   1.084   .     S
C1473  C1477   1.397   .     A
C1473  C967    1.390   1_565 S
C1474  H1476   1.084   .     S
C1474  C1478   1.397   .     A
C1477  C1304   1.412   1_655 S
C1477  C1266   1.444   1_655 S
C1479  C1483   1.420   .     A
C1479  H1481   1.079   .     S
C1479  N1486   1.352   .     A
C1480  H1482   1.083   .     S
C1480  N1485   1.352   .     A
C1480  C1484   1.419   .     A
C1483  C1493   1.519   .     S
C1483  N1485   1.396   .     A
C1484  C1503   1.513   .     S
C1484  N1486   1.394   .     A
N1487  O1488   1.302   .     A
N1487  O1489   1.301   .     A
N1490  O1492   1.301   .     A
N1490  O1491   1.301   .     A
C1493  H1501   1.085   .     S
C1493  H1502   1.112   .     S
C1493  C1494   1.543   .     S
C1494  H1500   1.113   .     S
C1494  C1495   1.530   .     S
C1494  H1499   1.110   .     S
C1495  H1496   1.111   .     S
C1495  H1498   1.109   .     S
C1495  H1497   1.107   .     S
C1503  C1504   1.537   .     S
C1503  H1512   1.113   .     S
C1503  H1511   1.091   .     S
C1504  C1505   1.527   .     S
C1504  H1510   1.110   .     S
C1504  H1509   1.110   .     S
C1505  H1506   1.111   .     S
C1505  H1507   1.111   .     S
C1505  H1004   1.111   1_565 S
