data_str_m2_o1_o18_pcu_sym.18
_audit_creation_date              2020-01-03
_audit_creation_method            'Materials Studio'
_symmetry_space_group_name_H-M    'P1'
_symmetry_Int_Tables_number       1
_symmetry_cell_setting            triclinic
loop_
_symmetry_equiv_pos_as_xyz
  x,y,z
_cell_length_a                    28.8041
_cell_length_b                    32.4847
_cell_length_c                    31.8951
_cell_angle_alpha                 89.8943
_cell_angle_beta                  72.0780
_cell_angle_gamma                 90.0109
loop_
_atom_site_label
_atom_site_type_symbol
_atom_site_fract_x
_atom_site_fract_y
_atom_site_fract_z
_atom_site_U_iso_or_equiv
_atom_site_adp_type
_atom_site_occupancy
C1     C     0.33331   0.08744   0.25003   0.00000  Uiso   1.00
C2     C     0.04211   0.02131   0.25021   0.00000  Uiso   1.00
C3     C     0.00002   0.29056   0.24997   0.00000  Uiso   1.00
C4     C     0.33331   0.04278   0.25003   0.00000  Uiso   1.00
C5     C     0.18136   0.14319   0.27937   0.00000  Uiso   1.00
C6     C     0.15197   0.19014   0.22063   0.00000  Uiso   1.00
C7     C     0.13196   0.14318   0.27935   0.00000  Uiso   1.00
C8     C     0.20137   0.19015   0.22065   0.00000  Uiso   1.00
C9     C     0.30524   0.16533   0.33535   0.00000  Uiso   1.00
C10    C     0.02809   0.16538   0.16465   0.00000  Uiso   1.00
C11    C     0.28863   0.15794   0.38261   0.00000  Uiso   1.00
C12    C     0.00002   0.24589   0.24997   0.00000  Uiso   1.00
C13    C     0.04469   0.15803   0.11741   0.00000  Uiso   1.00
C14    C     0.30198   0.12650   0.44673   0.00000  Uiso   1.00
C15    C     0.03128   0.12656   0.05344   0.00000  Uiso   1.00
C16    C     0.31885   0.13673   0.40203   0.00000  Uiso   1.00
C17    C     0.01443   0.13681   0.09808   0.00000  Uiso   1.00
C18    C     0.24014   0.16589   0.40701   0.00000  Uiso   1.00
C19    C     0.09319   0.16599   0.09296   0.00000  Uiso   1.00
C20    C     0.22324   0.15636   0.45203   0.00000  Uiso   1.00
C21    C     0.11009   0.15642   0.04799   0.00000  Uiso   1.00
C22    C     0.25682   0.14194   0.47278   0.00000  Uiso   1.00
C23    C     0.19635   0.15199   0.04386   0.00000  Uiso   1.00
C24    C     0.07647   0.14197   0.02731   0.00000  Uiso   1.00
C25    C     0.17338   0.15754   0.47665   0.00000  Uiso   1.00
C26    C     0.15995   0.15758   0.02336   0.00000  Uiso   1.00
C27    C     0.13698   0.15189   0.45618   0.00000  Uiso   1.00
C28    C     0.24341   0.14141   0.01879   0.00000  Uiso   1.00
C29    C     0.08989   0.14136   0.48131   0.00000  Uiso   1.00
C30    C     0.29120   0.02129   0.24983   0.00000  Uiso   1.00
C31    C     0.04213   0.31205   0.25017   0.00000  Uiso   1.00
C32    C     0.29123   0.31203   0.24979   0.00000  Uiso   1.00
Cu33   Cu    0.04689   0.16667   0.25000   0.00000  Uiso   1.00
Cu34   Cu    0.28645   0.16666   0.25000   0.00000  Uiso   1.00
H35    H     0.26923   0.13360   0.03564   0.00000  Uiso   1.00
H36    H     0.07509   0.29607   0.25030   0.00000  Uiso   1.00
H37    H     0.25829   0.29602   0.24961   0.00000  Uiso   1.00
H38    H     0.07504   0.03732   0.25039   0.00000  Uiso   1.00
H39    H     0.19174   0.12426   0.30296   0.00000  Uiso   1.00
H40    H     0.14159   0.20907   0.19704   0.00000  Uiso   1.00
H41    H     0.10551   0.12421   0.30291   0.00000  Uiso   1.00
H42    H     0.22782   0.20912   0.19710   0.00000  Uiso   1.00
H43    H     0.01903   0.08493   0.43970   0.00000  Uiso   1.00
H44    H     0.31414   0.08500   0.06067   0.00000  Uiso   1.00
H45    H     0.06406   0.13351   0.46450   0.00000  Uiso   1.00
H46    H     0.11718   0.18029   0.10896   0.00000  Uiso   1.00
H47    H     0.21617   0.18017   0.39095   0.00000  Uiso   1.00
H48    H     0.31222   0.12610   0.11817   0.00000  Uiso   1.00
H49    H     0.02104   0.12602   0.38198   0.00000  Uiso   1.00
H50    H     0.18785   0.15030   0.07928   0.00000  Uiso   1.00
H51    H     0.14548   0.15012   0.42076   0.00000  Uiso   1.00
H52    H     0.25825   0.03728   0.24969   0.00000  Uiso   1.00
N53    N     0.11736   0.16668   0.24999   0.00000  Uiso   1.00
N54    N     0.21597   0.16666   0.25001   0.00000  Uiso   1.00
O55    O     0.03958   0.10655   0.25000   0.00000  Uiso   1.00
O56    O     0.00799   0.09698   0.03654   0.00000  Uiso   1.00
O57    O     0.29375   0.22678   0.25000   0.00000  Uiso   1.00
O58    O     0.29372   0.10654   0.25000   0.00000  Uiso   1.00
O59    O     0.03961   0.22679   0.24999   0.00000  Uiso   1.00
O60    O     0.01852   0.16668   0.31491   0.00000  Uiso   1.00
O61    O     0.31481   0.16666   0.18508   0.00000  Uiso   1.00
O62    O     0.27267   0.16667   0.31492   0.00000  Uiso   1.00
O63    O     0.06067   0.16667   0.18508   0.00000  Uiso   1.00
O64    O     0.32521   0.09693   0.46377   0.00000  Uiso   1.00
C65    C     0.66664   0.08744   0.25003   0.00000  Uiso   1.00
C66    C     0.37544   0.02131   0.25021   0.00000  Uiso   1.00
C67    C     0.33335   0.29056   0.24997   0.00000  Uiso   1.00
C68    C     0.66665   0.04278   0.25003   0.00000  Uiso   1.00
C69    C     0.51469   0.14319   0.27937   0.00000  Uiso   1.00
C70    C     0.48531   0.19014   0.22063   0.00000  Uiso   1.00
C71    C     0.46529   0.14318   0.27935   0.00000  Uiso   1.00
C72    C     0.53471   0.19015   0.22065   0.00000  Uiso   1.00
C73    C     0.63857   0.16533   0.33535   0.00000  Uiso   1.00
C74    C     0.36143   0.16538   0.16465   0.00000  Uiso   1.00
C75    C     0.62196   0.15794   0.38261   0.00000  Uiso   1.00
C76    C     0.33336   0.24589   0.24997   0.00000  Uiso   1.00
C77    C     0.37803   0.15803   0.11741   0.00000  Uiso   1.00
C78    C     0.63531   0.12650   0.44673   0.00000  Uiso   1.00
C79    C     0.36462   0.12656   0.05344   0.00000  Uiso   1.00
C80    C     0.65218   0.13673   0.40203   0.00000  Uiso   1.00
C81    C     0.34777   0.13681   0.09808   0.00000  Uiso   1.00
C82    C     0.57348   0.16589   0.40701   0.00000  Uiso   1.00
C83    C     0.42653   0.16599   0.09296   0.00000  Uiso   1.00
C84    C     0.55657   0.15636   0.45203   0.00000  Uiso   1.00
C85    C     0.44342   0.15642   0.04799   0.00000  Uiso   1.00
C86    C     0.59016   0.14194   0.47278   0.00000  Uiso   1.00
C87    C     0.52968   0.15199   0.04386   0.00000  Uiso   1.00
C88    C     0.40981   0.14197   0.02731   0.00000  Uiso   1.00
C89    C     0.50672   0.15754   0.47665   0.00000  Uiso   1.00
C90    C     0.49328   0.15758   0.02336   0.00000  Uiso   1.00
C91    C     0.47031   0.15189   0.45618   0.00000  Uiso   1.00
C92    C     0.57674   0.14141   0.01879   0.00000  Uiso   1.00
C93    C     0.42323   0.14136   0.48131   0.00000  Uiso   1.00
C94    C     0.62454   0.02129   0.24983   0.00000  Uiso   1.00
C95    C     0.37546   0.31205   0.25017   0.00000  Uiso   1.00
C96    C     0.62456   0.31203   0.24979   0.00000  Uiso   1.00
Cu97   Cu    0.38022   0.16667   0.25000   0.00000  Uiso   1.00
Cu98   Cu    0.61978   0.16666   0.25000   0.00000  Uiso   1.00
H99    H     0.60257   0.13360   0.03564   0.00000  Uiso   1.00
H100   H     0.40842   0.29607   0.25030   0.00000  Uiso   1.00
H101   H     0.59162   0.29602   0.24961   0.00000  Uiso   1.00
H102   H     0.40837   0.03732   0.25039   0.00000  Uiso   1.00
H103   H     0.52507   0.12426   0.30296   0.00000  Uiso   1.00
H104   H     0.47492   0.20907   0.19704   0.00000  Uiso   1.00
H105   H     0.43884   0.12421   0.30291   0.00000  Uiso   1.00
H106   H     0.56115   0.20912   0.19710   0.00000  Uiso   1.00
H107   H     0.35236   0.08493   0.43970   0.00000  Uiso   1.00
H108   H     0.64747   0.08500   0.06067   0.00000  Uiso   1.00
H109   H     0.39739   0.13351   0.46450   0.00000  Uiso   1.00
H110   H     0.45051   0.18029   0.10896   0.00000  Uiso   1.00
H111   H     0.54951   0.18017   0.39095   0.00000  Uiso   1.00
H112   H     0.64556   0.12610   0.11817   0.00000  Uiso   1.00
H113   H     0.35437   0.12602   0.38198   0.00000  Uiso   1.00
H114   H     0.52118   0.15030   0.07928   0.00000  Uiso   1.00
H115   H     0.47882   0.15012   0.42076   0.00000  Uiso   1.00
H116   H     0.59159   0.03728   0.24969   0.00000  Uiso   1.00
N117   N     0.45069   0.16668   0.24999   0.00000  Uiso   1.00
N118   N     0.54931   0.16666   0.25001   0.00000  Uiso   1.00
O119   O     0.37291   0.10655   0.25000   0.00000  Uiso   1.00
O120   O     0.34133   0.09698   0.03654   0.00000  Uiso   1.00
O121   O     0.62709   0.22678   0.25000   0.00000  Uiso   1.00
O122   O     0.62706   0.10654   0.25000   0.00000  Uiso   1.00
O123   O     0.37294   0.22679   0.24999   0.00000  Uiso   1.00
O124   O     0.35186   0.16668   0.31491   0.00000  Uiso   1.00
O125   O     0.64814   0.16666   0.18508   0.00000  Uiso   1.00
O126   O     0.60600   0.16667   0.31492   0.00000  Uiso   1.00
O127   O     0.39400   0.16667   0.18508   0.00000  Uiso   1.00
O128   O     0.65854   0.09693   0.46377   0.00000  Uiso   1.00
C129   C     0.99998   0.08744   0.25003   0.00000  Uiso   1.00
C130   C     0.70877   0.02131   0.25021   0.00000  Uiso   1.00
C131   C     0.66669   0.29056   0.24997   0.00000  Uiso   1.00
C132   C     0.99998   0.04278   0.25003   0.00000  Uiso   1.00
C133   C     0.84803   0.14319   0.27937   0.00000  Uiso   1.00
C134   C     0.81864   0.19014   0.22063   0.00000  Uiso   1.00
C135   C     0.79862   0.14318   0.27935   0.00000  Uiso   1.00
C136   C     0.86804   0.19015   0.22065   0.00000  Uiso   1.00
C137   C     0.97191   0.16533   0.33535   0.00000  Uiso   1.00
C138   C     0.69476   0.16538   0.16465   0.00000  Uiso   1.00
C139   C     0.95530   0.15794   0.38261   0.00000  Uiso   1.00
C140   C     0.66669   0.24589   0.24997   0.00000  Uiso   1.00
C141   C     0.71136   0.15803   0.11741   0.00000  Uiso   1.00
C142   C     0.96865   0.12650   0.44673   0.00000  Uiso   1.00
C143   C     0.69795   0.12656   0.05344   0.00000  Uiso   1.00
C144   C     0.98552   0.13673   0.40203   0.00000  Uiso   1.00
C145   C     0.68110   0.13681   0.09808   0.00000  Uiso   1.00
C146   C     0.90681   0.16589   0.40701   0.00000  Uiso   1.00
C147   C     0.75986   0.16599   0.09296   0.00000  Uiso   1.00
C148   C     0.88990   0.15636   0.45203   0.00000  Uiso   1.00
C149   C     0.77675   0.15642   0.04799   0.00000  Uiso   1.00
C150   C     0.92349   0.14194   0.47278   0.00000  Uiso   1.00
C151   C     0.86302   0.15199   0.04386   0.00000  Uiso   1.00
C152   C     0.74314   0.14197   0.02731   0.00000  Uiso   1.00
C153   C     0.84005   0.15754   0.47665   0.00000  Uiso   1.00
C154   C     0.82661   0.15758   0.02336   0.00000  Uiso   1.00
C155   C     0.80364   0.15189   0.45618   0.00000  Uiso   1.00
C156   C     0.91008   0.14141   0.01879   0.00000  Uiso   1.00
C157   C     0.75656   0.14136   0.48131   0.00000  Uiso   1.00
C158   C     0.95787   0.02129   0.24983   0.00000  Uiso   1.00
C159   C     0.70880   0.31205   0.25017   0.00000  Uiso   1.00
C160   C     0.95789   0.31203   0.24979   0.00000  Uiso   1.00
Cu161  Cu    0.71355   0.16667   0.25000   0.00000  Uiso   1.00
Cu162  Cu    0.95311   0.16666   0.25000   0.00000  Uiso   1.00
H163   H     0.93590   0.13360   0.03564   0.00000  Uiso   1.00
H164   H     0.74175   0.29607   0.25030   0.00000  Uiso   1.00
H165   H     0.92496   0.29602   0.24961   0.00000  Uiso   1.00
H166   H     0.74171   0.03732   0.25039   0.00000  Uiso   1.00
H167   H     0.85841   0.12426   0.30296   0.00000  Uiso   1.00
H168   H     0.80826   0.20907   0.19704   0.00000  Uiso   1.00
H169   H     0.77218   0.12421   0.30291   0.00000  Uiso   1.00
H170   H     0.89448   0.20912   0.19710   0.00000  Uiso   1.00
H171   H     0.68570   0.08493   0.43970   0.00000  Uiso   1.00
H172   H     0.98081   0.08500   0.06067   0.00000  Uiso   1.00
H173   H     0.73073   0.13351   0.46450   0.00000  Uiso   1.00
H174   H     0.78385   0.18029   0.10896   0.00000  Uiso   1.00
H175   H     0.88284   0.18017   0.39095   0.00000  Uiso   1.00
H176   H     0.97889   0.12610   0.11817   0.00000  Uiso   1.00
H177   H     0.68771   0.12602   0.38198   0.00000  Uiso   1.00
H178   H     0.85452   0.15030   0.07928   0.00000  Uiso   1.00
H179   H     0.81215   0.15012   0.42076   0.00000  Uiso   1.00
H180   H     0.92492   0.03728   0.24969   0.00000  Uiso   1.00
N181   N     0.78403   0.16668   0.24999   0.00000  Uiso   1.00
N182   N     0.88264   0.16666   0.25001   0.00000  Uiso   1.00
O183   O     0.70625   0.10655   0.25000   0.00000  Uiso   1.00
O184   O     0.67466   0.09698   0.03654   0.00000  Uiso   1.00
O185   O     0.96042   0.22678   0.25000   0.00000  Uiso   1.00
O186   O     0.96039   0.10654   0.25000   0.00000  Uiso   1.00
O187   O     0.70628   0.22679   0.24999   0.00000  Uiso   1.00
O188   O     0.68519   0.16668   0.31491   0.00000  Uiso   1.00
O189   O     0.98148   0.16666   0.18508   0.00000  Uiso   1.00
O190   O     0.93933   0.16667   0.31492   0.00000  Uiso   1.00
O191   O     0.72733   0.16667   0.18508   0.00000  Uiso   1.00
O192   O     0.99187   0.09693   0.46377   0.00000  Uiso   1.00
C193   C     0.33331   0.42078   0.25003   0.00000  Uiso   1.00
C194   C     0.04211   0.35465   0.25021   0.00000  Uiso   1.00
C195   C     0.00002   0.62389   0.24997   0.00000  Uiso   1.00
C196   C     0.33331   0.37612   0.25003   0.00000  Uiso   1.00
C197   C     0.18136   0.47652   0.27937   0.00000  Uiso   1.00
C198   C     0.15197   0.52348   0.22063   0.00000  Uiso   1.00
C199   C     0.13196   0.47651   0.27935   0.00000  Uiso   1.00
C200   C     0.20137   0.52348   0.22065   0.00000  Uiso   1.00
C201   C     0.30524   0.49867   0.33535   0.00000  Uiso   1.00
C202   C     0.02809   0.49871   0.16465   0.00000  Uiso   1.00
C203   C     0.28863   0.49128   0.38261   0.00000  Uiso   1.00
C204   C     0.00002   0.57922   0.24997   0.00000  Uiso   1.00
C205   C     0.04469   0.49136   0.11741   0.00000  Uiso   1.00
C206   C     0.30198   0.45983   0.44673   0.00000  Uiso   1.00
C207   C     0.03128   0.45989   0.05344   0.00000  Uiso   1.00
C208   C     0.31885   0.47006   0.40203   0.00000  Uiso   1.00
C209   C     0.01443   0.47015   0.09808   0.00000  Uiso   1.00
C210   C     0.24014   0.49923   0.40701   0.00000  Uiso   1.00
C211   C     0.09319   0.49933   0.09296   0.00000  Uiso   1.00
C212   C     0.22324   0.48969   0.45203   0.00000  Uiso   1.00
C213   C     0.11009   0.48976   0.04799   0.00000  Uiso   1.00
C214   C     0.25682   0.47527   0.47278   0.00000  Uiso   1.00
C215   C     0.19635   0.48532   0.04386   0.00000  Uiso   1.00
C216   C     0.07647   0.47530   0.02731   0.00000  Uiso   1.00
C217   C     0.17338   0.49087   0.47665   0.00000  Uiso   1.00
C218   C     0.15995   0.49092   0.02336   0.00000  Uiso   1.00
C219   C     0.13698   0.48522   0.45618   0.00000  Uiso   1.00
C220   C     0.24341   0.47474   0.01879   0.00000  Uiso   1.00
C221   C     0.08989   0.47470   0.48131   0.00000  Uiso   1.00
C222   C     0.29120   0.35462   0.24983   0.00000  Uiso   1.00
C223   C     0.04213   0.64539   0.25017   0.00000  Uiso   1.00
C224   C     0.29123   0.64536   0.24979   0.00000  Uiso   1.00
Cu225  Cu    0.04689   0.50001   0.25000   0.00000  Uiso   1.00
Cu226  Cu    0.28645   0.49999   0.25000   0.00000  Uiso   1.00
H227   H     0.26923   0.46693   0.03564   0.00000  Uiso   1.00
H228   H     0.07509   0.62940   0.25030   0.00000  Uiso   1.00
H229   H     0.25829   0.62936   0.24961   0.00000  Uiso   1.00
H230   H     0.07504   0.37065   0.25039   0.00000  Uiso   1.00
H231   H     0.19174   0.45759   0.30296   0.00000  Uiso   1.00
H232   H     0.14159   0.54240   0.19704   0.00000  Uiso   1.00
H233   H     0.10551   0.45755   0.30291   0.00000  Uiso   1.00
H234   H     0.22782   0.54245   0.19710   0.00000  Uiso   1.00
H235   H     0.01903   0.41827   0.43970   0.00000  Uiso   1.00
H236   H     0.31414   0.41833   0.06067   0.00000  Uiso   1.00
H237   H     0.06406   0.46684   0.46450   0.00000  Uiso   1.00
H238   H     0.11718   0.51362   0.10896   0.00000  Uiso   1.00
H239   H     0.21617   0.51350   0.39095   0.00000  Uiso   1.00
H240   H     0.31222   0.45944   0.11817   0.00000  Uiso   1.00
H241   H     0.02104   0.45935   0.38198   0.00000  Uiso   1.00
H242   H     0.18785   0.48363   0.07928   0.00000  Uiso   1.00
H243   H     0.14548   0.48345   0.42076   0.00000  Uiso   1.00
H244   H     0.25825   0.37061   0.24969   0.00000  Uiso   1.00
N245   N     0.11736   0.50001   0.24999   0.00000  Uiso   1.00
N246   N     0.21597   0.49999   0.25001   0.00000  Uiso   1.00
O247   O     0.03958   0.43989   0.25000   0.00000  Uiso   1.00
O248   O     0.00799   0.43031   0.03654   0.00000  Uiso   1.00
O249   O     0.29375   0.56011   0.25000   0.00000  Uiso   1.00
O250   O     0.29372   0.43988   0.25000   0.00000  Uiso   1.00
O251   O     0.03961   0.56012   0.24999   0.00000  Uiso   1.00
O252   O     0.01852   0.50001   0.31491   0.00000  Uiso   1.00
O253   O     0.31481   0.49999   0.18508   0.00000  Uiso   1.00
O254   O     0.27267   0.50000   0.31492   0.00000  Uiso   1.00
O255   O     0.06067   0.50000   0.18508   0.00000  Uiso   1.00
O256   O     0.32521   0.43026   0.46377   0.00000  Uiso   1.00
C257   C     0.66664   0.42078   0.25003   0.00000  Uiso   1.00
C258   C     0.37544   0.35465   0.25021   0.00000  Uiso   1.00
C259   C     0.33335   0.62389   0.24997   0.00000  Uiso   1.00
C260   C     0.66665   0.37612   0.25003   0.00000  Uiso   1.00
C261   C     0.51469   0.47652   0.27937   0.00000  Uiso   1.00
C262   C     0.48531   0.52348   0.22063   0.00000  Uiso   1.00
C263   C     0.46529   0.47651   0.27935   0.00000  Uiso   1.00
C264   C     0.53471   0.52348   0.22065   0.00000  Uiso   1.00
C265   C     0.63857   0.49867   0.33535   0.00000  Uiso   1.00
C266   C     0.36143   0.49871   0.16465   0.00000  Uiso   1.00
C267   C     0.62196   0.49128   0.38261   0.00000  Uiso   1.00
C268   C     0.33336   0.57922   0.24997   0.00000  Uiso   1.00
C269   C     0.37803   0.49136   0.11741   0.00000  Uiso   1.00
C270   C     0.63531   0.45983   0.44673   0.00000  Uiso   1.00
C271   C     0.36462   0.45989   0.05344   0.00000  Uiso   1.00
C272   C     0.65218   0.47006   0.40203   0.00000  Uiso   1.00
C273   C     0.34777   0.47015   0.09808   0.00000  Uiso   1.00
C274   C     0.57348   0.49923   0.40701   0.00000  Uiso   1.00
C275   C     0.42653   0.49933   0.09296   0.00000  Uiso   1.00
C276   C     0.55657   0.48969   0.45203   0.00000  Uiso   1.00
C277   C     0.44342   0.48976   0.04799   0.00000  Uiso   1.00
C278   C     0.59016   0.47527   0.47278   0.00000  Uiso   1.00
C279   C     0.52968   0.48532   0.04386   0.00000  Uiso   1.00
C280   C     0.40981   0.47530   0.02731   0.00000  Uiso   1.00
C281   C     0.50672   0.49087   0.47665   0.00000  Uiso   1.00
C282   C     0.49328   0.49092   0.02336   0.00000  Uiso   1.00
C283   C     0.47031   0.48522   0.45618   0.00000  Uiso   1.00
C284   C     0.57674   0.47474   0.01879   0.00000  Uiso   1.00
C285   C     0.42323   0.47470   0.48131   0.00000  Uiso   1.00
C286   C     0.62454   0.35462   0.24983   0.00000  Uiso   1.00
C287   C     0.37546   0.64539   0.25017   0.00000  Uiso   1.00
C288   C     0.62456   0.64536   0.24979   0.00000  Uiso   1.00
Cu289  Cu    0.38022   0.50001   0.25000   0.00000  Uiso   1.00
Cu290  Cu    0.61978   0.49999   0.25000   0.00000  Uiso   1.00
H291   H     0.60257   0.46693   0.03564   0.00000  Uiso   1.00
H292   H     0.40842   0.62940   0.25030   0.00000  Uiso   1.00
H293   H     0.59162   0.62936   0.24961   0.00000  Uiso   1.00
H294   H     0.40837   0.37065   0.25039   0.00000  Uiso   1.00
H295   H     0.52507   0.45759   0.30296   0.00000  Uiso   1.00
H296   H     0.47492   0.54240   0.19704   0.00000  Uiso   1.00
H297   H     0.43884   0.45755   0.30291   0.00000  Uiso   1.00
H298   H     0.56115   0.54245   0.19710   0.00000  Uiso   1.00
H299   H     0.35236   0.41827   0.43970   0.00000  Uiso   1.00
H300   H     0.64747   0.41833   0.06067   0.00000  Uiso   1.00
H301   H     0.39739   0.46684   0.46450   0.00000  Uiso   1.00
H302   H     0.45051   0.51362   0.10896   0.00000  Uiso   1.00
H303   H     0.54951   0.51350   0.39095   0.00000  Uiso   1.00
H304   H     0.64556   0.45944   0.11817   0.00000  Uiso   1.00
H305   H     0.35437   0.45935   0.38198   0.00000  Uiso   1.00
H306   H     0.52118   0.48363   0.07928   0.00000  Uiso   1.00
H307   H     0.47882   0.48345   0.42076   0.00000  Uiso   1.00
H308   H     0.59159   0.37061   0.24969   0.00000  Uiso   1.00
N309   N     0.45069   0.50001   0.24999   0.00000  Uiso   1.00
N310   N     0.54931   0.49999   0.25001   0.00000  Uiso   1.00
O311   O     0.37291   0.43989   0.25000   0.00000  Uiso   1.00
O312   O     0.34133   0.43031   0.03654   0.00000  Uiso   1.00
O313   O     0.62709   0.56011   0.25000   0.00000  Uiso   1.00
O314   O     0.62706   0.43988   0.25000   0.00000  Uiso   1.00
O315   O     0.37294   0.56012   0.24999   0.00000  Uiso   1.00
O316   O     0.35186   0.50001   0.31491   0.00000  Uiso   1.00
O317   O     0.64814   0.49999   0.18508   0.00000  Uiso   1.00
O318   O     0.60600   0.50000   0.31492   0.00000  Uiso   1.00
O319   O     0.39400   0.50000   0.18508   0.00000  Uiso   1.00
O320   O     0.65854   0.43026   0.46377   0.00000  Uiso   1.00
C321   C     0.99998   0.42078   0.25003   0.00000  Uiso   1.00
C322   C     0.70877   0.35465   0.25021   0.00000  Uiso   1.00
C323   C     0.66669   0.62389   0.24997   0.00000  Uiso   1.00
C324   C     0.99998   0.37612   0.25003   0.00000  Uiso   1.00
C325   C     0.84803   0.47652   0.27937   0.00000  Uiso   1.00
C326   C     0.81864   0.52348   0.22063   0.00000  Uiso   1.00
C327   C     0.79862   0.47651   0.27935   0.00000  Uiso   1.00
C328   C     0.86804   0.52348   0.22065   0.00000  Uiso   1.00
C329   C     0.97191   0.49867   0.33535   0.00000  Uiso   1.00
C330   C     0.69476   0.49871   0.16465   0.00000  Uiso   1.00
C331   C     0.95530   0.49128   0.38261   0.00000  Uiso   1.00
C332   C     0.66669   0.57922   0.24997   0.00000  Uiso   1.00
C333   C     0.71136   0.49136   0.11741   0.00000  Uiso   1.00
C334   C     0.96865   0.45983   0.44673   0.00000  Uiso   1.00
C335   C     0.69795   0.45989   0.05344   0.00000  Uiso   1.00
C336   C     0.98552   0.47006   0.40203   0.00000  Uiso   1.00
C337   C     0.68110   0.47015   0.09808   0.00000  Uiso   1.00
C338   C     0.90681   0.49923   0.40701   0.00000  Uiso   1.00
C339   C     0.75986   0.49933   0.09296   0.00000  Uiso   1.00
C340   C     0.88990   0.48969   0.45203   0.00000  Uiso   1.00
C341   C     0.77675   0.48976   0.04799   0.00000  Uiso   1.00
C342   C     0.92349   0.47527   0.47278   0.00000  Uiso   1.00
C343   C     0.86302   0.48532   0.04386   0.00000  Uiso   1.00
C344   C     0.74314   0.47530   0.02731   0.00000  Uiso   1.00
C345   C     0.84005   0.49087   0.47665   0.00000  Uiso   1.00
C346   C     0.82661   0.49092   0.02336   0.00000  Uiso   1.00
C347   C     0.80364   0.48522   0.45618   0.00000  Uiso   1.00
C348   C     0.91008   0.47474   0.01879   0.00000  Uiso   1.00
C349   C     0.75656   0.47470   0.48131   0.00000  Uiso   1.00
C350   C     0.95787   0.35462   0.24983   0.00000  Uiso   1.00
C351   C     0.70880   0.64539   0.25017   0.00000  Uiso   1.00
C352   C     0.95789   0.64536   0.24979   0.00000  Uiso   1.00
Cu353  Cu    0.71355   0.50001   0.25000   0.00000  Uiso   1.00
Cu354  Cu    0.95311   0.49999   0.25000   0.00000  Uiso   1.00
H355   H     0.93590   0.46693   0.03564   0.00000  Uiso   1.00
H356   H     0.74175   0.62940   0.25030   0.00000  Uiso   1.00
H357   H     0.92496   0.62936   0.24961   0.00000  Uiso   1.00
H358   H     0.74171   0.37065   0.25039   0.00000  Uiso   1.00
H359   H     0.85841   0.45759   0.30296   0.00000  Uiso   1.00
H360   H     0.80826   0.54240   0.19704   0.00000  Uiso   1.00
H361   H     0.77218   0.45755   0.30291   0.00000  Uiso   1.00
H362   H     0.89448   0.54245   0.19710   0.00000  Uiso   1.00
H363   H     0.68570   0.41827   0.43970   0.00000  Uiso   1.00
H364   H     0.98081   0.41833   0.06067   0.00000  Uiso   1.00
H365   H     0.73073   0.46684   0.46450   0.00000  Uiso   1.00
H366   H     0.78385   0.51362   0.10896   0.00000  Uiso   1.00
H367   H     0.88284   0.51350   0.39095   0.00000  Uiso   1.00
H368   H     0.97889   0.45944   0.11817   0.00000  Uiso   1.00
H369   H     0.68771   0.45935   0.38198   0.00000  Uiso   1.00
H370   H     0.85452   0.48363   0.07928   0.00000  Uiso   1.00
H371   H     0.81215   0.48345   0.42076   0.00000  Uiso   1.00
H372   H     0.92492   0.37061   0.24969   0.00000  Uiso   1.00
N373   N     0.78403   0.50001   0.24999   0.00000  Uiso   1.00
N374   N     0.88264   0.49999   0.25001   0.00000  Uiso   1.00
O375   O     0.70625   0.43989   0.25000   0.00000  Uiso   1.00
O376   O     0.67466   0.43031   0.03654   0.00000  Uiso   1.00
O377   O     0.96042   0.56011   0.25000   0.00000  Uiso   1.00
O378   O     0.96039   0.43988   0.25000   0.00000  Uiso   1.00
O379   O     0.70628   0.56012   0.24999   0.00000  Uiso   1.00
O380   O     0.68519   0.50001   0.31491   0.00000  Uiso   1.00
O381   O     0.98148   0.49999   0.18508   0.00000  Uiso   1.00
O382   O     0.93933   0.50000   0.31492   0.00000  Uiso   1.00
O383   O     0.72733   0.50000   0.18508   0.00000  Uiso   1.00
O384   O     0.99187   0.43026   0.46377   0.00000  Uiso   1.00
C385   C     0.33331   0.75411   0.25003   0.00000  Uiso   1.00
C386   C     0.04211   0.68798   0.25021   0.00000  Uiso   1.00
C387   C     0.00002   0.95722   0.24997   0.00000  Uiso   1.00
C388   C     0.33331   0.70945   0.25003   0.00000  Uiso   1.00
C389   C     0.18136   0.80985   0.27937   0.00000  Uiso   1.00
C390   C     0.15197   0.85681   0.22063   0.00000  Uiso   1.00
C391   C     0.13196   0.80985   0.27935   0.00000  Uiso   1.00
C392   C     0.20137   0.85682   0.22065   0.00000  Uiso   1.00
C393   C     0.30524   0.83200   0.33535   0.00000  Uiso   1.00
C394   C     0.02809   0.83205   0.16465   0.00000  Uiso   1.00
C395   C     0.28863   0.82461   0.38261   0.00000  Uiso   1.00
C396   C     0.00002   0.91256   0.24997   0.00000  Uiso   1.00
C397   C     0.04469   0.82469   0.11741   0.00000  Uiso   1.00
C398   C     0.30198   0.79317   0.44673   0.00000  Uiso   1.00
C399   C     0.03128   0.79322   0.05344   0.00000  Uiso   1.00
C400   C     0.31885   0.80340   0.40203   0.00000  Uiso   1.00
C401   C     0.01443   0.80348   0.09808   0.00000  Uiso   1.00
C402   C     0.24014   0.83256   0.40701   0.00000  Uiso   1.00
C403   C     0.09319   0.83266   0.09296   0.00000  Uiso   1.00
C404   C     0.22324   0.82302   0.45203   0.00000  Uiso   1.00
C405   C     0.11009   0.82309   0.04799   0.00000  Uiso   1.00
C406   C     0.25682   0.80860   0.47278   0.00000  Uiso   1.00
C407   C     0.19635   0.81865   0.04386   0.00000  Uiso   1.00
C408   C     0.07647   0.80864   0.02731   0.00000  Uiso   1.00
C409   C     0.17338   0.82421   0.47665   0.00000  Uiso   1.00
C410   C     0.15995   0.82425   0.02336   0.00000  Uiso   1.00
C411   C     0.13698   0.81856   0.45618   0.00000  Uiso   1.00
C412   C     0.24341   0.80808   0.01879   0.00000  Uiso   1.00
C413   C     0.08989   0.80803   0.48131   0.00000  Uiso   1.00
C414   C     0.29120   0.68796   0.24983   0.00000  Uiso   1.00
C415   C     0.04213   0.97872   0.25017   0.00000  Uiso   1.00
C416   C     0.29123   0.97870   0.24979   0.00000  Uiso   1.00
Cu417  Cu    0.04689   0.83334   0.25000   0.00000  Uiso   1.00
Cu418  Cu    0.28645   0.83333   0.25000   0.00000  Uiso   1.00
H419   H     0.26923   0.80026   0.03564   0.00000  Uiso   1.00
H420   H     0.07509   0.96273   0.25030   0.00000  Uiso   1.00
H421   H     0.25829   0.96269   0.24961   0.00000  Uiso   1.00
H422   H     0.07504   0.70399   0.25039   0.00000  Uiso   1.00
H423   H     0.19174   0.79093   0.30296   0.00000  Uiso   1.00
H424   H     0.14159   0.87574   0.19704   0.00000  Uiso   1.00
H425   H     0.10551   0.79088   0.30291   0.00000  Uiso   1.00
H426   H     0.22782   0.87578   0.19710   0.00000  Uiso   1.00
H427   H     0.01903   0.75160   0.43970   0.00000  Uiso   1.00
H428   H     0.31414   0.75166   0.06067   0.00000  Uiso   1.00
H429   H     0.06406   0.80018   0.46450   0.00000  Uiso   1.00
H430   H     0.11718   0.84696   0.10896   0.00000  Uiso   1.00
H431   H     0.21617   0.84684   0.39095   0.00000  Uiso   1.00
H432   H     0.31222   0.79277   0.11817   0.00000  Uiso   1.00
H433   H     0.02104   0.79268   0.38198   0.00000  Uiso   1.00
H434   H     0.18785   0.81697   0.07928   0.00000  Uiso   1.00
H435   H     0.14548   0.81678   0.42076   0.00000  Uiso   1.00
H436   H     0.25825   0.70394   0.24969   0.00000  Uiso   1.00
N437   N     0.11736   0.83334   0.24999   0.00000  Uiso   1.00
N438   N     0.21597   0.83332   0.25001   0.00000  Uiso   1.00
O439   O     0.03958   0.77322   0.25000   0.00000  Uiso   1.00
O440   O     0.00799   0.76364   0.03654   0.00000  Uiso   1.00
O441   O     0.29375   0.89345   0.25000   0.00000  Uiso   1.00
O442   O     0.29372   0.77321   0.25000   0.00000  Uiso   1.00
O443   O     0.03961   0.89346   0.24999   0.00000  Uiso   1.00
O444   O     0.01852   0.83334   0.31491   0.00000  Uiso   1.00
O445   O     0.31481   0.83332   0.18508   0.00000  Uiso   1.00
O446   O     0.27267   0.83333   0.31492   0.00000  Uiso   1.00
O447   O     0.06067   0.83333   0.18508   0.00000  Uiso   1.00
O448   O     0.32521   0.76360   0.46377   0.00000  Uiso   1.00
C449   C     0.66664   0.75411   0.25003   0.00000  Uiso   1.00
C450   C     0.37544   0.68798   0.25021   0.00000  Uiso   1.00
C451   C     0.33335   0.95722   0.24997   0.00000  Uiso   1.00
C452   C     0.66665   0.70945   0.25003   0.00000  Uiso   1.00
C453   C     0.51469   0.80985   0.27937   0.00000  Uiso   1.00
C454   C     0.48531   0.85681   0.22063   0.00000  Uiso   1.00
C455   C     0.46529   0.80985   0.27935   0.00000  Uiso   1.00
C456   C     0.53471   0.85682   0.22065   0.00000  Uiso   1.00
C457   C     0.63857   0.83200   0.33535   0.00000  Uiso   1.00
C458   C     0.36143   0.83205   0.16465   0.00000  Uiso   1.00
C459   C     0.62196   0.82461   0.38261   0.00000  Uiso   1.00
C460   C     0.33336   0.91256   0.24997   0.00000  Uiso   1.00
C461   C     0.37803   0.82469   0.11741   0.00000  Uiso   1.00
C462   C     0.63531   0.79317   0.44673   0.00000  Uiso   1.00
C463   C     0.36462   0.79322   0.05344   0.00000  Uiso   1.00
C464   C     0.65218   0.80340   0.40203   0.00000  Uiso   1.00
C465   C     0.34777   0.80348   0.09808   0.00000  Uiso   1.00
C466   C     0.57348   0.83256   0.40701   0.00000  Uiso   1.00
C467   C     0.42653   0.83266   0.09296   0.00000  Uiso   1.00
C468   C     0.55657   0.82302   0.45203   0.00000  Uiso   1.00
C469   C     0.44342   0.82309   0.04799   0.00000  Uiso   1.00
C470   C     0.59016   0.80860   0.47278   0.00000  Uiso   1.00
C471   C     0.52968   0.81865   0.04386   0.00000  Uiso   1.00
C472   C     0.40981   0.80864   0.02731   0.00000  Uiso   1.00
C473   C     0.50672   0.82421   0.47665   0.00000  Uiso   1.00
C474   C     0.49328   0.82425   0.02336   0.00000  Uiso   1.00
C475   C     0.47031   0.81856   0.45618   0.00000  Uiso   1.00
C476   C     0.57674   0.80808   0.01879   0.00000  Uiso   1.00
C477   C     0.42323   0.80803   0.48131   0.00000  Uiso   1.00
C478   C     0.62454   0.68796   0.24983   0.00000  Uiso   1.00
C479   C     0.37546   0.97872   0.25017   0.00000  Uiso   1.00
C480   C     0.62456   0.97870   0.24979   0.00000  Uiso   1.00
Cu481  Cu    0.38022   0.83334   0.25000   0.00000  Uiso   1.00
Cu482  Cu    0.61978   0.83333   0.25000   0.00000  Uiso   1.00
H483   H     0.60257   0.80026   0.03564   0.00000  Uiso   1.00
H484   H     0.40842   0.96273   0.25030   0.00000  Uiso   1.00
H485   H     0.59162   0.96269   0.24961   0.00000  Uiso   1.00
H486   H     0.40837   0.70399   0.25039   0.00000  Uiso   1.00
H487   H     0.52507   0.79093   0.30296   0.00000  Uiso   1.00
H488   H     0.47492   0.87574   0.19704   0.00000  Uiso   1.00
H489   H     0.43884   0.79088   0.30291   0.00000  Uiso   1.00
H490   H     0.56115   0.87578   0.19710   0.00000  Uiso   1.00
H491   H     0.35236   0.75160   0.43970   0.00000  Uiso   1.00
H492   H     0.64747   0.75166   0.06067   0.00000  Uiso   1.00
H493   H     0.39739   0.80018   0.46450   0.00000  Uiso   1.00
H494   H     0.45051   0.84696   0.10896   0.00000  Uiso   1.00
H495   H     0.54951   0.84684   0.39095   0.00000  Uiso   1.00
H496   H     0.64556   0.79277   0.11817   0.00000  Uiso   1.00
H497   H     0.35437   0.79268   0.38198   0.00000  Uiso   1.00
H498   H     0.52118   0.81697   0.07928   0.00000  Uiso   1.00
H499   H     0.47882   0.81678   0.42076   0.00000  Uiso   1.00
H500   H     0.59159   0.70394   0.24969   0.00000  Uiso   1.00
N501   N     0.45069   0.83334   0.24999   0.00000  Uiso   1.00
N502   N     0.54931   0.83332   0.25001   0.00000  Uiso   1.00
O503   O     0.37291   0.77322   0.25000   0.00000  Uiso   1.00
O504   O     0.34133   0.76364   0.03654   0.00000  Uiso   1.00
O505   O     0.62709   0.89345   0.25000   0.00000  Uiso   1.00
O506   O     0.62706   0.77321   0.25000   0.00000  Uiso   1.00
O507   O     0.37294   0.89346   0.24999   0.00000  Uiso   1.00
O508   O     0.35186   0.83334   0.31491   0.00000  Uiso   1.00
O509   O     0.64814   0.83332   0.18508   0.00000  Uiso   1.00
O510   O     0.60600   0.83333   0.31492   0.00000  Uiso   1.00
O511   O     0.39400   0.83333   0.18508   0.00000  Uiso   1.00
O512   O     0.65854   0.76360   0.46377   0.00000  Uiso   1.00
C513   C     0.99998   0.75411   0.25003   0.00000  Uiso   1.00
C514   C     0.70877   0.68798   0.25021   0.00000  Uiso   1.00
C515   C     0.66669   0.95722   0.24997   0.00000  Uiso   1.00
C516   C     0.99998   0.70945   0.25003   0.00000  Uiso   1.00
C517   C     0.84803   0.80985   0.27937   0.00000  Uiso   1.00
C518   C     0.81864   0.85681   0.22063   0.00000  Uiso   1.00
C519   C     0.79862   0.80985   0.27935   0.00000  Uiso   1.00
C520   C     0.86804   0.85682   0.22065   0.00000  Uiso   1.00
C521   C     0.97191   0.83200   0.33535   0.00000  Uiso   1.00
C522   C     0.69476   0.83205   0.16465   0.00000  Uiso   1.00
C523   C     0.95530   0.82461   0.38261   0.00000  Uiso   1.00
C524   C     0.66669   0.91256   0.24997   0.00000  Uiso   1.00
C525   C     0.71136   0.82469   0.11741   0.00000  Uiso   1.00
C526   C     0.96865   0.79317   0.44673   0.00000  Uiso   1.00
C527   C     0.69795   0.79322   0.05344   0.00000  Uiso   1.00
C528   C     0.98552   0.80340   0.40203   0.00000  Uiso   1.00
C529   C     0.68110   0.80348   0.09808   0.00000  Uiso   1.00
C530   C     0.90681   0.83256   0.40701   0.00000  Uiso   1.00
C531   C     0.75986   0.83266   0.09296   0.00000  Uiso   1.00
C532   C     0.88990   0.82302   0.45203   0.00000  Uiso   1.00
C533   C     0.77675   0.82309   0.04799   0.00000  Uiso   1.00
C534   C     0.92349   0.80860   0.47278   0.00000  Uiso   1.00
C535   C     0.86302   0.81865   0.04386   0.00000  Uiso   1.00
C536   C     0.74314   0.80864   0.02731   0.00000  Uiso   1.00
C537   C     0.84005   0.82421   0.47665   0.00000  Uiso   1.00
C538   C     0.82661   0.82425   0.02336   0.00000  Uiso   1.00
C539   C     0.80364   0.81856   0.45618   0.00000  Uiso   1.00
C540   C     0.91008   0.80808   0.01879   0.00000  Uiso   1.00
C541   C     0.75656   0.80803   0.48131   0.00000  Uiso   1.00
C542   C     0.95787   0.68796   0.24983   0.00000  Uiso   1.00
C543   C     0.70880   0.97872   0.25017   0.00000  Uiso   1.00
C544   C     0.95789   0.97870   0.24979   0.00000  Uiso   1.00
Cu545  Cu    0.71355   0.83334   0.25000   0.00000  Uiso   1.00
Cu546  Cu    0.95311   0.83333   0.25000   0.00000  Uiso   1.00
H547   H     0.93590   0.80026   0.03564   0.00000  Uiso   1.00
H548   H     0.74175   0.96273   0.25030   0.00000  Uiso   1.00
H549   H     0.92496   0.96269   0.24961   0.00000  Uiso   1.00
H550   H     0.74171   0.70399   0.25039   0.00000  Uiso   1.00
H551   H     0.85841   0.79093   0.30296   0.00000  Uiso   1.00
H552   H     0.80826   0.87574   0.19704   0.00000  Uiso   1.00
H553   H     0.77218   0.79088   0.30291   0.00000  Uiso   1.00
H554   H     0.89448   0.87578   0.19710   0.00000  Uiso   1.00
H555   H     0.68570   0.75160   0.43970   0.00000  Uiso   1.00
H556   H     0.98081   0.75166   0.06067   0.00000  Uiso   1.00
H557   H     0.73073   0.80018   0.46450   0.00000  Uiso   1.00
H558   H     0.78385   0.84696   0.10896   0.00000  Uiso   1.00
H559   H     0.88284   0.84684   0.39095   0.00000  Uiso   1.00
H560   H     0.97889   0.79277   0.11817   0.00000  Uiso   1.00
H561   H     0.68771   0.79268   0.38198   0.00000  Uiso   1.00
H562   H     0.85452   0.81697   0.07928   0.00000  Uiso   1.00
H563   H     0.81215   0.81678   0.42076   0.00000  Uiso   1.00
H564   H     0.92492   0.70394   0.24969   0.00000  Uiso   1.00
N565   N     0.78403   0.83334   0.24999   0.00000  Uiso   1.00
N566   N     0.88264   0.83332   0.25001   0.00000  Uiso   1.00
O567   O     0.70625   0.77322   0.25000   0.00000  Uiso   1.00
O568   O     0.67466   0.76364   0.03654   0.00000  Uiso   1.00
O569   O     0.96042   0.89345   0.25000   0.00000  Uiso   1.00
O570   O     0.96039   0.77321   0.25000   0.00000  Uiso   1.00
O571   O     0.70628   0.89346   0.24999   0.00000  Uiso   1.00
O572   O     0.68519   0.83334   0.31491   0.00000  Uiso   1.00
O573   O     0.98148   0.83332   0.18508   0.00000  Uiso   1.00
O574   O     0.93933   0.83333   0.31492   0.00000  Uiso   1.00
O575   O     0.72733   0.83333   0.18508   0.00000  Uiso   1.00
O576   O     0.99187   0.76360   0.46377   0.00000  Uiso   1.00
C577   C     0.33331   0.08744   0.75003   0.00000  Uiso   1.00
C578   C     0.04211   0.02131   0.75021   0.00000  Uiso   1.00
C579   C     0.00002   0.29056   0.74997   0.00000  Uiso   1.00
C580   C     0.33331   0.04278   0.75003   0.00000  Uiso   1.00
C581   C     0.18136   0.14319   0.77937   0.00000  Uiso   1.00
C582   C     0.15197   0.19014   0.72063   0.00000  Uiso   1.00
C583   C     0.13196   0.14318   0.77935   0.00000  Uiso   1.00
C584   C     0.20137   0.19015   0.72065   0.00000  Uiso   1.00
C585   C     0.30524   0.16533   0.83535   0.00000  Uiso   1.00
C586   C     0.02809   0.16538   0.66465   0.00000  Uiso   1.00
C587   C     0.28863   0.15794   0.88261   0.00000  Uiso   1.00
C588   C     0.00002   0.24589   0.74997   0.00000  Uiso   1.00
C589   C     0.04469   0.15803   0.61741   0.00000  Uiso   1.00
C590   C     0.30198   0.12650   0.94673   0.00000  Uiso   1.00
C591   C     0.03128   0.12656   0.55344   0.00000  Uiso   1.00
C592   C     0.31885   0.13673   0.90203   0.00000  Uiso   1.00
C593   C     0.01443   0.13681   0.59808   0.00000  Uiso   1.00
C594   C     0.24014   0.16589   0.90701   0.00000  Uiso   1.00
C595   C     0.09319   0.16599   0.59296   0.00000  Uiso   1.00
C596   C     0.22324   0.15636   0.95203   0.00000  Uiso   1.00
C597   C     0.11009   0.15642   0.54799   0.00000  Uiso   1.00
C598   C     0.25682   0.14194   0.97278   0.00000  Uiso   1.00
C599   C     0.19635   0.15199   0.54386   0.00000  Uiso   1.00
C600   C     0.07647   0.14197   0.52731   0.00000  Uiso   1.00
C601   C     0.17338   0.15754   0.97665   0.00000  Uiso   1.00
C602   C     0.15995   0.15758   0.52336   0.00000  Uiso   1.00
C603   C     0.13698   0.15189   0.95618   0.00000  Uiso   1.00
C604   C     0.24341   0.14141   0.51879   0.00000  Uiso   1.00
C605   C     0.08989   0.14136   0.98131   0.00000  Uiso   1.00
C606   C     0.29120   0.02129   0.74983   0.00000  Uiso   1.00
C607   C     0.04213   0.31205   0.75017   0.00000  Uiso   1.00
C608   C     0.29123   0.31203   0.74979   0.00000  Uiso   1.00
Cu609  Cu    0.04689   0.16667   0.75000   0.00000  Uiso   1.00
Cu610  Cu    0.28645   0.16666   0.75000   0.00000  Uiso   1.00
H611   H     0.26923   0.13360   0.53564   0.00000  Uiso   1.00
H612   H     0.07509   0.29607   0.75030   0.00000  Uiso   1.00
H613   H     0.25829   0.29602   0.74961   0.00000  Uiso   1.00
H614   H     0.07504   0.03732   0.75039   0.00000  Uiso   1.00
H615   H     0.19174   0.12426   0.80296   0.00000  Uiso   1.00
H616   H     0.14159   0.20907   0.69704   0.00000  Uiso   1.00
H617   H     0.10551   0.12421   0.80291   0.00000  Uiso   1.00
H618   H     0.22782   0.20912   0.69710   0.00000  Uiso   1.00
H619   H     0.01903   0.08493   0.93970   0.00000  Uiso   1.00
H620   H     0.31414   0.08500   0.56067   0.00000  Uiso   1.00
H621   H     0.06406   0.13351   0.96450   0.00000  Uiso   1.00
H622   H     0.11718   0.18029   0.60896   0.00000  Uiso   1.00
H623   H     0.21617   0.18017   0.89095   0.00000  Uiso   1.00
H624   H     0.31222   0.12610   0.61817   0.00000  Uiso   1.00
H625   H     0.02104   0.12602   0.88198   0.00000  Uiso   1.00
H626   H     0.18785   0.15030   0.57928   0.00000  Uiso   1.00
H627   H     0.14548   0.15012   0.92076   0.00000  Uiso   1.00
H628   H     0.25825   0.03728   0.74969   0.00000  Uiso   1.00
N629   N     0.11736   0.16668   0.74999   0.00000  Uiso   1.00
N630   N     0.21597   0.16666   0.75001   0.00000  Uiso   1.00
O631   O     0.03958   0.10655   0.75000   0.00000  Uiso   1.00
O632   O     0.00799   0.09698   0.53654   0.00000  Uiso   1.00
O633   O     0.29375   0.22678   0.75000   0.00000  Uiso   1.00
O634   O     0.29372   0.10654   0.75000   0.00000  Uiso   1.00
O635   O     0.03961   0.22679   0.74999   0.00000  Uiso   1.00
O636   O     0.01852   0.16668   0.81491   0.00000  Uiso   1.00
O637   O     0.31481   0.16666   0.68508   0.00000  Uiso   1.00
O638   O     0.27267   0.16667   0.81492   0.00000  Uiso   1.00
O639   O     0.06067   0.16667   0.68508   0.00000  Uiso   1.00
O640   O     0.32521   0.09693   0.96377   0.00000  Uiso   1.00
C641   C     0.66664   0.08744   0.75003   0.00000  Uiso   1.00
C642   C     0.37544   0.02131   0.75021   0.00000  Uiso   1.00
C643   C     0.33335   0.29056   0.74997   0.00000  Uiso   1.00
C644   C     0.66665   0.04278   0.75003   0.00000  Uiso   1.00
C645   C     0.51469   0.14319   0.77937   0.00000  Uiso   1.00
C646   C     0.48531   0.19014   0.72063   0.00000  Uiso   1.00
C647   C     0.46529   0.14318   0.77935   0.00000  Uiso   1.00
C648   C     0.53471   0.19015   0.72065   0.00000  Uiso   1.00
C649   C     0.63857   0.16533   0.83535   0.00000  Uiso   1.00
C650   C     0.36143   0.16538   0.66465   0.00000  Uiso   1.00
C651   C     0.62196   0.15794   0.88261   0.00000  Uiso   1.00
C652   C     0.33336   0.24589   0.74997   0.00000  Uiso   1.00
C653   C     0.37803   0.15803   0.61741   0.00000  Uiso   1.00
C654   C     0.63531   0.12650   0.94673   0.00000  Uiso   1.00
C655   C     0.36462   0.12656   0.55344   0.00000  Uiso   1.00
C656   C     0.65218   0.13673   0.90203   0.00000  Uiso   1.00
C657   C     0.34777   0.13681   0.59808   0.00000  Uiso   1.00
C658   C     0.57348   0.16589   0.90701   0.00000  Uiso   1.00
C659   C     0.42653   0.16599   0.59296   0.00000  Uiso   1.00
C660   C     0.55657   0.15636   0.95203   0.00000  Uiso   1.00
C661   C     0.44342   0.15642   0.54799   0.00000  Uiso   1.00
C662   C     0.59016   0.14194   0.97278   0.00000  Uiso   1.00
C663   C     0.52968   0.15199   0.54386   0.00000  Uiso   1.00
C664   C     0.40981   0.14197   0.52731   0.00000  Uiso   1.00
C665   C     0.50672   0.15754   0.97665   0.00000  Uiso   1.00
C666   C     0.49328   0.15758   0.52336   0.00000  Uiso   1.00
C667   C     0.47031   0.15189   0.95618   0.00000  Uiso   1.00
C668   C     0.57674   0.14141   0.51879   0.00000  Uiso   1.00
C669   C     0.42323   0.14136   0.98131   0.00000  Uiso   1.00
C670   C     0.62454   0.02129   0.74983   0.00000  Uiso   1.00
C671   C     0.37546   0.31205   0.75017   0.00000  Uiso   1.00
C672   C     0.62456   0.31203   0.74979   0.00000  Uiso   1.00
Cu673  Cu    0.38022   0.16667   0.75000   0.00000  Uiso   1.00
Cu674  Cu    0.61978   0.16666   0.75000   0.00000  Uiso   1.00
H675   H     0.60257   0.13360   0.53564   0.00000  Uiso   1.00
H676   H     0.40842   0.29607   0.75030   0.00000  Uiso   1.00
H677   H     0.59162   0.29602   0.74961   0.00000  Uiso   1.00
H678   H     0.40837   0.03732   0.75039   0.00000  Uiso   1.00
H679   H     0.52507   0.12426   0.80296   0.00000  Uiso   1.00
H680   H     0.47492   0.20907   0.69704   0.00000  Uiso   1.00
H681   H     0.43884   0.12421   0.80291   0.00000  Uiso   1.00
H682   H     0.56115   0.20912   0.69710   0.00000  Uiso   1.00
H683   H     0.35236   0.08493   0.93970   0.00000  Uiso   1.00
H684   H     0.64747   0.08500   0.56067   0.00000  Uiso   1.00
H685   H     0.39739   0.13351   0.96450   0.00000  Uiso   1.00
H686   H     0.45051   0.18029   0.60896   0.00000  Uiso   1.00
H687   H     0.54951   0.18017   0.89095   0.00000  Uiso   1.00
H688   H     0.64556   0.12610   0.61817   0.00000  Uiso   1.00
H689   H     0.35437   0.12602   0.88198   0.00000  Uiso   1.00
H690   H     0.52118   0.15030   0.57928   0.00000  Uiso   1.00
H691   H     0.47882   0.15012   0.92076   0.00000  Uiso   1.00
H692   H     0.59159   0.03728   0.74969   0.00000  Uiso   1.00
N693   N     0.45069   0.16668   0.74999   0.00000  Uiso   1.00
N694   N     0.54931   0.16666   0.75001   0.00000  Uiso   1.00
O695   O     0.37291   0.10655   0.75000   0.00000  Uiso   1.00
O696   O     0.34133   0.09698   0.53654   0.00000  Uiso   1.00
O697   O     0.62709   0.22678   0.75000   0.00000  Uiso   1.00
O698   O     0.62706   0.10654   0.75000   0.00000  Uiso   1.00
O699   O     0.37294   0.22679   0.74999   0.00000  Uiso   1.00
O700   O     0.35186   0.16668   0.81491   0.00000  Uiso   1.00
O701   O     0.64814   0.16666   0.68508   0.00000  Uiso   1.00
O702   O     0.60600   0.16667   0.81492   0.00000  Uiso   1.00
O703   O     0.39400   0.16667   0.68508   0.00000  Uiso   1.00
O704   O     0.65854   0.09693   0.96377   0.00000  Uiso   1.00
C705   C     0.99998   0.08744   0.75003   0.00000  Uiso   1.00
C706   C     0.70877   0.02131   0.75021   0.00000  Uiso   1.00
C707   C     0.66669   0.29056   0.74997   0.00000  Uiso   1.00
C708   C     0.99998   0.04278   0.75003   0.00000  Uiso   1.00
C709   C     0.84803   0.14319   0.77937   0.00000  Uiso   1.00
C710   C     0.81864   0.19014   0.72063   0.00000  Uiso   1.00
C711   C     0.79862   0.14318   0.77935   0.00000  Uiso   1.00
C712   C     0.86804   0.19015   0.72065   0.00000  Uiso   1.00
C713   C     0.97191   0.16533   0.83535   0.00000  Uiso   1.00
C714   C     0.69476   0.16538   0.66465   0.00000  Uiso   1.00
C715   C     0.95530   0.15794   0.88261   0.00000  Uiso   1.00
C716   C     0.66669   0.24589   0.74997   0.00000  Uiso   1.00
C717   C     0.71136   0.15803   0.61741   0.00000  Uiso   1.00
C718   C     0.96865   0.12650   0.94673   0.00000  Uiso   1.00
C719   C     0.69795   0.12656   0.55344   0.00000  Uiso   1.00
C720   C     0.98552   0.13673   0.90203   0.00000  Uiso   1.00
C721   C     0.68110   0.13681   0.59808   0.00000  Uiso   1.00
C722   C     0.90681   0.16589   0.90701   0.00000  Uiso   1.00
C723   C     0.75986   0.16599   0.59296   0.00000  Uiso   1.00
C724   C     0.88990   0.15636   0.95203   0.00000  Uiso   1.00
C725   C     0.77675   0.15642   0.54799   0.00000  Uiso   1.00
C726   C     0.92349   0.14194   0.97278   0.00000  Uiso   1.00
C727   C     0.86302   0.15199   0.54386   0.00000  Uiso   1.00
C728   C     0.74314   0.14197   0.52731   0.00000  Uiso   1.00
C729   C     0.84005   0.15754   0.97665   0.00000  Uiso   1.00
C730   C     0.82661   0.15758   0.52336   0.00000  Uiso   1.00
C731   C     0.80364   0.15189   0.95618   0.00000  Uiso   1.00
C732   C     0.91008   0.14141   0.51879   0.00000  Uiso   1.00
C733   C     0.75656   0.14136   0.98131   0.00000  Uiso   1.00
C734   C     0.95787   0.02129   0.74983   0.00000  Uiso   1.00
C735   C     0.70880   0.31205   0.75017   0.00000  Uiso   1.00
C736   C     0.95789   0.31203   0.74979   0.00000  Uiso   1.00
Cu737  Cu    0.71355   0.16667   0.75000   0.00000  Uiso   1.00
Cu738  Cu    0.95311   0.16666   0.75000   0.00000  Uiso   1.00
H739   H     0.93590   0.13360   0.53564   0.00000  Uiso   1.00
H740   H     0.74175   0.29607   0.75030   0.00000  Uiso   1.00
H741   H     0.92496   0.29602   0.74961   0.00000  Uiso   1.00
H742   H     0.74171   0.03732   0.75039   0.00000  Uiso   1.00
H743   H     0.85841   0.12426   0.80296   0.00000  Uiso   1.00
H744   H     0.80826   0.20907   0.69704   0.00000  Uiso   1.00
H745   H     0.77218   0.12421   0.80291   0.00000  Uiso   1.00
H746   H     0.89448   0.20912   0.69710   0.00000  Uiso   1.00
H747   H     0.68570   0.08493   0.93970   0.00000  Uiso   1.00
H748   H     0.98081   0.08500   0.56067   0.00000  Uiso   1.00
H749   H     0.73073   0.13351   0.96450   0.00000  Uiso   1.00
H750   H     0.78385   0.18029   0.60896   0.00000  Uiso   1.00
H751   H     0.88284   0.18017   0.89095   0.00000  Uiso   1.00
H752   H     0.97889   0.12610   0.61817   0.00000  Uiso   1.00
H753   H     0.68771   0.12602   0.88198   0.00000  Uiso   1.00
H754   H     0.85452   0.15030   0.57928   0.00000  Uiso   1.00
H755   H     0.81215   0.15012   0.92076   0.00000  Uiso   1.00
H756   H     0.92492   0.03728   0.74969   0.00000  Uiso   1.00
N757   N     0.78403   0.16668   0.74999   0.00000  Uiso   1.00
N758   N     0.88264   0.16666   0.75001   0.00000  Uiso   1.00
O759   O     0.70625   0.10655   0.75000   0.00000  Uiso   1.00
O760   O     0.67466   0.09698   0.53654   0.00000  Uiso   1.00
O761   O     0.96042   0.22678   0.75000   0.00000  Uiso   1.00
O762   O     0.96039   0.10654   0.75000   0.00000  Uiso   1.00
O763   O     0.70628   0.22679   0.74999   0.00000  Uiso   1.00
O764   O     0.68519   0.16668   0.81491   0.00000  Uiso   1.00
O765   O     0.98148   0.16666   0.68508   0.00000  Uiso   1.00
O766   O     0.93933   0.16667   0.81492   0.00000  Uiso   1.00
O767   O     0.72733   0.16667   0.68508   0.00000  Uiso   1.00
O768   O     0.99187   0.09693   0.96377   0.00000  Uiso   1.00
C769   C     0.33331   0.42078   0.75003   0.00000  Uiso   1.00
C770   C     0.04211   0.35465   0.75021   0.00000  Uiso   1.00
C771   C     0.00002   0.62389   0.74997   0.00000  Uiso   1.00
C772   C     0.33331   0.37612   0.75003   0.00000  Uiso   1.00
C773   C     0.18136   0.47652   0.77937   0.00000  Uiso   1.00
C774   C     0.15197   0.52348   0.72063   0.00000  Uiso   1.00
C775   C     0.13196   0.47651   0.77935   0.00000  Uiso   1.00
C776   C     0.20137   0.52348   0.72065   0.00000  Uiso   1.00
C777   C     0.30524   0.49867   0.83535   0.00000  Uiso   1.00
C778   C     0.02809   0.49871   0.66465   0.00000  Uiso   1.00
C779   C     0.28863   0.49128   0.88261   0.00000  Uiso   1.00
C780   C     0.00002   0.57922   0.74997   0.00000  Uiso   1.00
C781   C     0.04469   0.49136   0.61741   0.00000  Uiso   1.00
C782   C     0.30198   0.45983   0.94673   0.00000  Uiso   1.00
C783   C     0.03128   0.45989   0.55344   0.00000  Uiso   1.00
C784   C     0.31885   0.47006   0.90203   0.00000  Uiso   1.00
C785   C     0.01443   0.47015   0.59808   0.00000  Uiso   1.00
C786   C     0.24014   0.49923   0.90701   0.00000  Uiso   1.00
C787   C     0.09319   0.49933   0.59296   0.00000  Uiso   1.00
C788   C     0.22324   0.48969   0.95203   0.00000  Uiso   1.00
C789   C     0.11009   0.48976   0.54799   0.00000  Uiso   1.00
C790   C     0.25682   0.47527   0.97278   0.00000  Uiso   1.00
C791   C     0.19635   0.48532   0.54386   0.00000  Uiso   1.00
C792   C     0.07647   0.47530   0.52731   0.00000  Uiso   1.00
C793   C     0.17338   0.49087   0.97665   0.00000  Uiso   1.00
C794   C     0.15995   0.49092   0.52336   0.00000  Uiso   1.00
C795   C     0.13698   0.48522   0.95618   0.00000  Uiso   1.00
C796   C     0.24341   0.47474   0.51879   0.00000  Uiso   1.00
C797   C     0.08989   0.47470   0.98131   0.00000  Uiso   1.00
C798   C     0.29120   0.35462   0.74983   0.00000  Uiso   1.00
C799   C     0.04213   0.64539   0.75017   0.00000  Uiso   1.00
C800   C     0.29123   0.64536   0.74979   0.00000  Uiso   1.00
Cu801  Cu    0.04689   0.50001   0.75000   0.00000  Uiso   1.00
Cu802  Cu    0.28645   0.49999   0.75000   0.00000  Uiso   1.00
H803   H     0.26923   0.46693   0.53564   0.00000  Uiso   1.00
H804   H     0.07509   0.62940   0.75030   0.00000  Uiso   1.00
H805   H     0.25829   0.62936   0.74961   0.00000  Uiso   1.00
H806   H     0.07504   0.37065   0.75039   0.00000  Uiso   1.00
H807   H     0.19174   0.45759   0.80296   0.00000  Uiso   1.00
H808   H     0.14159   0.54240   0.69704   0.00000  Uiso   1.00
H809   H     0.10551   0.45755   0.80291   0.00000  Uiso   1.00
H810   H     0.22782   0.54245   0.69710   0.00000  Uiso   1.00
H811   H     0.01903   0.41827   0.93970   0.00000  Uiso   1.00
H812   H     0.31414   0.41833   0.56067   0.00000  Uiso   1.00
H813   H     0.06406   0.46684   0.96450   0.00000  Uiso   1.00
H814   H     0.11718   0.51362   0.60896   0.00000  Uiso   1.00
H815   H     0.21617   0.51350   0.89095   0.00000  Uiso   1.00
H816   H     0.31222   0.45944   0.61817   0.00000  Uiso   1.00
H817   H     0.02104   0.45935   0.88198   0.00000  Uiso   1.00
H818   H     0.18785   0.48363   0.57928   0.00000  Uiso   1.00
H819   H     0.14548   0.48345   0.92076   0.00000  Uiso   1.00
H820   H     0.25825   0.37061   0.74969   0.00000  Uiso   1.00
N821   N     0.11736   0.50001   0.74999   0.00000  Uiso   1.00
N822   N     0.21597   0.49999   0.75001   0.00000  Uiso   1.00
O823   O     0.03958   0.43989   0.75000   0.00000  Uiso   1.00
O824   O     0.00799   0.43031   0.53654   0.00000  Uiso   1.00
O825   O     0.29375   0.56011   0.75000   0.00000  Uiso   1.00
O826   O     0.29372   0.43988   0.75000   0.00000  Uiso   1.00
O827   O     0.03961   0.56012   0.74999   0.00000  Uiso   1.00
O828   O     0.01852   0.50001   0.81491   0.00000  Uiso   1.00
O829   O     0.31481   0.49999   0.68508   0.00000  Uiso   1.00
O830   O     0.27267   0.50000   0.81492   0.00000  Uiso   1.00
O831   O     0.06067   0.50000   0.68508   0.00000  Uiso   1.00
O832   O     0.32521   0.43026   0.96377   0.00000  Uiso   1.00
C833   C     0.66664   0.42078   0.75003   0.00000  Uiso   1.00
C834   C     0.37544   0.35465   0.75021   0.00000  Uiso   1.00
C835   C     0.33335   0.62389   0.74997   0.00000  Uiso   1.00
C836   C     0.66665   0.37612   0.75003   0.00000  Uiso   1.00
C837   C     0.51469   0.47652   0.77937   0.00000  Uiso   1.00
C838   C     0.48531   0.52348   0.72063   0.00000  Uiso   1.00
C839   C     0.46529   0.47651   0.77935   0.00000  Uiso   1.00
C840   C     0.53471   0.52348   0.72065   0.00000  Uiso   1.00
C841   C     0.63857   0.49867   0.83535   0.00000  Uiso   1.00
C842   C     0.36143   0.49871   0.66465   0.00000  Uiso   1.00
C843   C     0.62196   0.49128   0.88261   0.00000  Uiso   1.00
C844   C     0.33336   0.57922   0.74997   0.00000  Uiso   1.00
C845   C     0.37803   0.49136   0.61741   0.00000  Uiso   1.00
C846   C     0.63531   0.45983   0.94673   0.00000  Uiso   1.00
C847   C     0.36462   0.45989   0.55344   0.00000  Uiso   1.00
C848   C     0.65218   0.47006   0.90203   0.00000  Uiso   1.00
C849   C     0.34777   0.47015   0.59808   0.00000  Uiso   1.00
C850   C     0.57348   0.49923   0.90701   0.00000  Uiso   1.00
C851   C     0.42653   0.49933   0.59296   0.00000  Uiso   1.00
C852   C     0.55657   0.48969   0.95203   0.00000  Uiso   1.00
C853   C     0.44342   0.48976   0.54799   0.00000  Uiso   1.00
C854   C     0.59016   0.47527   0.97278   0.00000  Uiso   1.00
C855   C     0.52968   0.48532   0.54386   0.00000  Uiso   1.00
C856   C     0.40981   0.47530   0.52731   0.00000  Uiso   1.00
C857   C     0.50672   0.49087   0.97665   0.00000  Uiso   1.00
C858   C     0.49328   0.49092   0.52336   0.00000  Uiso   1.00
C859   C     0.47031   0.48522   0.95618   0.00000  Uiso   1.00
C860   C     0.57674   0.47474   0.51879   0.00000  Uiso   1.00
C861   C     0.42323   0.47470   0.98131   0.00000  Uiso   1.00
C862   C     0.62454   0.35462   0.74983   0.00000  Uiso   1.00
C863   C     0.37546   0.64539   0.75017   0.00000  Uiso   1.00
C864   C     0.62456   0.64536   0.74979   0.00000  Uiso   1.00
Cu865  Cu    0.38022   0.50001   0.75000   0.00000  Uiso   1.00
Cu866  Cu    0.61978   0.49999   0.75000   0.00000  Uiso   1.00
H867   H     0.60257   0.46693   0.53564   0.00000  Uiso   1.00
H868   H     0.40842   0.62940   0.75030   0.00000  Uiso   1.00
H869   H     0.59162   0.62936   0.74961   0.00000  Uiso   1.00
H870   H     0.40837   0.37065   0.75039   0.00000  Uiso   1.00
H871   H     0.52507   0.45759   0.80296   0.00000  Uiso   1.00
H872   H     0.47492   0.54240   0.69704   0.00000  Uiso   1.00
H873   H     0.43884   0.45755   0.80291   0.00000  Uiso   1.00
H874   H     0.56115   0.54245   0.69710   0.00000  Uiso   1.00
H875   H     0.35236   0.41827   0.93970   0.00000  Uiso   1.00
H876   H     0.64747   0.41833   0.56067   0.00000  Uiso   1.00
H877   H     0.39739   0.46684   0.96450   0.00000  Uiso   1.00
H878   H     0.45051   0.51362   0.60896   0.00000  Uiso   1.00
H879   H     0.54951   0.51350   0.89095   0.00000  Uiso   1.00
H880   H     0.64556   0.45944   0.61817   0.00000  Uiso   1.00
H881   H     0.35437   0.45935   0.88198   0.00000  Uiso   1.00
H882   H     0.52118   0.48363   0.57928   0.00000  Uiso   1.00
H883   H     0.47882   0.48345   0.92076   0.00000  Uiso   1.00
H884   H     0.59159   0.37061   0.74969   0.00000  Uiso   1.00
N885   N     0.45069   0.50001   0.74999   0.00000  Uiso   1.00
N886   N     0.54931   0.49999   0.75001   0.00000  Uiso   1.00
O887   O     0.37291   0.43989   0.75000   0.00000  Uiso   1.00
O888   O     0.34133   0.43031   0.53654   0.00000  Uiso   1.00
O889   O     0.62709   0.56011   0.75000   0.00000  Uiso   1.00
O890   O     0.62706   0.43988   0.75000   0.00000  Uiso   1.00
O891   O     0.37294   0.56012   0.74999   0.00000  Uiso   1.00
O892   O     0.35186   0.50001   0.81491   0.00000  Uiso   1.00
O893   O     0.64814   0.49999   0.68508   0.00000  Uiso   1.00
O894   O     0.60600   0.50000   0.81492   0.00000  Uiso   1.00
O895   O     0.39400   0.50000   0.68508   0.00000  Uiso   1.00
O896   O     0.65854   0.43026   0.96377   0.00000  Uiso   1.00
C897   C     0.99998   0.42078   0.75003   0.00000  Uiso   1.00
C898   C     0.70877   0.35465   0.75021   0.00000  Uiso   1.00
C899   C     0.66669   0.62389   0.74997   0.00000  Uiso   1.00
C900   C     0.99998   0.37612   0.75003   0.00000  Uiso   1.00
C901   C     0.84803   0.47652   0.77937   0.00000  Uiso   1.00
C902   C     0.81864   0.52348   0.72063   0.00000  Uiso   1.00
C903   C     0.79862   0.47651   0.77935   0.00000  Uiso   1.00
C904   C     0.86804   0.52348   0.72065   0.00000  Uiso   1.00
C905   C     0.97191   0.49867   0.83535   0.00000  Uiso   1.00
C906   C     0.69476   0.49871   0.66465   0.00000  Uiso   1.00
C907   C     0.95530   0.49128   0.88261   0.00000  Uiso   1.00
C908   C     0.66669   0.57922   0.74997   0.00000  Uiso   1.00
C909   C     0.71136   0.49136   0.61741   0.00000  Uiso   1.00
C910   C     0.96865   0.45983   0.94673   0.00000  Uiso   1.00
C911   C     0.69795   0.45989   0.55344   0.00000  Uiso   1.00
C912   C     0.98552   0.47006   0.90203   0.00000  Uiso   1.00
C913   C     0.68110   0.47015   0.59808   0.00000  Uiso   1.00
C914   C     0.90681   0.49923   0.90701   0.00000  Uiso   1.00
C915   C     0.75986   0.49933   0.59296   0.00000  Uiso   1.00
C916   C     0.88990   0.48969   0.95203   0.00000  Uiso   1.00
C917   C     0.77675   0.48976   0.54799   0.00000  Uiso   1.00
C918   C     0.92349   0.47527   0.97278   0.00000  Uiso   1.00
C919   C     0.86302   0.48532   0.54386   0.00000  Uiso   1.00
C920   C     0.74314   0.47530   0.52731   0.00000  Uiso   1.00
C921   C     0.84005   0.49087   0.97665   0.00000  Uiso   1.00
C922   C     0.82661   0.49092   0.52336   0.00000  Uiso   1.00
C923   C     0.80364   0.48522   0.95618   0.00000  Uiso   1.00
C924   C     0.91008   0.47474   0.51879   0.00000  Uiso   1.00
C925   C     0.75656   0.47470   0.98131   0.00000  Uiso   1.00
C926   C     0.95787   0.35462   0.74983   0.00000  Uiso   1.00
C927   C     0.70880   0.64539   0.75017   0.00000  Uiso   1.00
C928   C     0.95789   0.64536   0.74979   0.00000  Uiso   1.00
Cu929  Cu    0.71355   0.50001   0.75000   0.00000  Uiso   1.00
Cu930  Cu    0.95311   0.49999   0.75000   0.00000  Uiso   1.00
H931   H     0.93590   0.46693   0.53564   0.00000  Uiso   1.00
H932   H     0.74175   0.62940   0.75030   0.00000  Uiso   1.00
H933   H     0.92496   0.62936   0.74961   0.00000  Uiso   1.00
H934   H     0.74171   0.37065   0.75039   0.00000  Uiso   1.00
H935   H     0.85841   0.45759   0.80296   0.00000  Uiso   1.00
H936   H     0.80826   0.54240   0.69704   0.00000  Uiso   1.00
H937   H     0.77218   0.45755   0.80291   0.00000  Uiso   1.00
H938   H     0.89448   0.54245   0.69710   0.00000  Uiso   1.00
H939   H     0.68570   0.41827   0.93970   0.00000  Uiso   1.00
H940   H     0.98081   0.41833   0.56067   0.00000  Uiso   1.00
H941   H     0.73073   0.46684   0.96450   0.00000  Uiso   1.00
H942   H     0.78385   0.51362   0.60896   0.00000  Uiso   1.00
H943   H     0.88284   0.51350   0.89095   0.00000  Uiso   1.00
H944   H     0.97889   0.45944   0.61817   0.00000  Uiso   1.00
H945   H     0.68771   0.45935   0.88198   0.00000  Uiso   1.00
H946   H     0.85452   0.48363   0.57928   0.00000  Uiso   1.00
H947   H     0.81215   0.48345   0.92076   0.00000  Uiso   1.00
H948   H     0.92492   0.37061   0.74969   0.00000  Uiso   1.00
N949   N     0.78403   0.50001   0.74999   0.00000  Uiso   1.00
N950   N     0.88264   0.49999   0.75001   0.00000  Uiso   1.00
O951   O     0.70625   0.43989   0.75000   0.00000  Uiso   1.00
O952   O     0.67466   0.43031   0.53654   0.00000  Uiso   1.00
O953   O     0.96042   0.56011   0.75000   0.00000  Uiso   1.00
O954   O     0.96039   0.43988   0.75000   0.00000  Uiso   1.00
O955   O     0.70628   0.56012   0.74999   0.00000  Uiso   1.00
O956   O     0.68519   0.50001   0.81491   0.00000  Uiso   1.00
O957   O     0.98148   0.49999   0.68508   0.00000  Uiso   1.00
O958   O     0.93933   0.50000   0.81492   0.00000  Uiso   1.00
O959   O     0.72733   0.50000   0.68508   0.00000  Uiso   1.00
O960   O     0.99187   0.43026   0.96377   0.00000  Uiso   1.00
C961   C     0.33331   0.75411   0.75003   0.00000  Uiso   1.00
C962   C     0.04211   0.68798   0.75021   0.00000  Uiso   1.00
C963   C     0.00002   0.95722   0.74997   0.00000  Uiso   1.00
C964   C     0.33331   0.70945   0.75003   0.00000  Uiso   1.00
C965   C     0.18136   0.80985   0.77937   0.00000  Uiso   1.00
C966   C     0.15197   0.85681   0.72063   0.00000  Uiso   1.00
C967   C     0.13196   0.80985   0.77935   0.00000  Uiso   1.00
C968   C     0.20137   0.85682   0.72065   0.00000  Uiso   1.00
C969   C     0.30524   0.83200   0.83535   0.00000  Uiso   1.00
C970   C     0.02809   0.83205   0.66465   0.00000  Uiso   1.00
C971   C     0.28863   0.82461   0.88261   0.00000  Uiso   1.00
C972   C     0.00002   0.91256   0.74997   0.00000  Uiso   1.00
C973   C     0.04469   0.82469   0.61741   0.00000  Uiso   1.00
C974   C     0.30198   0.79317   0.94673   0.00000  Uiso   1.00
C975   C     0.03128   0.79322   0.55344   0.00000  Uiso   1.00
C976   C     0.31885   0.80340   0.90203   0.00000  Uiso   1.00
C977   C     0.01443   0.80348   0.59808   0.00000  Uiso   1.00
C978   C     0.24014   0.83256   0.90701   0.00000  Uiso   1.00
C979   C     0.09319   0.83266   0.59296   0.00000  Uiso   1.00
C980   C     0.22324   0.82302   0.95203   0.00000  Uiso   1.00
C981   C     0.11009   0.82309   0.54799   0.00000  Uiso   1.00
C982   C     0.25682   0.80860   0.97278   0.00000  Uiso   1.00
C983   C     0.19635   0.81865   0.54386   0.00000  Uiso   1.00
C984   C     0.07647   0.80864   0.52731   0.00000  Uiso   1.00
C985   C     0.17338   0.82421   0.97665   0.00000  Uiso   1.00
C986   C     0.15995   0.82425   0.52336   0.00000  Uiso   1.00
C987   C     0.13698   0.81856   0.95618   0.00000  Uiso   1.00
C988   C     0.24341   0.80808   0.51879   0.00000  Uiso   1.00
C989   C     0.08989   0.80803   0.98131   0.00000  Uiso   1.00
C990   C     0.29120   0.68796   0.74983   0.00000  Uiso   1.00
C991   C     0.04213   0.97872   0.75017   0.00000  Uiso   1.00
C992   C     0.29123   0.97870   0.74979   0.00000  Uiso   1.00
Cu993  Cu    0.04689   0.83334   0.75000   0.00000  Uiso   1.00
Cu994  Cu    0.28645   0.83333   0.75000   0.00000  Uiso   1.00
H995   H     0.26923   0.80026   0.53564   0.00000  Uiso   1.00
H996   H     0.07509   0.96273   0.75030   0.00000  Uiso   1.00
H997   H     0.25829   0.96269   0.74961   0.00000  Uiso   1.00
H998   H     0.07504   0.70399   0.75039   0.00000  Uiso   1.00
H999   H     0.19174   0.79093   0.80296   0.00000  Uiso   1.00
H1000  H     0.14159   0.87574   0.69704   0.00000  Uiso   1.00
H1001  H     0.10551   0.79088   0.80291   0.00000  Uiso   1.00
H1002  H     0.22782   0.87578   0.69710   0.00000  Uiso   1.00
H1003  H     0.01903   0.75160   0.93970   0.00000  Uiso   1.00
H1004  H     0.31414   0.75166   0.56067   0.00000  Uiso   1.00
H1005  H     0.06406   0.80018   0.96450   0.00000  Uiso   1.00
H1006  H     0.11718   0.84696   0.60896   0.00000  Uiso   1.00
H1007  H     0.21617   0.84684   0.89095   0.00000  Uiso   1.00
H1008  H     0.31222   0.79277   0.61817   0.00000  Uiso   1.00
H1009  H     0.02104   0.79268   0.88198   0.00000  Uiso   1.00
H1010  H     0.18785   0.81697   0.57928   0.00000  Uiso   1.00
H1011  H     0.14548   0.81678   0.92076   0.00000  Uiso   1.00
H1012  H     0.25825   0.70394   0.74969   0.00000  Uiso   1.00
N1013  N     0.11736   0.83334   0.74999   0.00000  Uiso   1.00
N1014  N     0.21597   0.83332   0.75001   0.00000  Uiso   1.00
O1015  O     0.03958   0.77322   0.75000   0.00000  Uiso   1.00
O1016  O     0.00799   0.76364   0.53654   0.00000  Uiso   1.00
O1017  O     0.29375   0.89345   0.75000   0.00000  Uiso   1.00
O1018  O     0.29372   0.77321   0.75000   0.00000  Uiso   1.00
O1019  O     0.03961   0.89346   0.74999   0.00000  Uiso   1.00
O1020  O     0.01852   0.83334   0.81491   0.00000  Uiso   1.00
O1021  O     0.31481   0.83332   0.68508   0.00000  Uiso   1.00
O1022  O     0.27267   0.83333   0.81492   0.00000  Uiso   1.00
O1023  O     0.06067   0.83333   0.68508   0.00000  Uiso   1.00
O1024  O     0.32521   0.76360   0.96377   0.00000  Uiso   1.00
C1025  C     0.66664   0.75411   0.75003   0.00000  Uiso   1.00
C1026  C     0.37544   0.68798   0.75021   0.00000  Uiso   1.00
C1027  C     0.33335   0.95722   0.74997   0.00000  Uiso   1.00
C1028  C     0.66665   0.70945   0.75003   0.00000  Uiso   1.00
C1029  C     0.51469   0.80985   0.77937   0.00000  Uiso   1.00
C1030  C     0.48531   0.85681   0.72063   0.00000  Uiso   1.00
C1031  C     0.46529   0.80985   0.77935   0.00000  Uiso   1.00
C1032  C     0.53471   0.85682   0.72065   0.00000  Uiso   1.00
C1033  C     0.63857   0.83200   0.83535   0.00000  Uiso   1.00
C1034  C     0.36143   0.83205   0.66465   0.00000  Uiso   1.00
C1035  C     0.62196   0.82461   0.88261   0.00000  Uiso   1.00
C1036  C     0.33336   0.91256   0.74997   0.00000  Uiso   1.00
C1037  C     0.37803   0.82469   0.61741   0.00000  Uiso   1.00
C1038  C     0.63531   0.79317   0.94673   0.00000  Uiso   1.00
C1039  C     0.36462   0.79322   0.55344   0.00000  Uiso   1.00
C1040  C     0.65218   0.80340   0.90203   0.00000  Uiso   1.00
C1041  C     0.34777   0.80348   0.59808   0.00000  Uiso   1.00
C1042  C     0.57348   0.83256   0.90701   0.00000  Uiso   1.00
C1043  C     0.42653   0.83266   0.59296   0.00000  Uiso   1.00
C1044  C     0.55657   0.82302   0.95203   0.00000  Uiso   1.00
C1045  C     0.44342   0.82309   0.54799   0.00000  Uiso   1.00
C1046  C     0.59016   0.80860   0.97278   0.00000  Uiso   1.00
C1047  C     0.52968   0.81865   0.54386   0.00000  Uiso   1.00
C1048  C     0.40981   0.80864   0.52731   0.00000  Uiso   1.00
C1049  C     0.50672   0.82421   0.97665   0.00000  Uiso   1.00
C1050  C     0.49328   0.82425   0.52336   0.00000  Uiso   1.00
C1051  C     0.47031   0.81856   0.95618   0.00000  Uiso   1.00
C1052  C     0.57674   0.80808   0.51879   0.00000  Uiso   1.00
C1053  C     0.42323   0.80803   0.98131   0.00000  Uiso   1.00
C1054  C     0.62454   0.68796   0.74983   0.00000  Uiso   1.00
C1055  C     0.37546   0.97872   0.75017   0.00000  Uiso   1.00
C1056  C     0.62456   0.97870   0.74979   0.00000  Uiso   1.00
Cu1057 Cu    0.38022   0.83334   0.75000   0.00000  Uiso   1.00
Cu1058 Cu    0.61978   0.83333   0.75000   0.00000  Uiso   1.00
H1059  H     0.60257   0.80026   0.53564   0.00000  Uiso   1.00
H1060  H     0.40842   0.96273   0.75030   0.00000  Uiso   1.00
H1061  H     0.59162   0.96269   0.74961   0.00000  Uiso   1.00
H1062  H     0.40837   0.70399   0.75039   0.00000  Uiso   1.00
H1063  H     0.52507   0.79093   0.80296   0.00000  Uiso   1.00
H1064  H     0.47492   0.87574   0.69704   0.00000  Uiso   1.00
H1065  H     0.43884   0.79088   0.80291   0.00000  Uiso   1.00
H1066  H     0.56115   0.87578   0.69710   0.00000  Uiso   1.00
H1067  H     0.35236   0.75160   0.93970   0.00000  Uiso   1.00
H1068  H     0.64747   0.75166   0.56067   0.00000  Uiso   1.00
H1069  H     0.39739   0.80018   0.96450   0.00000  Uiso   1.00
H1070  H     0.45051   0.84696   0.60896   0.00000  Uiso   1.00
H1071  H     0.54951   0.84684   0.89095   0.00000  Uiso   1.00
H1072  H     0.64556   0.79277   0.61817   0.00000  Uiso   1.00
H1073  H     0.35437   0.79268   0.88198   0.00000  Uiso   1.00
H1074  H     0.52118   0.81697   0.57928   0.00000  Uiso   1.00
H1075  H     0.47882   0.81678   0.92076   0.00000  Uiso   1.00
H1076  H     0.59159   0.70394   0.74969   0.00000  Uiso   1.00
N1077  N     0.45069   0.83334   0.74999   0.00000  Uiso   1.00
N1078  N     0.54931   0.83332   0.75001   0.00000  Uiso   1.00
O1079  O     0.37291   0.77322   0.75000   0.00000  Uiso   1.00
O1080  O     0.34133   0.76364   0.53654   0.00000  Uiso   1.00
O1081  O     0.62709   0.89345   0.75000   0.00000  Uiso   1.00
O1082  O     0.62706   0.77321   0.75000   0.00000  Uiso   1.00
O1083  O     0.37294   0.89346   0.74999   0.00000  Uiso   1.00
O1084  O     0.35186   0.83334   0.81491   0.00000  Uiso   1.00
O1085  O     0.64814   0.83332   0.68508   0.00000  Uiso   1.00
O1086  O     0.60600   0.83333   0.81492   0.00000  Uiso   1.00
O1087  O     0.39400   0.83333   0.68508   0.00000  Uiso   1.00
O1088  O     0.65854   0.76360   0.96377   0.00000  Uiso   1.00
C1089  C     0.99998   0.75411   0.75003   0.00000  Uiso   1.00
C1090  C     0.70877   0.68798   0.75021   0.00000  Uiso   1.00
C1091  C     0.66669   0.95722   0.74997   0.00000  Uiso   1.00
C1092  C     0.99998   0.70945   0.75003   0.00000  Uiso   1.00
C1093  C     0.84803   0.80985   0.77937   0.00000  Uiso   1.00
C1094  C     0.81864   0.85681   0.72063   0.00000  Uiso   1.00
C1095  C     0.79862   0.80985   0.77935   0.00000  Uiso   1.00
C1096  C     0.86804   0.85682   0.72065   0.00000  Uiso   1.00
C1097  C     0.97191   0.83200   0.83535   0.00000  Uiso   1.00
C1098  C     0.69476   0.83205   0.66465   0.00000  Uiso   1.00
C1099  C     0.95530   0.82461   0.88261   0.00000  Uiso   1.00
C1100  C     0.66669   0.91256   0.74997   0.00000  Uiso   1.00
C1101  C     0.71136   0.82469   0.61741   0.00000  Uiso   1.00
C1102  C     0.96865   0.79317   0.94673   0.00000  Uiso   1.00
C1103  C     0.69795   0.79322   0.55344   0.00000  Uiso   1.00
C1104  C     0.98552   0.80340   0.90203   0.00000  Uiso   1.00
C1105  C     0.68110   0.80348   0.59808   0.00000  Uiso   1.00
C1106  C     0.90681   0.83256   0.90701   0.00000  Uiso   1.00
C1107  C     0.75986   0.83266   0.59296   0.00000  Uiso   1.00
C1108  C     0.88990   0.82302   0.95203   0.00000  Uiso   1.00
C1109  C     0.77675   0.82309   0.54799   0.00000  Uiso   1.00
C1110  C     0.92349   0.80860   0.97278   0.00000  Uiso   1.00
C1111  C     0.86302   0.81865   0.54386   0.00000  Uiso   1.00
C1112  C     0.74314   0.80864   0.52731   0.00000  Uiso   1.00
C1113  C     0.84005   0.82421   0.97665   0.00000  Uiso   1.00
C1114  C     0.82661   0.82425   0.52336   0.00000  Uiso   1.00
C1115  C     0.80364   0.81856   0.95618   0.00000  Uiso   1.00
C1116  C     0.91008   0.80808   0.51879   0.00000  Uiso   1.00
C1117  C     0.75656   0.80803   0.98131   0.00000  Uiso   1.00
C1118  C     0.95787   0.68796   0.74983   0.00000  Uiso   1.00
C1119  C     0.70880   0.97872   0.75017   0.00000  Uiso   1.00
C1120  C     0.95789   0.97870   0.74979   0.00000  Uiso   1.00
Cu1121 Cu    0.71355   0.83334   0.75000   0.00000  Uiso   1.00
Cu1122 Cu    0.95311   0.83333   0.75000   0.00000  Uiso   1.00
H1123  H     0.93590   0.80026   0.53564   0.00000  Uiso   1.00
H1124  H     0.74175   0.96273   0.75030   0.00000  Uiso   1.00
H1125  H     0.92496   0.96269   0.74961   0.00000  Uiso   1.00
H1126  H     0.74171   0.70399   0.75039   0.00000  Uiso   1.00
H1127  H     0.85841   0.79093   0.80296   0.00000  Uiso   1.00
H1128  H     0.80826   0.87574   0.69704   0.00000  Uiso   1.00
H1129  H     0.77218   0.79088   0.80291   0.00000  Uiso   1.00
H1130  H     0.89448   0.87578   0.69710   0.00000  Uiso   1.00
H1131  H     0.68570   0.75160   0.93970   0.00000  Uiso   1.00
H1132  H     0.98081   0.75166   0.56067   0.00000  Uiso   1.00
H1133  H     0.73073   0.80018   0.96450   0.00000  Uiso   1.00
H1134  H     0.78385   0.84696   0.60896   0.00000  Uiso   1.00
H1135  H     0.88284   0.84684   0.89095   0.00000  Uiso   1.00
H1136  H     0.97889   0.79277   0.61817   0.00000  Uiso   1.00
H1137  H     0.68771   0.79268   0.88198   0.00000  Uiso   1.00
H1138  H     0.85452   0.81697   0.57928   0.00000  Uiso   1.00
H1139  H     0.81215   0.81678   0.92076   0.00000  Uiso   1.00
H1140  H     0.92492   0.70394   0.74969   0.00000  Uiso   1.00
N1141  N     0.78403   0.83334   0.74999   0.00000  Uiso   1.00
N1142  N     0.88264   0.83332   0.75001   0.00000  Uiso   1.00
O1143  O     0.70625   0.77322   0.75000   0.00000  Uiso   1.00
O1144  O     0.67466   0.76364   0.53654   0.00000  Uiso   1.00
O1145  O     0.96042   0.89345   0.75000   0.00000  Uiso   1.00
O1146  O     0.96039   0.77321   0.75000   0.00000  Uiso   1.00
O1147  O     0.70628   0.89346   0.74999   0.00000  Uiso   1.00
O1148  O     0.68519   0.83334   0.81491   0.00000  Uiso   1.00
O1149  O     0.98148   0.83332   0.68508   0.00000  Uiso   1.00
O1150  O     0.93933   0.83333   0.81492   0.00000  Uiso   1.00
O1151  O     0.72733   0.83333   0.68508   0.00000  Uiso   1.00
O1152  O     0.99187   0.76360   0.96377   0.00000  Uiso   1.00
loop_
_geom_bond_atom_site_label_1
_geom_bond_atom_site_label_2
_geom_bond_distance
_geom_bond_site_symmetry_2
_ccdc_geom_bond_type
C1     C4      1.451   .     S
C1     O58     1.298   .     A
C1     O119    1.298   .     S
C2     H38     1.083   .     S
C2     C132    1.401   1_455 S
C2     C415    1.384   1_545 S
C3     C31     1.401   .     A
C3     C12     1.451   .     S
C3     C160    1.401   1_455 S
C4     C30     1.401   .     A
C4     C66     1.401   .     S
C5     C7      1.423   .     A
C5     H39     1.082   .     S
C5     N54     1.369   .     A
C6     C8      1.423   .     A
C6     N53     1.369   .     A
C6     H40     1.082   .     S
C7     H41     1.082   .     S
C7     N53     1.370   .     A
C8     H42     1.082   .     S
C8     N54     1.370   .     A
C9     C11     1.454   .     S
C9     O62     1.297   .     A
C9     O124    1.300   .     S
C10    O63     1.297   .     A
C10    C13     1.454   .     S
C10    O189    1.300   1_455 S
C11    C18     1.398   .     A
C11    C16     1.395   .     A
C12    O59     1.298   .     A
C12    O185    1.298   1_455 S
C13    C17     1.395   .     A
C13    C19     1.398   .     A
C14    O64     1.374   .     S
C14    C22     1.404   .     A
C14    C16     1.397   .     A
C15    O56     1.374   .     S
C15    C24     1.404   .     A
C15    C17     1.397   .     A
C16    H113    1.084   .     S
C17    H176    1.084   1_455 S
C18    H47     1.082   .     S
C18    C20     1.401   .     A
C19    H46     1.082   .     S
C19    C21     1.401   .     A
C20    C22     1.409   .     A
C20    C25     1.409   .     A
C21    C26     1.410   .     A
C21    C24     1.410   .     A
C22    C604    1.398   .     S
C23    C28     1.389   .     A
C23    C26     1.408   .     A
C23    H50     1.081   .     S
C24    C605    1.398   1_554 S
C25    C27     1.408   .     A
C25    C602    1.419   .     S
C26    C601    1.419   1_554 S
C27    C29     1.389   .     A
C27    H51     1.081   .     S
C28    H35     1.073   .     S
C28    C598    1.398   1_554 S
C29    H45     1.073   .     S
C29    C600    1.398   .     S
C30    H52     1.083   .     S
C30    C416    1.384   1_545 S
C31    H36     1.083   .     S
C31    C194    1.384   .     S
C32    H37     1.083   .     S
C32    C67     1.401   .     S
C32    C222    1.384   .     S
Cu33   O55     1.964   .     S
Cu33   O63     1.985   .     S
Cu33   O59     1.964   .     S
Cu33   O60     1.978   .     S
Cu33   N53     2.030   .     S
Cu33   Cu162   2.701   1_455 S
Cu34   O57     1.964   .     S
Cu34   N54     2.030   .     S
Cu34   O62     1.985   .     S
Cu34   O58     1.964   .     S
Cu34   O61     1.978   .     S
Cu34   Cu97    2.701   .     S
H43    O192    0.992   1_455 S
H44    O120    0.992   .     S
H48    C81     1.084   .     S
H49    C144    1.084   1_455 S
O55    C129    1.298   1_455 S
O56    H172    0.992   1_455 S
O57    C76     1.298   .     S
O60    C137    1.300   1_455 S
O61    C74     1.300   .     S
O64    H107    0.992   .     S
C65    C68     1.451   .     S
C65    O122    1.298   .     A
C65    O183    1.298   .     S
C66    H102    1.083   .     S
C66    C479    1.384   1_545 S
C67    C95     1.401   .     A
C67    C76     1.451   .     S
C68    C94     1.401   .     A
C68    C130    1.401   .     S
C69    C71     1.423   .     A
C69    H103    1.082   .     S
C69    N118    1.369   .     A
C70    C72     1.423   .     A
C70    N117    1.369   .     A
C70    H104    1.082   .     S
C71    H105    1.082   .     S
C71    N117    1.370   .     A
C72    H106    1.082   .     S
C72    N118    1.370   .     A
C73    C75     1.454   .     S
C73    O126    1.297   .     A
C73    O188    1.300   .     S
C74    O127    1.297   .     A
C74    C77     1.454   .     S
C75    C82     1.398   .     A
C75    C80     1.395   .     A
C76    O123    1.298   .     A
C77    C81     1.395   .     A
C77    C83     1.398   .     A
C78    O128    1.374   .     S
C78    C86     1.404   .     A
C78    C80     1.397   .     A
C79    O120    1.374   .     S
C79    C88     1.404   .     A
C79    C81     1.397   .     A
C80    H177    1.084   .     S
C82    H111    1.082   .     S
C82    C84     1.401   .     A
C83    H110    1.082   .     S
C83    C85     1.401   .     A
C84    C86     1.409   .     A
C84    C89     1.409   .     A
C85    C90     1.410   .     A
C85    C88     1.410   .     A
C86    C668    1.398   .     S
C87    C92     1.389   .     A
C87    C90     1.408   .     A
C87    H114    1.081   .     S
C88    C669    1.398   1_554 S
C89    C91     1.408   .     A
C89    C666    1.419   .     S
C90    C665    1.419   1_554 S
C91    C93     1.389   .     A
C91    H115    1.081   .     S
C92    H99     1.073   .     S
C92    C662    1.398   1_554 S
C93    H109    1.073   .     S
C93    C664    1.398   .     S
C94    H116    1.083   .     S
C94    C480    1.384   1_545 S
C95    H100    1.083   .     S
C95    C258    1.384   .     S
C96    H101    1.083   .     S
C96    C131    1.401   .     S
C96    C286    1.384   .     S
Cu97   O119    1.964   .     S
Cu97   O127    1.985   .     S
Cu97   O123    1.964   .     S
Cu97   O124    1.978   .     S
Cu97   N117    2.030   .     S
Cu98   O121    1.964   .     S
Cu98   N118    2.030   .     S
Cu98   O126    1.985   .     S
Cu98   O122    1.964   .     S
Cu98   O125    1.978   .     S
Cu98   Cu161   2.701   .     S
H108   O184    0.992   .     S
H112   C145    1.084   .     S
O121   C140    1.298   .     S
O125   C138    1.300   .     S
O128   H171    0.992   .     S
C129   C132    1.451   .     S
C129   O186    1.298   .     A
C129   O55     1.298   1_655 S
C130   H166    1.083   .     S
C130   C543    1.384   1_545 S
C131   C159    1.401   .     A
C131   C140    1.451   .     S
C132   C158    1.401   .     A
C132   C2      1.401   1_655 S
C133   C135    1.423   .     A
C133   H167    1.082   .     S
C133   N182    1.369   .     A
C134   C136    1.423   .     A
C134   N181    1.369   .     A
C134   H168    1.082   .     S
C135   H169    1.082   .     S
C135   N181    1.370   .     A
C136   H170    1.082   .     S
C136   N182    1.370   .     A
C137   C139    1.454   .     S
C137   O190    1.297   .     A
C137   O60     1.300   1_655 S
C138   O191    1.297   .     A
C138   C141    1.454   .     S
C139   C146    1.398   .     A
C139   C144    1.395   .     A
C140   O187    1.298   .     A
C141   C145    1.395   .     A
C141   C147    1.398   .     A
C142   O192    1.374   .     S
C142   C150    1.404   .     A
C142   C144    1.397   .     A
C143   O184    1.374   .     S
C143   C152    1.404   .     A
C143   C145    1.397   .     A
C144   H49     1.084   1_655 S
C146   H175    1.082   .     S
C146   C148    1.401   .     A
C147   H174    1.082   .     S
C147   C149    1.401   .     A
C148   C150    1.409   .     A
C148   C153    1.409   .     A
C149   C154    1.410   .     A
C149   C152    1.410   .     A
C150   C732    1.398   .     S
C151   C156    1.389   .     A
C151   C154    1.408   .     A
C151   H178    1.081   .     S
C152   C733    1.398   1_554 S
C153   C155    1.408   .     A
C153   C730    1.419   .     S
C154   C729    1.419   1_554 S
C155   C157    1.389   .     A
C155   H179    1.081   .     S
C156   H163    1.073   .     S
C156   C726    1.398   1_554 S
C157   H173    1.073   .     S
C157   C728    1.398   .     S
C158   H180    1.083   .     S
C158   C544    1.384   1_545 S
C159   H164    1.083   .     S
C159   C322    1.384   .     S
C160   H165    1.083   .     S
C160   C3      1.401   1_655 S
C160   C350    1.384   .     S
Cu161  O183    1.964   .     S
Cu161  O191    1.985   .     S
Cu161  O187    1.964   .     S
Cu161  O188    1.978   .     S
Cu161  N181    2.030   .     S
Cu162  O185    1.964   .     S
Cu162  N182    2.030   .     S
Cu162  O190    1.985   .     S
Cu162  O186    1.964   .     S
Cu162  O189    1.978   .     S
Cu162  Cu33    2.701   1_655 S
H172   O56     0.992   1_655 S
H176   C17     1.084   1_655 S
O185   C12     1.298   1_655 S
O189   C10     1.300   1_655 S
O192   H43     0.992   1_655 S
C193   C196    1.451   .     S
C193   O250    1.298   .     A
C193   O311    1.298   .     S
C194   H230    1.083   .     S
C194   C324    1.401   1_455 S
C195   C223    1.401   .     A
C195   C204    1.451   .     S
C195   C352    1.401   1_455 S
C196   C222    1.401   .     A
C196   C258    1.401   .     S
C197   C199    1.423   .     A
C197   H231    1.082   .     S
C197   N246    1.369   .     A
C198   C200    1.423   .     A
C198   N245    1.369   .     A
C198   H232    1.082   .     S
C199   H233    1.082   .     S
C199   N245    1.370   .     A
C200   H234    1.082   .     S
C200   N246    1.370   .     A
C201   C203    1.454   .     S
C201   O254    1.297   .     A
C201   O316    1.300   .     S
C202   O255    1.297   .     A
C202   C205    1.454   .     S
C202   O381    1.300   1_455 S
C203   C210    1.398   .     A
C203   C208    1.395   .     A
C204   O251    1.298   .     A
C204   O377    1.298   1_455 S
C205   C209    1.395   .     A
C205   C211    1.398   .     A
C206   O256    1.374   .     S
C206   C214    1.404   .     A
C206   C208    1.397   .     A
C207   O248    1.374   .     S
C207   C216    1.404   .     A
C207   C209    1.397   .     A
C208   H305    1.084   .     S
C209   H368    1.084   1_455 S
C210   H239    1.082   .     S
C210   C212    1.401   .     A
C211   H238    1.082   .     S
C211   C213    1.401   .     A
C212   C214    1.409   .     A
C212   C217    1.409   .     A
C213   C218    1.410   .     A
C213   C216    1.410   .     A
C214   C796    1.398   .     S
C215   C220    1.389   .     A
C215   C218    1.408   .     A
C215   H242    1.081   .     S
C216   C797    1.398   1_554 S
C217   C219    1.408   .     A
C217   C794    1.419   .     S
C218   C793    1.419   1_554 S
C219   C221    1.389   .     A
C219   H243    1.081   .     S
C220   H227    1.073   .     S
C220   C790    1.398   1_554 S
C221   H237    1.073   .     S
C221   C792    1.398   .     S
C222   H244    1.083   .     S
C223   H228    1.083   .     S
C223   C386    1.384   .     S
C224   H229    1.083   .     S
C224   C259    1.401   .     S
C224   C414    1.384   .     S
Cu225  O247    1.964   .     S
Cu225  O255    1.985   .     S
Cu225  O251    1.964   .     S
Cu225  O252    1.978   .     S
Cu225  N245    2.030   .     S
Cu225  Cu354   2.701   1_455 S
Cu226  O249    1.964   .     S
Cu226  N246    2.030   .     S
Cu226  O254    1.985   .     S
Cu226  O250    1.964   .     S
Cu226  O253    1.978   .     S
Cu226  Cu289   2.701   .     S
H235   O384    0.992   1_455 S
H236   O312    0.992   .     S
H240   C273    1.084   .     S
H241   C336    1.084   1_455 S
O247   C321    1.298   1_455 S
O248   H364    0.992   1_455 S
O249   C268    1.298   .     S
O252   C329    1.300   1_455 S
O253   C266    1.300   .     S
O256   H299    0.992   .     S
C257   C260    1.451   .     S
C257   O314    1.298   .     A
C257   O375    1.298   .     S
C258   H294    1.083   .     S
C259   C287    1.401   .     A
C259   C268    1.451   .     S
C260   C286    1.401   .     A
C260   C322    1.401   .     S
C261   C263    1.423   .     A
C261   H295    1.082   .     S
C261   N310    1.369   .     A
C262   C264    1.423   .     A
C262   N309    1.369   .     A
C262   H296    1.082   .     S
C263   H297    1.082   .     S
C263   N309    1.370   .     A
C264   H298    1.082   .     S
C264   N310    1.370   .     A
C265   C267    1.454   .     S
C265   O318    1.297   .     A
C265   O380    1.300   .     S
C266   O319    1.297   .     A
C266   C269    1.454   .     S
C267   C274    1.398   .     A
C267   C272    1.395   .     A
C268   O315    1.298   .     A
C269   C273    1.395   .     A
C269   C275    1.398   .     A
C270   O320    1.374   .     S
C270   C278    1.404   .     A
C270   C272    1.397   .     A
C271   O312    1.374   .     S
C271   C280    1.404   .     A
C271   C273    1.397   .     A
C272   H369    1.084   .     S
C274   H303    1.082   .     S
C274   C276    1.401   .     A
C275   H302    1.082   .     S
C275   C277    1.401   .     A
C276   C278    1.409   .     A
C276   C281    1.409   .     A
C277   C282    1.410   .     A
C277   C280    1.410   .     A
C278   C860    1.398   .     S
C279   C284    1.389   .     A
C279   C282    1.408   .     A
C279   H306    1.081   .     S
C280   C861    1.398   1_554 S
C281   C283    1.408   .     A
C281   C858    1.419   .     S
C282   C857    1.419   1_554 S
C283   C285    1.389   .     A
C283   H307    1.081   .     S
C284   H291    1.073   .     S
C284   C854    1.398   1_554 S
C285   H301    1.073   .     S
C285   C856    1.398   .     S
C286   H308    1.083   .     S
C287   H292    1.083   .     S
C287   C450    1.384   .     S
C288   H293    1.083   .     S
C288   C323    1.401   .     S
C288   C478    1.384   .     S
Cu289  O311    1.964   .     S
Cu289  O319    1.985   .     S
Cu289  O315    1.964   .     S
Cu289  O316    1.978   .     S
Cu289  N309    2.030   .     S
Cu290  O313    1.964   .     S
Cu290  N310    2.030   .     S
Cu290  O318    1.985   .     S
Cu290  O314    1.964   .     S
Cu290  O317    1.978   .     S
Cu290  Cu353   2.701   .     S
H300   O376    0.992   .     S
H304   C337    1.084   .     S
O313   C332    1.298   .     S
O317   C330    1.300   .     S
O320   H363    0.992   .     S
C321   C324    1.451   .     S
C321   O378    1.298   .     A
C321   O247    1.298   1_655 S
C322   H358    1.083   .     S
C323   C351    1.401   .     A
C323   C332    1.451   .     S
C324   C350    1.401   .     A
C324   C194    1.401   1_655 S
C325   C327    1.423   .     A
C325   H359    1.082   .     S
C325   N374    1.369   .     A
C326   C328    1.423   .     A
C326   N373    1.369   .     A
C326   H360    1.082   .     S
C327   H361    1.082   .     S
C327   N373    1.370   .     A
C328   H362    1.082   .     S
C328   N374    1.370   .     A
C329   C331    1.454   .     S
C329   O382    1.297   .     A
C329   O252    1.300   1_655 S
C330   O383    1.297   .     A
C330   C333    1.454   .     S
C331   C338    1.398   .     A
C331   C336    1.395   .     A
C332   O379    1.298   .     A
C333   C337    1.395   .     A
C333   C339    1.398   .     A
C334   O384    1.374   .     S
C334   C342    1.404   .     A
C334   C336    1.397   .     A
C335   O376    1.374   .     S
C335   C344    1.404   .     A
C335   C337    1.397   .     A
C336   H241    1.084   1_655 S
C338   H367    1.082   .     S
C338   C340    1.401   .     A
C339   H366    1.082   .     S
C339   C341    1.401   .     A
C340   C342    1.409   .     A
C340   C345    1.409   .     A
C341   C346    1.410   .     A
C341   C344    1.410   .     A
C342   C924    1.398   .     S
C343   C348    1.389   .     A
C343   C346    1.408   .     A
C343   H370    1.081   .     S
C344   C925    1.398   1_554 S
C345   C347    1.408   .     A
C345   C922    1.419   .     S
C346   C921    1.419   1_554 S
C347   C349    1.389   .     A
C347   H371    1.081   .     S
C348   H355    1.073   .     S
C348   C918    1.398   1_554 S
C349   H365    1.073   .     S
C349   C920    1.398   .     S
C350   H372    1.083   .     S
C351   H356    1.083   .     S
C351   C514    1.384   .     S
C352   H357    1.083   .     S
C352   C195    1.401   1_655 S
C352   C542    1.384   .     S
Cu353  O375    1.964   .     S
Cu353  O383    1.985   .     S
Cu353  O379    1.964   .     S
Cu353  O380    1.978   .     S
Cu353  N373    2.030   .     S
Cu354  O377    1.964   .     S
Cu354  N374    2.030   .     S
Cu354  O382    1.985   .     S
Cu354  O378    1.964   .     S
Cu354  O381    1.978   .     S
Cu354  Cu225   2.701   1_655 S
H364   O248    0.992   1_655 S
H368   C209    1.084   1_655 S
O377   C204    1.298   1_655 S
O381   C202    1.300   1_655 S
O384   H235    0.992   1_655 S
C385   C388    1.451   .     S
C385   O442    1.298   .     A
C385   O503    1.298   .     S
C386   H422    1.083   .     S
C386   C516    1.401   1_455 S
C387   C415    1.401   .     A
C387   C396    1.451   .     S
C387   C544    1.401   1_455 S
C388   C414    1.401   .     A
C388   C450    1.401   .     S
C389   C391    1.423   .     A
C389   H423    1.082   .     S
C389   N438    1.369   .     A
C390   C392    1.423   .     A
C390   N437    1.369   .     A
C390   H424    1.082   .     S
C391   H425    1.082   .     S
C391   N437    1.370   .     A
C392   H426    1.082   .     S
C392   N438    1.370   .     A
C393   C395    1.454   .     S
C393   O446    1.297   .     A
C393   O508    1.300   .     S
C394   O447    1.297   .     A
C394   C397    1.454   .     S
C394   O573    1.300   1_455 S
C395   C402    1.398   .     A
C395   C400    1.395   .     A
C396   O443    1.298   .     A
C396   O569    1.298   1_455 S
C397   C401    1.395   .     A
C397   C403    1.398   .     A
C398   O448    1.374   .     S
C398   C406    1.404   .     A
C398   C400    1.397   .     A
C399   O440    1.374   .     S
C399   C408    1.404   .     A
C399   C401    1.397   .     A
C400   H497    1.084   .     S
C401   H560    1.084   1_455 S
C402   H431    1.082   .     S
C402   C404    1.401   .     A
C403   H430    1.082   .     S
C403   C405    1.401   .     A
C404   C406    1.409   .     A
C404   C409    1.409   .     A
C405   C410    1.410   .     A
C405   C408    1.410   .     A
C406   C988    1.398   .     S
C407   C412    1.389   .     A
C407   C410    1.408   .     A
C407   H434    1.081   .     S
C408   C989    1.398   1_554 S
C409   C411    1.408   .     A
C409   C986    1.419   .     S
C410   C985    1.419   1_554 S
C411   C413    1.389   .     A
C411   H435    1.081   .     S
C412   H419    1.073   .     S
C412   C982    1.398   1_554 S
C413   H429    1.073   .     S
C413   C984    1.398   .     S
C414   H436    1.083   .     S
C415   H420    1.083   .     S
C415   C2      1.384   1_565 S
C416   H421    1.083   .     S
C416   C451    1.401   .     S
C416   C30     1.384   1_565 S
Cu417  O439    1.964   .     S
Cu417  O447    1.985   .     S
Cu417  O443    1.964   .     S
Cu417  O444    1.978   .     S
Cu417  N437    2.030   .     S
Cu417  Cu546   2.701   1_455 S
Cu418  O441    1.964   .     S
Cu418  N438    2.030   .     S
Cu418  O446    1.985   .     S
Cu418  O442    1.964   .     S
Cu418  O445    1.978   .     S
Cu418  Cu481   2.701   .     S
H427   O576    0.992   1_455 S
H428   O504    0.992   .     S
H432   C465    1.084   .     S
H433   C528    1.084   1_455 S
O439   C513    1.298   1_455 S
O440   H556    0.992   1_455 S
O441   C460    1.298   .     S
O444   C521    1.300   1_455 S
O445   C458    1.300   .     S
O448   H491    0.992   .     S
C449   C452    1.451   .     S
C449   O506    1.298   .     A
C449   O567    1.298   .     S
C450   H486    1.083   .     S
C451   C479    1.401   .     A
C451   C460    1.451   .     S
C452   C478    1.401   .     A
C452   C514    1.401   .     S
C453   C455    1.423   .     A
C453   H487    1.082   .     S
C453   N502    1.369   .     A
C454   C456    1.423   .     A
C454   N501    1.369   .     A
C454   H488    1.082   .     S
C455   H489    1.082   .     S
C455   N501    1.370   .     A
C456   H490    1.082   .     S
C456   N502    1.370   .     A
C457   C459    1.454   .     S
C457   O510    1.297   .     A
C457   O572    1.300   .     S
C458   O511    1.297   .     A
C458   C461    1.454   .     S
C459   C466    1.398   .     A
C459   C464    1.395   .     A
C460   O507    1.298   .     A
C461   C465    1.395   .     A
C461   C467    1.398   .     A
C462   O512    1.374   .     S
C462   C470    1.404   .     A
C462   C464    1.397   .     A
C463   O504    1.374   .     S
C463   C472    1.404   .     A
C463   C465    1.397   .     A
C464   H561    1.084   .     S
C466   H495    1.082   .     S
C466   C468    1.401   .     A
C467   H494    1.082   .     S
C467   C469    1.401   .     A
C468   C470    1.409   .     A
C468   C473    1.409   .     A
C469   C474    1.410   .     A
C469   C472    1.410   .     A
C470   C1052   1.398   .     S
C471   C476    1.389   .     A
C471   C474    1.408   .     A
C471   H498    1.081   .     S
C472   C1053   1.398   1_554 S
C473   C475    1.408   .     A
C473   C1050   1.419   .     S
C474   C1049   1.419   1_554 S
C475   C477    1.389   .     A
C475   H499    1.081   .     S
C476   H483    1.073   .     S
C476   C1046   1.398   1_554 S
C477   H493    1.073   .     S
C477   C1048   1.398   .     S
C478   H500    1.083   .     S
C479   H484    1.083   .     S
C479   C66     1.384   1_565 S
C480   H485    1.083   .     S
C480   C515    1.401   .     S
C480   C94     1.384   1_565 S
Cu481  O503    1.964   .     S
Cu481  O511    1.985   .     S
Cu481  O507    1.964   .     S
Cu481  O508    1.978   .     S
Cu481  N501    2.030   .     S
Cu482  O505    1.964   .     S
Cu482  N502    2.030   .     S
Cu482  O510    1.985   .     S
Cu482  O506    1.964   .     S
Cu482  O509    1.978   .     S
Cu482  Cu545   2.701   .     S
H492   O568    0.992   .     S
H496   C529    1.084   .     S
O505   C524    1.298   .     S
O509   C522    1.300   .     S
O512   H555    0.992   .     S
C513   C516    1.451   .     S
C513   O570    1.298   .     A
C513   O439    1.298   1_655 S
C514   H550    1.083   .     S
C515   C543    1.401   .     A
C515   C524    1.451   .     S
C516   C542    1.401   .     A
C516   C386    1.401   1_655 S
C517   C519    1.423   .     A
C517   H551    1.082   .     S
C517   N566    1.369   .     A
C518   C520    1.423   .     A
C518   N565    1.369   .     A
C518   H552    1.082   .     S
C519   H553    1.082   .     S
C519   N565    1.370   .     A
C520   H554    1.082   .     S
C520   N566    1.370   .     A
C521   C523    1.454   .     S
C521   O574    1.297   .     A
C521   O444    1.300   1_655 S
C522   O575    1.297   .     A
C522   C525    1.454   .     S
C523   C530    1.398   .     A
C523   C528    1.395   .     A
C524   O571    1.298   .     A
C525   C529    1.395   .     A
C525   C531    1.398   .     A
C526   O576    1.374   .     S
C526   C534    1.404   .     A
C526   C528    1.397   .     A
C527   O568    1.374   .     S
C527   C536    1.404   .     A
C527   C529    1.397   .     A
C528   H433    1.084   1_655 S
C530   H559    1.082   .     S
C530   C532    1.401   .     A
C531   H558    1.082   .     S
C531   C533    1.401   .     A
C532   C534    1.409   .     A
C532   C537    1.409   .     A
C533   C538    1.410   .     A
C533   C536    1.410   .     A
C534   C1116   1.398   .     S
C535   C540    1.389   .     A
C535   C538    1.408   .     A
C535   H562    1.081   .     S
C536   C1117   1.398   1_554 S
C537   C539    1.408   .     A
C537   C1114   1.419   .     S
C538   C1113   1.419   1_554 S
C539   C541    1.389   .     A
C539   H563    1.081   .     S
C540   H547    1.073   .     S
C540   C1110   1.398   1_554 S
C541   H557    1.073   .     S
C541   C1112   1.398   .     S
C542   H564    1.083   .     S
C543   H548    1.083   .     S
C543   C130    1.384   1_565 S
C544   H549    1.083   .     S
C544   C387    1.401   1_655 S
C544   C158    1.384   1_565 S
Cu545  O567    1.964   .     S
Cu545  O575    1.985   .     S
Cu545  O571    1.964   .     S
Cu545  O572    1.978   .     S
Cu545  N565    2.030   .     S
Cu546  O569    1.964   .     S
Cu546  N566    2.030   .     S
Cu546  O574    1.985   .     S
Cu546  O570    1.964   .     S
Cu546  O573    1.978   .     S
Cu546  Cu417   2.701   1_655 S
H556   O440    0.992   1_655 S
H560   C401    1.084   1_655 S
O569   C396    1.298   1_655 S
O573   C394    1.300   1_655 S
O576   H427    0.992   1_655 S
C577   C580    1.451   .     S
C577   O634    1.298   .     A
C577   O695    1.298   .     S
C578   H614    1.083   .     S
C578   C708    1.401   1_455 S
C578   C991    1.384   1_545 S
C579   C607    1.401   .     A
C579   C588    1.451   .     S
C579   C736    1.401   1_455 S
C580   C606    1.401   .     A
C580   C642    1.401   .     S
C581   C583    1.423   .     A
C581   H615    1.082   .     S
C581   N630    1.369   .     A
C582   C584    1.423   .     A
C582   N629    1.369   .     A
C582   H616    1.082   .     S
C583   H617    1.082   .     S
C583   N629    1.370   .     A
C584   H618    1.082   .     S
C584   N630    1.370   .     A
C585   C587    1.454   .     S
C585   O638    1.297   .     A
C585   O700    1.300   .     S
C586   O639    1.297   .     A
C586   C589    1.454   .     S
C586   O765    1.300   1_455 S
C587   C594    1.398   .     A
C587   C592    1.395   .     A
C588   O635    1.298   .     A
C588   O761    1.298   1_455 S
C589   C593    1.395   .     A
C589   C595    1.398   .     A
C590   O640    1.374   .     S
C590   C598    1.404   .     A
C590   C592    1.397   .     A
C591   O632    1.374   .     S
C591   C600    1.404   .     A
C591   C593    1.397   .     A
C592   H689    1.084   .     S
C593   H752    1.084   1_455 S
C594   H623    1.082   .     S
C594   C596    1.401   .     A
C595   H622    1.082   .     S
C595   C597    1.401   .     A
C596   C598    1.409   .     A
C596   C601    1.409   .     A
C597   C602    1.410   .     A
C597   C600    1.410   .     A
C598   C28     1.398   1_556 S
C599   C604    1.389   .     A
C599   C602    1.408   .     A
C599   H626    1.081   .     S
C601   C603    1.408   .     A
C601   C26     1.419   1_556 S
C603   C605    1.389   .     A
C603   H627    1.081   .     S
C604   H611    1.073   .     S
C605   H621    1.073   .     S
C605   C24     1.398   1_556 S
C606   H628    1.083   .     S
C606   C992    1.384   1_545 S
C607   H612    1.083   .     S
C607   C770    1.384   .     S
C608   H613    1.083   .     S
C608   C643    1.401   .     S
C608   C798    1.384   .     S
Cu609  O631    1.964   .     S
Cu609  O639    1.985   .     S
Cu609  O635    1.964   .     S
Cu609  O636    1.978   .     S
Cu609  N629    2.030   .     S
Cu609  Cu738   2.701   1_455 S
Cu610  O633    1.964   .     S
Cu610  N630    2.030   .     S
Cu610  O638    1.985   .     S
Cu610  O634    1.964   .     S
Cu610  O637    1.978   .     S
Cu610  Cu673   2.701   .     S
H619   O768    0.992   1_455 S
H620   O696    0.992   .     S
H624   C657    1.084   .     S
H625   C720    1.084   1_455 S
O631   C705    1.298   1_455 S
O632   H748    0.992   1_455 S
O633   C652    1.298   .     S
O636   C713    1.300   1_455 S
O637   C650    1.300   .     S
O640   H683    0.992   .     S
C641   C644    1.451   .     S
C641   O698    1.298   .     A
C641   O759    1.298   .     S
C642   H678    1.083   .     S
C642   C1055   1.384   1_545 S
C643   C671    1.401   .     A
C643   C652    1.451   .     S
C644   C670    1.401   .     A
C644   C706    1.401   .     S
C645   C647    1.423   .     A
C645   H679    1.082   .     S
C645   N694    1.369   .     A
C646   C648    1.423   .     A
C646   N693    1.369   .     A
C646   H680    1.082   .     S
C647   H681    1.082   .     S
C647   N693    1.370   .     A
C648   H682    1.082   .     S
C648   N694    1.370   .     A
C649   C651    1.454   .     S
C649   O702    1.297   .     A
C649   O764    1.300   .     S
C650   O703    1.297   .     A
C650   C653    1.454   .     S
C651   C658    1.398   .     A
C651   C656    1.395   .     A
C652   O699    1.298   .     A
C653   C657    1.395   .     A
C653   C659    1.398   .     A
C654   O704    1.374   .     S
C654   C662    1.404   .     A
C654   C656    1.397   .     A
C655   O696    1.374   .     S
C655   C664    1.404   .     A
C655   C657    1.397   .     A
C656   H753    1.084   .     S
C658   H687    1.082   .     S
C658   C660    1.401   .     A
C659   H686    1.082   .     S
C659   C661    1.401   .     A
C660   C662    1.409   .     A
C660   C665    1.409   .     A
C661   C666    1.410   .     A
C661   C664    1.410   .     A
C662   C92     1.398   1_556 S
C663   C668    1.389   .     A
C663   C666    1.408   .     A
C663   H690    1.081   .     S
C665   C667    1.408   .     A
C665   C90     1.419   1_556 S
C667   C669    1.389   .     A
C667   H691    1.081   .     S
C668   H675    1.073   .     S
C669   H685    1.073   .     S
C669   C88     1.398   1_556 S
C670   H692    1.083   .     S
C670   C1056   1.384   1_545 S
C671   H676    1.083   .     S
C671   C834    1.384   .     S
C672   H677    1.083   .     S
C672   C707    1.401   .     S
C672   C862    1.384   .     S
Cu673  O695    1.964   .     S
Cu673  O703    1.985   .     S
Cu673  O699    1.964   .     S
Cu673  O700    1.978   .     S
Cu673  N693    2.030   .     S
Cu674  O697    1.964   .     S
Cu674  N694    2.030   .     S
Cu674  O702    1.985   .     S
Cu674  O698    1.964   .     S
Cu674  O701    1.978   .     S
Cu674  Cu737   2.701   .     S
H684   O760    0.992   .     S
H688   C721    1.084   .     S
O697   C716    1.298   .     S
O701   C714    1.300   .     S
O704   H747    0.992   .     S
C705   C708    1.451   .     S
C705   O762    1.298   .     A
C705   O631    1.298   1_655 S
C706   H742    1.083   .     S
C706   C1119   1.384   1_545 S
C707   C735    1.401   .     A
C707   C716    1.451   .     S
C708   C734    1.401   .     A
C708   C578    1.401   1_655 S
C709   C711    1.423   .     A
C709   H743    1.082   .     S
C709   N758    1.369   .     A
C710   C712    1.423   .     A
C710   N757    1.369   .     A
C710   H744    1.082   .     S
C711   H745    1.082   .     S
C711   N757    1.370   .     A
C712   H746    1.082   .     S
C712   N758    1.370   .     A
C713   C715    1.454   .     S
C713   O766    1.297   .     A
C713   O636    1.300   1_655 S
C714   O767    1.297   .     A
C714   C717    1.454   .     S
C715   C722    1.398   .     A
C715   C720    1.395   .     A
C716   O763    1.298   .     A
C717   C721    1.395   .     A
C717   C723    1.398   .     A
C718   O768    1.374   .     S
C718   C726    1.404   .     A
C718   C720    1.397   .     A
C719   O760    1.374   .     S
C719   C728    1.404   .     A
C719   C721    1.397   .     A
C720   H625    1.084   1_655 S
C722   H751    1.082   .     S
C722   C724    1.401   .     A
C723   H750    1.082   .     S
C723   C725    1.401   .     A
C724   C726    1.409   .     A
C724   C729    1.409   .     A
C725   C730    1.410   .     A
C725   C728    1.410   .     A
C726   C156    1.398   1_556 S
C727   C732    1.389   .     A
C727   C730    1.408   .     A
C727   H754    1.081   .     S
C729   C731    1.408   .     A
C729   C154    1.419   1_556 S
C731   C733    1.389   .     A
C731   H755    1.081   .     S
C732   H739    1.073   .     S
C733   H749    1.073   .     S
C733   C152    1.398   1_556 S
C734   H756    1.083   .     S
C734   C1120   1.384   1_545 S
C735   H740    1.083   .     S
C735   C898    1.384   .     S
C736   H741    1.083   .     S
C736   C579    1.401   1_655 S
C736   C926    1.384   .     S
Cu737  O759    1.964   .     S
Cu737  O767    1.985   .     S
Cu737  O763    1.964   .     S
Cu737  O764    1.978   .     S
Cu737  N757    2.030   .     S
Cu738  O761    1.964   .     S
Cu738  N758    2.030   .     S
Cu738  O766    1.985   .     S
Cu738  O762    1.964   .     S
Cu738  O765    1.978   .     S
Cu738  Cu609   2.701   1_655 S
H748   O632    0.992   1_655 S
H752   C593    1.084   1_655 S
O761   C588    1.298   1_655 S
O765   C586    1.300   1_655 S
O768   H619    0.992   1_655 S
C769   C772    1.451   .     S
C769   O826    1.298   .     A
C769   O887    1.298   .     S
C770   H806    1.083   .     S
C770   C900    1.401   1_455 S
C771   C799    1.401   .     A
C771   C780    1.451   .     S
C771   C928    1.401   1_455 S
C772   C798    1.401   .     A
C772   C834    1.401   .     S
C773   C775    1.423   .     A
C773   H807    1.082   .     S
C773   N822    1.369   .     A
C774   C776    1.423   .     A
C774   N821    1.369   .     A
C774   H808    1.082   .     S
C775   H809    1.082   .     S
C775   N821    1.370   .     A
C776   H810    1.082   .     S
C776   N822    1.370   .     A
C777   C779    1.454   .     S
C777   O830    1.297   .     A
C777   O892    1.300   .     S
C778   O831    1.297   .     A
C778   C781    1.454   .     S
C778   O957    1.300   1_455 S
C779   C786    1.398   .     A
C779   C784    1.395   .     A
C780   O827    1.298   .     A
C780   O953    1.298   1_455 S
C781   C785    1.395   .     A
C781   C787    1.398   .     A
C782   O832    1.374   .     S
C782   C790    1.404   .     A
C782   C784    1.397   .     A
C783   O824    1.374   .     S
C783   C792    1.404   .     A
C783   C785    1.397   .     A
C784   H881    1.084   .     S
C785   H944    1.084   1_455 S
C786   H815    1.082   .     S
C786   C788    1.401   .     A
C787   H814    1.082   .     S
C787   C789    1.401   .     A
C788   C790    1.409   .     A
C788   C793    1.409   .     A
C789   C794    1.410   .     A
C789   C792    1.410   .     A
C790   C220    1.398   1_556 S
C791   C796    1.389   .     A
C791   C794    1.408   .     A
C791   H818    1.081   .     S
C793   C795    1.408   .     A
C793   C218    1.419   1_556 S
C795   C797    1.389   .     A
C795   H819    1.081   .     S
C796   H803    1.073   .     S
C797   H813    1.073   .     S
C797   C216    1.398   1_556 S
C798   H820    1.083   .     S
C799   H804    1.083   .     S
C799   C962    1.384   .     S
C800   H805    1.083   .     S
C800   C835    1.401   .     S
C800   C990    1.384   .     S
Cu801  O823    1.964   .     S
Cu801  O831    1.985   .     S
Cu801  O827    1.964   .     S
Cu801  O828    1.978   .     S
Cu801  N821    2.030   .     S
Cu801  Cu930   2.701   1_455 S
Cu802  O825    1.964   .     S
Cu802  N822    2.030   .     S
Cu802  O830    1.985   .     S
Cu802  O826    1.964   .     S
Cu802  O829    1.978   .     S
Cu802  Cu865   2.701   .     S
H811   O960    0.992   1_455 S
H812   O888    0.992   .     S
H816   C849    1.084   .     S
H817   C912    1.084   1_455 S
O823   C897    1.298   1_455 S
O824   H940    0.992   1_455 S
O825   C844    1.298   .     S
O828   C905    1.300   1_455 S
O829   C842    1.300   .     S
O832   H875    0.992   .     S
C833   C836    1.451   .     S
C833   O890    1.298   .     A
C833   O951    1.298   .     S
C834   H870    1.083   .     S
C835   C863    1.401   .     A
C835   C844    1.451   .     S
C836   C862    1.401   .     A
C836   C898    1.401   .     S
C837   C839    1.423   .     A
C837   H871    1.082   .     S
C837   N886    1.369   .     A
C838   C840    1.423   .     A
C838   N885    1.369   .     A
C838   H872    1.082   .     S
C839   H873    1.082   .     S
C839   N885    1.370   .     A
C840   H874    1.082   .     S
C840   N886    1.370   .     A
C841   C843    1.454   .     S
C841   O894    1.297   .     A
C841   O956    1.300   .     S
C842   O895    1.297   .     A
C842   C845    1.454   .     S
C843   C850    1.398   .     A
C843   C848    1.395   .     A
C844   O891    1.298   .     A
C845   C849    1.395   .     A
C845   C851    1.398   .     A
C846   O896    1.374   .     S
C846   C854    1.404   .     A
C846   C848    1.397   .     A
C847   O888    1.374   .     S
C847   C856    1.404   .     A
C847   C849    1.397   .     A
C848   H945    1.084   .     S
C850   H879    1.082   .     S
C850   C852    1.401   .     A
C851   H878    1.082   .     S
C851   C853    1.401   .     A
C852   C854    1.409   .     A
C852   C857    1.409   .     A
C853   C858    1.410   .     A
C853   C856    1.410   .     A
C854   C284    1.398   1_556 S
C855   C860    1.389   .     A
C855   C858    1.408   .     A
C855   H882    1.081   .     S
C857   C859    1.408   .     A
C857   C282    1.419   1_556 S
C859   C861    1.389   .     A
C859   H883    1.081   .     S
C860   H867    1.073   .     S
C861   H877    1.073   .     S
C861   C280    1.398   1_556 S
C862   H884    1.083   .     S
C863   H868    1.083   .     S
C863   C1026   1.384   .     S
C864   H869    1.083   .     S
C864   C899    1.401   .     S
C864   C1054   1.384   .     S
Cu865  O887    1.964   .     S
Cu865  O895    1.985   .     S
Cu865  O891    1.964   .     S
Cu865  O892    1.978   .     S
Cu865  N885    2.030   .     S
Cu866  O889    1.964   .     S
Cu866  N886    2.030   .     S
Cu866  O894    1.985   .     S
Cu866  O890    1.964   .     S
Cu866  O893    1.978   .     S
Cu866  Cu929   2.701   .     S
H876   O952    0.992   .     S
H880   C913    1.084   .     S
O889   C908    1.298   .     S
O893   C906    1.300   .     S
O896   H939    0.992   .     S
C897   C900    1.451   .     S
C897   O954    1.298   .     A
C897   O823    1.298   1_655 S
C898   H934    1.083   .     S
C899   C927    1.401   .     A
C899   C908    1.451   .     S
C900   C926    1.401   .     A
C900   C770    1.401   1_655 S
C901   C903    1.423   .     A
C901   H935    1.082   .     S
C901   N950    1.369   .     A
C902   C904    1.423   .     A
C902   N949    1.369   .     A
C902   H936    1.082   .     S
C903   H937    1.082   .     S
C903   N949    1.370   .     A
C904   H938    1.082   .     S
C904   N950    1.370   .     A
C905   C907    1.454   .     S
C905   O958    1.297   .     A
C905   O828    1.300   1_655 S
C906   O959    1.297   .     A
C906   C909    1.454   .     S
C907   C914    1.398   .     A
C907   C912    1.395   .     A
C908   O955    1.298   .     A
C909   C913    1.395   .     A
C909   C915    1.398   .     A
C910   O960    1.374   .     S
C910   C918    1.404   .     A
C910   C912    1.397   .     A
C911   O952    1.374   .     S
C911   C920    1.404   .     A
C911   C913    1.397   .     A
C912   H817    1.084   1_655 S
C914   H943    1.082   .     S
C914   C916    1.401   .     A
C915   H942    1.082   .     S
C915   C917    1.401   .     A
C916   C918    1.409   .     A
C916   C921    1.409   .     A
C917   C922    1.410   .     A
C917   C920    1.410   .     A
C918   C348    1.398   1_556 S
C919   C924    1.389   .     A
C919   C922    1.408   .     A
C919   H946    1.081   .     S
C921   C923    1.408   .     A
C921   C346    1.419   1_556 S
C923   C925    1.389   .     A
C923   H947    1.081   .     S
C924   H931    1.073   .     S
C925   H941    1.073   .     S
C925   C344    1.398   1_556 S
C926   H948    1.083   .     S
C927   H932    1.083   .     S
C927   C1090   1.384   .     S
C928   H933    1.083   .     S
C928   C771    1.401   1_655 S
C928   C1118   1.384   .     S
Cu929  O951    1.964   .     S
Cu929  O959    1.985   .     S
Cu929  O955    1.964   .     S
Cu929  O956    1.978   .     S
Cu929  N949    2.030   .     S
Cu930  O953    1.964   .     S
Cu930  N950    2.030   .     S
Cu930  O958    1.985   .     S
Cu930  O954    1.964   .     S
Cu930  O957    1.978   .     S
Cu930  Cu801   2.701   1_655 S
H940   O824    0.992   1_655 S
H944   C785    1.084   1_655 S
O953   C780    1.298   1_655 S
O957   C778    1.300   1_655 S
O960   H811    0.992   1_655 S
C961   C964    1.451   .     S
C961   O1018   1.298   .     A
C961   O1079   1.298   .     S
C962   H998    1.083   .     S
C962   C1092   1.401   1_455 S
C963   C991    1.401   .     A
C963   C972    1.451   .     S
C963   C1120   1.401   1_455 S
C964   C990    1.401   .     A
C964   C1026   1.401   .     S
C965   C967    1.423   .     A
C965   H999    1.082   .     S
C965   N1014   1.369   .     A
C966   C968    1.423   .     A
C966   N1013   1.369   .     A
C966   H1000   1.082   .     S
C967   H1001   1.082   .     S
C967   N1013   1.370   .     A
C968   H1002   1.082   .     S
C968   N1014   1.370   .     A
C969   C971    1.454   .     S
C969   O1022   1.297   .     A
C969   O1084   1.300   .     S
C970   O1023   1.297   .     A
C970   C973    1.454   .     S
C970   O1149   1.300   1_455 S
C971   C978    1.398   .     A
C971   C976    1.395   .     A
C972   O1019   1.298   .     A
C972   O1145   1.298   1_455 S
C973   C977    1.395   .     A
C973   C979    1.398   .     A
C974   O1024   1.374   .     S
C974   C982    1.404   .     A
C974   C976    1.397   .     A
C975   O1016   1.374   .     S
C975   C984    1.404   .     A
C975   C977    1.397   .     A
C976   H1073   1.084   .     S
C977   H1136   1.084   1_455 S
C978   H1007   1.082   .     S
C978   C980    1.401   .     A
C979   H1006   1.082   .     S
C979   C981    1.401   .     A
C980   C982    1.409   .     A
C980   C985    1.409   .     A
C981   C986    1.410   .     A
C981   C984    1.410   .     A
C982   C412    1.398   1_556 S
C983   C988    1.389   .     A
C983   C986    1.408   .     A
C983   H1010   1.081   .     S
C985   C987    1.408   .     A
C985   C410    1.419   1_556 S
C987   C989    1.389   .     A
C987   H1011   1.081   .     S
C988   H995    1.073   .     S
C989   H1005   1.073   .     S
C989   C408    1.398   1_556 S
C990   H1012   1.083   .     S
C991   H996    1.083   .     S
C991   C578    1.384   1_565 S
C992   H997    1.083   .     S
C992   C1027   1.401   .     S
C992   C606    1.384   1_565 S
Cu993  O1015   1.964   .     S
Cu993  O1023   1.985   .     S
Cu993  O1019   1.964   .     S
Cu993  O1020   1.978   .     S
Cu993  N1013   2.030   .     S
Cu993  Cu1122  2.701   1_455 S
Cu994  O1017   1.964   .     S
Cu994  N1014   2.030   .     S
Cu994  O1022   1.985   .     S
Cu994  O1018   1.964   .     S
Cu994  O1021   1.978   .     S
Cu994  Cu1057  2.701   .     S
H1003  O1152   0.992   1_455 S
H1004  O1080   0.992   .     S
H1008  C1041   1.084   .     S
H1009  C1104   1.084   1_455 S
O1015  C1089   1.298   1_455 S
O1016  H1132   0.992   1_455 S
O1017  C1036   1.298   .     S
O1020  C1097   1.300   1_455 S
O1021  C1034   1.300   .     S
O1024  H1067   0.992   .     S
C1025  C1028   1.451   .     S
C1025  O1082   1.298   .     A
C1025  O1143   1.298   .     S
C1026  H1062   1.083   .     S
C1027  C1055   1.401   .     A
C1027  C1036   1.451   .     S
C1028  C1054   1.401   .     A
C1028  C1090   1.401   .     S
C1029  C1031   1.423   .     A
C1029  H1063   1.082   .     S
C1029  N1078   1.369   .     A
C1030  C1032   1.423   .     A
C1030  N1077   1.369   .     A
C1030  H1064   1.082   .     S
C1031  H1065   1.082   .     S
C1031  N1077   1.370   .     A
C1032  H1066   1.082   .     S
C1032  N1078   1.370   .     A
C1033  C1035   1.454   .     S
C1033  O1086   1.297   .     A
C1033  O1148   1.300   .     S
C1034  O1087   1.297   .     A
C1034  C1037   1.454   .     S
C1035  C1042   1.398   .     A
C1035  C1040   1.395   .     A
C1036  O1083   1.298   .     A
C1037  C1041   1.395   .     A
C1037  C1043   1.398   .     A
C1038  O1088   1.374   .     S
C1038  C1046   1.404   .     A
C1038  C1040   1.397   .     A
C1039  O1080   1.374   .     S
C1039  C1048   1.404   .     A
C1039  C1041   1.397   .     A
C1040  H1137   1.084   .     S
C1042  H1071   1.082   .     S
C1042  C1044   1.401   .     A
C1043  H1070   1.082   .     S
C1043  C1045   1.401   .     A
C1044  C1046   1.409   .     A
C1044  C1049   1.409   .     A
C1045  C1050   1.410   .     A
C1045  C1048   1.410   .     A
C1046  C476    1.398   1_556 S
C1047  C1052   1.389   .     A
C1047  C1050   1.408   .     A
C1047  H1074   1.081   .     S
C1049  C1051   1.408   .     A
C1049  C474    1.419   1_556 S
C1051  C1053   1.389   .     A
C1051  H1075   1.081   .     S
C1052  H1059   1.073   .     S
C1053  H1069   1.073   .     S
C1053  C472    1.398   1_556 S
C1054  H1076   1.083   .     S
C1055  H1060   1.083   .     S
C1055  C642    1.384   1_565 S
C1056  H1061   1.083   .     S
C1056  C1091   1.401   .     S
C1056  C670    1.384   1_565 S
Cu1057 O1079   1.964   .     S
Cu1057 O1087   1.985   .     S
Cu1057 O1083   1.964   .     S
Cu1057 O1084   1.978   .     S
Cu1057 N1077   2.030   .     S
Cu1058 O1081   1.964   .     S
Cu1058 N1078   2.030   .     S
Cu1058 O1086   1.985   .     S
Cu1058 O1082   1.964   .     S
Cu1058 O1085   1.978   .     S
Cu1058 Cu1121  2.701   .     S
H1068  O1144   0.992   .     S
H1072  C1105   1.084   .     S
O1081  C1100   1.298   .     S
O1085  C1098   1.300   .     S
O1088  H1131   0.992   .     S
C1089  C1092   1.451   .     S
C1089  O1146   1.298   .     A
C1089  O1015   1.298   1_655 S
C1090  H1126   1.083   .     S
C1091  C1119   1.401   .     A
C1091  C1100   1.451   .     S
C1092  C1118   1.401   .     A
C1092  C962    1.401   1_655 S
C1093  C1095   1.423   .     A
C1093  H1127   1.082   .     S
C1093  N1142   1.369   .     A
C1094  C1096   1.423   .     A
C1094  N1141   1.369   .     A
C1094  H1128   1.082   .     S
C1095  H1129   1.082   .     S
C1095  N1141   1.370   .     A
C1096  H1130   1.082   .     S
C1096  N1142   1.370   .     A
C1097  C1099   1.454   .     S
C1097  O1150   1.297   .     A
C1097  O1020   1.300   1_655 S
C1098  O1151   1.297   .     A
C1098  C1101   1.454   .     S
C1099  C1106   1.398   .     A
C1099  C1104   1.395   .     A
C1100  O1147   1.298   .     A
C1101  C1105   1.395   .     A
C1101  C1107   1.398   .     A
C1102  O1152   1.374   .     S
C1102  C1110   1.404   .     A
C1102  C1104   1.397   .     A
C1103  O1144   1.374   .     S
C1103  C1112   1.404   .     A
C1103  C1105   1.397   .     A
C1104  H1009   1.084   1_655 S
C1106  H1135   1.082   .     S
C1106  C1108   1.401   .     A
C1107  H1134   1.082   .     S
C1107  C1109   1.401   .     A
C1108  C1110   1.409   .     A
C1108  C1113   1.409   .     A
C1109  C1114   1.410   .     A
C1109  C1112   1.410   .     A
C1110  C540    1.398   1_556 S
C1111  C1116   1.389   .     A
C1111  C1114   1.408   .     A
C1111  H1138   1.081   .     S
C1113  C1115   1.408   .     A
C1113  C538    1.419   1_556 S
C1115  C1117   1.389   .     A
C1115  H1139   1.081   .     S
C1116  H1123   1.073   .     S
C1117  H1133   1.073   .     S
C1117  C536    1.398   1_556 S
C1118  H1140   1.083   .     S
C1119  H1124   1.083   .     S
C1119  C706    1.384   1_565 S
C1120  H1125   1.083   .     S
C1120  C963    1.401   1_655 S
C1120  C734    1.384   1_565 S
Cu1121 O1143   1.964   .     S
Cu1121 O1151   1.985   .     S
Cu1121 O1147   1.964   .     S
Cu1121 O1148   1.978   .     S
Cu1121 N1141   2.030   .     S
Cu1122 O1145   1.964   .     S
Cu1122 N1142   2.030   .     S
Cu1122 O1150   1.985   .     S
Cu1122 O1146   1.964   .     S
Cu1122 O1149   1.978   .     S
Cu1122 Cu993   2.701   1_655 S
H1132  O1016   0.992   1_655 S
H1136  C977    1.084   1_655 S
O1145  C972    1.298   1_655 S
O1149  C970    1.300   1_655 S
O1152  H1003   0.992   1_655 S
