data_str_m2_o2_o10_pcu_sym.236
_audit_creation_date              2020-01-03
_audit_creation_method            'Materials Studio'
_symmetry_space_group_name_H-M    'P1'
_symmetry_Int_Tables_number       1
_symmetry_cell_setting            triclinic
loop_
_symmetry_equiv_pos_as_xyz
  x,y,z
_cell_length_a                    26.1849
_cell_length_b                    30.2366
_cell_length_c                    27.9659
_cell_angle_alpha                 91.7887
_cell_angle_beta                  98.4221
_cell_angle_gamma                 91.9509
loop_
_atom_site_label
_atom_site_type_symbol
_atom_site_fract_x
_atom_site_fract_y
_atom_site_fract_z
_atom_site_U_iso_or_equiv
_atom_site_adp_type
_atom_site_occupancy
C1     C     0.16715   0.16506   0.24961   0.00000  Uiso   1.00
C2     C     0.16737   0.33507   0.25070   0.00000  Uiso   1.00
C3     C     0.17073   0.29373   0.05731   0.00000  Uiso   1.00
C4     C     0.12243   0.22902   0.43787   0.00000  Uiso   1.00
C5     C     0.17562   0.28948   0.10841   0.00000  Uiso   1.00
C6     C     0.12752   0.22760   0.38791   0.00000  Uiso   1.00
C7     C     0.15412   0.21300   0.09816   0.00000  Uiso   1.00
C8     C     0.20275   0.27462   0.40293   0.00000  Uiso   1.00
C9     C     0.15731   0.21525   0.04848   0.00000  Uiso   1.00
C10    C     0.20011   0.27519   0.45276   0.00000  Uiso   1.00
C11    C     0.16156   0.25516   0.02623   0.00000  Uiso   1.00
C12    C     0.15992   0.25382   0.47154   0.00000  Uiso   1.00
C13    C     0.06793   0.24986   0.23750   0.00000  Uiso   1.00
C14    C     0.26540   0.24997   0.26250   0.00000  Uiso   1.00
C15    C     0.01250   0.24979   0.23074   0.00000  Uiso   1.00
C16    C     0.32083   0.24969   0.26923   0.00000  Uiso   1.00
C17    C     0.19957   0.05085   0.28979   0.00000  Uiso   1.00
C18    C     0.17591   0.45191   0.21013   0.00000  Uiso   1.00
C19    C     0.19848   0.09680   0.28859   0.00000  Uiso   1.00
C20    C     0.17443   0.40602   0.20963   0.00000  Uiso   1.00
C21    C     0.16923   0.11692   0.24971   0.00000  Uiso   1.00
C22    C     0.16933   0.38355   0.25195   0.00000  Uiso   1.00
C23    C     0.14051   0.09071   0.21258   0.00000  Uiso   1.00
C24    C     0.16649   0.40780   0.29504   0.00000  Uiso   1.00
C25    C     0.14136   0.04489   0.21376   0.00000  Uiso   1.00
C26    C     0.16776   0.45391   0.29546   0.00000  Uiso   1.00
C27    C     0.17107   0.02463   0.25225   0.00000  Uiso   1.00
C28    C     0.17203   0.47618   0.25285   0.00000  Uiso   1.00
Cu29   Cu    0.16667   0.25000   0.29822   0.00000  Uiso   1.00
Cu30   Cu    0.16667   0.25001   0.20179   0.00000  Uiso   1.00
H31    H     0.32554   0.24993   0.19394   0.00000  Uiso   1.00
H32    H     0.00782   0.24938   0.30600   0.00000  Uiso   1.00
H33    H     0.22303   0.03585   0.31965   0.00000  Uiso   1.00
H34    H     0.18014   0.46848   0.17706   0.00000  Uiso   1.00
H35    H     0.22080   0.11665   0.31779   0.00000  Uiso   1.00
H36    H     0.17728   0.38827   0.17598   0.00000  Uiso   1.00
H37    H     0.11609   0.10538   0.18354   0.00000  Uiso   1.00
H38    H     0.16274   0.39122   0.32819   0.00000  Uiso   1.00
H39    H     0.11804   0.02525   0.18501   0.00000  Uiso   1.00
H40    H     0.16432   0.47212   0.32873   0.00000  Uiso   1.00
H41    H     0.18458   0.31905   0.13084   0.00000  Uiso   1.00
H42    H     0.09856   0.20965   0.36232   0.00000  Uiso   1.00
H43    H     0.15338   0.18536   0.02589   0.00000  Uiso   1.00
H44    H     0.22913   0.29390   0.47722   0.00000  Uiso   1.00
N45    N     0.16667   0.25001   0.12935   0.00000  Uiso   1.00
N46    N     0.16667   0.24999   0.37066   0.00000  Uiso   1.00
O47    O     0.16667   0.18573   0.29072   0.00000  Uiso   1.00
O48    O     0.16666   0.31428   0.20929   0.00000  Uiso   1.00
O49    O     0.16667   0.18573   0.20928   0.00000  Uiso   1.00
O50    O     0.16666   0.31427   0.29072   0.00000  Uiso   1.00
O51    O     0.09161   0.25000   0.28132   0.00000  Uiso   1.00
O52    O     0.24172   0.25001   0.21868   0.00000  Uiso   1.00
O53    O     0.09161   0.25000   0.19989   0.00000  Uiso   1.00
O54    O     0.24172   0.25000   0.30012   0.00000  Uiso   1.00
C55    C     0.17239   0.33997   0.03814   0.00000  Uiso   1.00
C56    C     0.22626   0.36267   0.05137   0.00000  Uiso   1.00
C57    C     0.23056   0.40524   0.02412   0.00000  Uiso   1.00
H58    H     0.22528   0.39777   0.48451   0.00000  Uiso   1.00
H59    H     0.20090   0.42852   0.03251   0.00000  Uiso   1.00
H60    H     0.26941   0.42136   0.03518   0.00000  Uiso   1.00
H61    H     0.23382   0.37092   0.09084   0.00000  Uiso   1.00
H62    H     0.25665   0.34025   0.04274   0.00000  Uiso   1.00
H63    H     0.16018   0.33961   0.49845   0.00000  Uiso   1.00
H64    H     0.14378   0.35998   0.05403   0.00000  Uiso   1.00
C65    C     0.07396   0.20733   0.45181   0.00000  Uiso   1.00
C66    C     0.07223   0.15664   0.44449   0.00000  Uiso   1.00
C67    C     0.01812   0.13709   0.44668   0.00000  Uiso   1.00
H68    H     0.00466   0.14769   0.48091   0.00000  Uiso   1.00
H69    H     0.32386   0.14820   0.41576   0.00000  Uiso   1.00
H70    H     0.01859   0.10038   0.44465   0.00000  Uiso   1.00
H71    H     0.08303   0.14697   0.40876   0.00000  Uiso   1.00
H72    H     0.09992   0.14181   0.47278   0.00000  Uiso   1.00
H73    H     0.06879   0.21636   0.48950   0.00000  Uiso   1.00
H74    H     0.04053   0.22040   0.42824   0.00000  Uiso   1.00
C75    C     0.13064   0.16932   0.11163   0.00000  Uiso   1.00
C76    C     0.07627   0.17447   0.12602   0.00000  Uiso   1.00
C77    C     0.03792   0.13748   0.10400   0.00000  Uiso   1.00
H78    H     0.00011   0.14192   0.11670   0.00000  Uiso   1.00
H79    H     0.03218   0.13858   0.06400   0.00000  Uiso   1.00
H80    H     0.05214   0.10456   0.11480   0.00000  Uiso   1.00
H81    H     0.07821   0.17383   0.16575   0.00000  Uiso   1.00
H82    H     0.06015   0.20649   0.11386   0.00000  Uiso   1.00
H83    H     0.12629   0.14532   0.08018   0.00000  Uiso   1.00
H84    H     0.15791   0.15166   0.13720   0.00000  Uiso   1.00
C85    C     0.24359   0.30572   0.38760   0.00000  Uiso   1.00
C86    C     0.29875   0.28877   0.39810   0.00000  Uiso   1.00
C87    C     0.32513   0.29930   0.44998   0.00000  Uiso   1.00
H88    H     0.31677   0.33320   0.46236   0.00000  Uiso   1.00
H89    H     0.31259   0.27470   0.47492   0.00000  Uiso   1.00
H90    H     0.03432   0.29766   0.45166   0.00000  Uiso   1.00
H91    H     0.29841   0.25255   0.38996   0.00000  Uiso   1.00
H92    H     0.32248   0.30518   0.37337   0.00000  Uiso   1.00
H93    H     0.23582   0.31255   0.34923   0.00000  Uiso   1.00
H94    H     0.24178   0.33882   0.40566   0.00000  Uiso   1.00
C95    C     0.50049   0.16506   0.24961   0.00000  Uiso   1.00
C96    C     0.50071   0.33507   0.25070   0.00000  Uiso   1.00
C97    C     0.50406   0.29373   0.05731   0.00000  Uiso   1.00
C98    C     0.45577   0.22902   0.43787   0.00000  Uiso   1.00
C99    C     0.50896   0.28948   0.10841   0.00000  Uiso   1.00
C100   C     0.46085   0.22760   0.38791   0.00000  Uiso   1.00
C101   C     0.48745   0.21300   0.09816   0.00000  Uiso   1.00
C102   C     0.53609   0.27462   0.40293   0.00000  Uiso   1.00
C103   C     0.49064   0.21525   0.04848   0.00000  Uiso   1.00
C104   C     0.53344   0.27519   0.45276   0.00000  Uiso   1.00
C105   C     0.49489   0.25516   0.02623   0.00000  Uiso   1.00
C106   C     0.49325   0.25382   0.47154   0.00000  Uiso   1.00
C107   C     0.40127   0.24986   0.23750   0.00000  Uiso   1.00
C108   C     0.59873   0.24997   0.26250   0.00000  Uiso   1.00
C109   C     0.34583   0.24979   0.23074   0.00000  Uiso   1.00
C110   C     0.65417   0.24969   0.26923   0.00000  Uiso   1.00
C111   C     0.53290   0.05085   0.28979   0.00000  Uiso   1.00
C112   C     0.50924   0.45191   0.21013   0.00000  Uiso   1.00
C113   C     0.53182   0.09680   0.28859   0.00000  Uiso   1.00
C114   C     0.50776   0.40602   0.20963   0.00000  Uiso   1.00
C115   C     0.50256   0.11692   0.24971   0.00000  Uiso   1.00
C116   C     0.50267   0.38355   0.25195   0.00000  Uiso   1.00
C117   C     0.47384   0.09071   0.21258   0.00000  Uiso   1.00
C118   C     0.49982   0.40780   0.29504   0.00000  Uiso   1.00
C119   C     0.47470   0.04489   0.21376   0.00000  Uiso   1.00
C120   C     0.50110   0.45391   0.29546   0.00000  Uiso   1.00
C121   C     0.50441   0.02463   0.25225   0.00000  Uiso   1.00
C122   C     0.50536   0.47618   0.25285   0.00000  Uiso   1.00
Cu123  Cu    0.50000   0.25000   0.29822   0.00000  Uiso   1.00
Cu124  Cu    0.50000   0.25001   0.20179   0.00000  Uiso   1.00
H125   H     0.65888   0.24993   0.19394   0.00000  Uiso   1.00
H126   H     0.34115   0.24938   0.30600   0.00000  Uiso   1.00
H127   H     0.55636   0.03585   0.31965   0.00000  Uiso   1.00
H128   H     0.51347   0.46848   0.17706   0.00000  Uiso   1.00
H129   H     0.55413   0.11665   0.31779   0.00000  Uiso   1.00
H130   H     0.51061   0.38827   0.17598   0.00000  Uiso   1.00
H131   H     0.44943   0.10538   0.18354   0.00000  Uiso   1.00
H132   H     0.49607   0.39122   0.32819   0.00000  Uiso   1.00
H133   H     0.45137   0.02525   0.18501   0.00000  Uiso   1.00
H134   H     0.49765   0.47212   0.32873   0.00000  Uiso   1.00
H135   H     0.51791   0.31905   0.13084   0.00000  Uiso   1.00
H136   H     0.43190   0.20965   0.36232   0.00000  Uiso   1.00
H137   H     0.48671   0.18536   0.02589   0.00000  Uiso   1.00
H138   H     0.56246   0.29390   0.47722   0.00000  Uiso   1.00
N139   N     0.50000   0.25001   0.12935   0.00000  Uiso   1.00
N140   N     0.50000   0.24999   0.37066   0.00000  Uiso   1.00
O141   O     0.50000   0.18573   0.29072   0.00000  Uiso   1.00
O142   O     0.50000   0.31428   0.20929   0.00000  Uiso   1.00
O143   O     0.50000   0.18573   0.20928   0.00000  Uiso   1.00
O144   O     0.50000   0.31427   0.29072   0.00000  Uiso   1.00
O145   O     0.42495   0.25000   0.28132   0.00000  Uiso   1.00
O146   O     0.57505   0.25001   0.21868   0.00000  Uiso   1.00
O147   O     0.42495   0.25000   0.19989   0.00000  Uiso   1.00
O148   O     0.57505   0.25000   0.30012   0.00000  Uiso   1.00
C149   C     0.50573   0.33997   0.03814   0.00000  Uiso   1.00
C150   C     0.55960   0.36267   0.05137   0.00000  Uiso   1.00
C151   C     0.56389   0.40524   0.02412   0.00000  Uiso   1.00
H152   H     0.55862   0.39777   0.48451   0.00000  Uiso   1.00
H153   H     0.53423   0.42852   0.03251   0.00000  Uiso   1.00
H154   H     0.60275   0.42136   0.03518   0.00000  Uiso   1.00
H155   H     0.56715   0.37092   0.09084   0.00000  Uiso   1.00
H156   H     0.58998   0.34025   0.04274   0.00000  Uiso   1.00
H157   H     0.49351   0.33961   0.49845   0.00000  Uiso   1.00
H158   H     0.47711   0.35998   0.05403   0.00000  Uiso   1.00
C159   C     0.40729   0.20733   0.45181   0.00000  Uiso   1.00
C160   C     0.40556   0.15664   0.44449   0.00000  Uiso   1.00
C161   C     0.35145   0.13709   0.44668   0.00000  Uiso   1.00
H162   H     0.33800   0.14769   0.48091   0.00000  Uiso   1.00
H163   H     0.65719   0.14820   0.41576   0.00000  Uiso   1.00
H164   H     0.35193   0.10038   0.44465   0.00000  Uiso   1.00
H165   H     0.41636   0.14697   0.40876   0.00000  Uiso   1.00
H166   H     0.43326   0.14181   0.47278   0.00000  Uiso   1.00
H167   H     0.40212   0.21636   0.48950   0.00000  Uiso   1.00
H168   H     0.37386   0.22040   0.42824   0.00000  Uiso   1.00
C169   C     0.46398   0.16932   0.11163   0.00000  Uiso   1.00
C170   C     0.40960   0.17447   0.12602   0.00000  Uiso   1.00
C171   C     0.37126   0.13748   0.10400   0.00000  Uiso   1.00
H172   H     0.33344   0.14192   0.11670   0.00000  Uiso   1.00
H173   H     0.36551   0.13858   0.06400   0.00000  Uiso   1.00
H174   H     0.38547   0.10456   0.11480   0.00000  Uiso   1.00
H175   H     0.41154   0.17383   0.16575   0.00000  Uiso   1.00
H176   H     0.39349   0.20649   0.11386   0.00000  Uiso   1.00
H177   H     0.45962   0.14532   0.08018   0.00000  Uiso   1.00
H178   H     0.49124   0.15166   0.13720   0.00000  Uiso   1.00
C179   C     0.57692   0.30572   0.38760   0.00000  Uiso   1.00
C180   C     0.63208   0.28877   0.39810   0.00000  Uiso   1.00
C181   C     0.65847   0.29930   0.44998   0.00000  Uiso   1.00
H182   H     0.65010   0.33320   0.46236   0.00000  Uiso   1.00
H183   H     0.64593   0.27470   0.47492   0.00000  Uiso   1.00
H184   H     0.36765   0.29766   0.45166   0.00000  Uiso   1.00
H185   H     0.63174   0.25255   0.38996   0.00000  Uiso   1.00
H186   H     0.65582   0.30518   0.37337   0.00000  Uiso   1.00
H187   H     0.56915   0.31255   0.34923   0.00000  Uiso   1.00
H188   H     0.57511   0.33882   0.40566   0.00000  Uiso   1.00
C189   C     0.83382   0.16506   0.24961   0.00000  Uiso   1.00
C190   C     0.83404   0.33507   0.25070   0.00000  Uiso   1.00
C191   C     0.83740   0.29373   0.05731   0.00000  Uiso   1.00
C192   C     0.78910   0.22902   0.43787   0.00000  Uiso   1.00
C193   C     0.84229   0.28948   0.10841   0.00000  Uiso   1.00
C194   C     0.79419   0.22760   0.38791   0.00000  Uiso   1.00
C195   C     0.82079   0.21300   0.09816   0.00000  Uiso   1.00
C196   C     0.86942   0.27462   0.40293   0.00000  Uiso   1.00
C197   C     0.82398   0.21525   0.04848   0.00000  Uiso   1.00
C198   C     0.86678   0.27519   0.45276   0.00000  Uiso   1.00
C199   C     0.82822   0.25516   0.02623   0.00000  Uiso   1.00
C200   C     0.82659   0.25382   0.47154   0.00000  Uiso   1.00
C201   C     0.73460   0.24986   0.23750   0.00000  Uiso   1.00
C202   C     0.93207   0.24997   0.26250   0.00000  Uiso   1.00
C203   C     0.67916   0.24979   0.23074   0.00000  Uiso   1.00
C204   C     0.98750   0.24969   0.26923   0.00000  Uiso   1.00
C205   C     0.86624   0.05085   0.28979   0.00000  Uiso   1.00
C206   C     0.84257   0.45191   0.21013   0.00000  Uiso   1.00
C207   C     0.86515   0.09680   0.28859   0.00000  Uiso   1.00
C208   C     0.84109   0.40602   0.20963   0.00000  Uiso   1.00
C209   C     0.83589   0.11692   0.24971   0.00000  Uiso   1.00
C210   C     0.83600   0.38355   0.25195   0.00000  Uiso   1.00
C211   C     0.80718   0.09071   0.21258   0.00000  Uiso   1.00
C212   C     0.83316   0.40780   0.29504   0.00000  Uiso   1.00
C213   C     0.80803   0.04489   0.21376   0.00000  Uiso   1.00
C214   C     0.83443   0.45391   0.29546   0.00000  Uiso   1.00
C215   C     0.83774   0.02463   0.25225   0.00000  Uiso   1.00
C216   C     0.83870   0.47618   0.25285   0.00000  Uiso   1.00
Cu217  Cu    0.83333   0.25000   0.29822   0.00000  Uiso   1.00
Cu218  Cu    0.83333   0.25001   0.20179   0.00000  Uiso   1.00
H219   H     0.99221   0.24993   0.19394   0.00000  Uiso   1.00
H220   H     0.67449   0.24938   0.30600   0.00000  Uiso   1.00
H221   H     0.88970   0.03585   0.31965   0.00000  Uiso   1.00
H222   H     0.84680   0.46848   0.17706   0.00000  Uiso   1.00
H223   H     0.88746   0.11665   0.31779   0.00000  Uiso   1.00
H224   H     0.84394   0.38827   0.17598   0.00000  Uiso   1.00
H225   H     0.78276   0.10538   0.18354   0.00000  Uiso   1.00
H226   H     0.82940   0.39122   0.32819   0.00000  Uiso   1.00
H227   H     0.78471   0.02525   0.18501   0.00000  Uiso   1.00
H228   H     0.83098   0.47212   0.32873   0.00000  Uiso   1.00
H229   H     0.85124   0.31905   0.13084   0.00000  Uiso   1.00
H230   H     0.76523   0.20965   0.36232   0.00000  Uiso   1.00
H231   H     0.82004   0.18536   0.02589   0.00000  Uiso   1.00
H232   H     0.89579   0.29390   0.47722   0.00000  Uiso   1.00
N233   N     0.83333   0.25001   0.12935   0.00000  Uiso   1.00
N234   N     0.83333   0.24999   0.37066   0.00000  Uiso   1.00
O235   O     0.83334   0.18573   0.29072   0.00000  Uiso   1.00
O236   O     0.83333   0.31428   0.20929   0.00000  Uiso   1.00
O237   O     0.83334   0.18573   0.20928   0.00000  Uiso   1.00
O238   O     0.83333   0.31427   0.29072   0.00000  Uiso   1.00
O239   O     0.75828   0.25000   0.28132   0.00000  Uiso   1.00
O240   O     0.90839   0.25001   0.21868   0.00000  Uiso   1.00
O241   O     0.75828   0.25000   0.19989   0.00000  Uiso   1.00
O242   O     0.90839   0.25000   0.30012   0.00000  Uiso   1.00
C243   C     0.83906   0.33997   0.03814   0.00000  Uiso   1.00
C244   C     0.89293   0.36267   0.05137   0.00000  Uiso   1.00
C245   C     0.89723   0.40524   0.02412   0.00000  Uiso   1.00
H246   H     0.89195   0.39777   0.48451   0.00000  Uiso   1.00
H247   H     0.86756   0.42852   0.03251   0.00000  Uiso   1.00
H248   H     0.93608   0.42136   0.03518   0.00000  Uiso   1.00
H249   H     0.90049   0.37092   0.09084   0.00000  Uiso   1.00
H250   H     0.92331   0.34025   0.04274   0.00000  Uiso   1.00
H251   H     0.82684   0.33961   0.49845   0.00000  Uiso   1.00
H252   H     0.81045   0.35998   0.05403   0.00000  Uiso   1.00
C253   C     0.74063   0.20733   0.45181   0.00000  Uiso   1.00
C254   C     0.73890   0.15664   0.44449   0.00000  Uiso   1.00
C255   C     0.68479   0.13709   0.44668   0.00000  Uiso   1.00
H256   H     0.67133   0.14769   0.48091   0.00000  Uiso   1.00
H257   H     0.99052   0.14820   0.41576   0.00000  Uiso   1.00
H258   H     0.68526   0.10038   0.44465   0.00000  Uiso   1.00
H259   H     0.74969   0.14697   0.40876   0.00000  Uiso   1.00
H260   H     0.76659   0.14181   0.47278   0.00000  Uiso   1.00
H261   H     0.73546   0.21636   0.48950   0.00000  Uiso   1.00
H262   H     0.70720   0.22040   0.42824   0.00000  Uiso   1.00
C263   C     0.79731   0.16932   0.11163   0.00000  Uiso   1.00
C264   C     0.74294   0.17447   0.12602   0.00000  Uiso   1.00
C265   C     0.70459   0.13748   0.10400   0.00000  Uiso   1.00
H266   H     0.66678   0.14192   0.11670   0.00000  Uiso   1.00
H267   H     0.69885   0.13858   0.06400   0.00000  Uiso   1.00
H268   H     0.71880   0.10456   0.11480   0.00000  Uiso   1.00
H269   H     0.74487   0.17383   0.16575   0.00000  Uiso   1.00
H270   H     0.72682   0.20649   0.11386   0.00000  Uiso   1.00
H271   H     0.79295   0.14532   0.08018   0.00000  Uiso   1.00
H272   H     0.82457   0.15166   0.13720   0.00000  Uiso   1.00
C273   C     0.91025   0.30572   0.38760   0.00000  Uiso   1.00
C274   C     0.96542   0.28877   0.39810   0.00000  Uiso   1.00
C275   C     0.99180   0.29930   0.44998   0.00000  Uiso   1.00
H276   H     0.98343   0.33320   0.46236   0.00000  Uiso   1.00
H277   H     0.97926   0.27470   0.47492   0.00000  Uiso   1.00
H278   H     0.70098   0.29766   0.45166   0.00000  Uiso   1.00
H279   H     0.96508   0.25255   0.38996   0.00000  Uiso   1.00
H280   H     0.98915   0.30518   0.37337   0.00000  Uiso   1.00
H281   H     0.90249   0.31255   0.34923   0.00000  Uiso   1.00
H282   H     0.90845   0.33882   0.40566   0.00000  Uiso   1.00
C283   C     0.16715   0.66506   0.24961   0.00000  Uiso   1.00
C284   C     0.16737   0.83507   0.25070   0.00000  Uiso   1.00
C285   C     0.17073   0.79373   0.05731   0.00000  Uiso   1.00
C286   C     0.12243   0.72902   0.43787   0.00000  Uiso   1.00
C287   C     0.17562   0.78948   0.10841   0.00000  Uiso   1.00
C288   C     0.12752   0.72760   0.38791   0.00000  Uiso   1.00
C289   C     0.15412   0.71300   0.09816   0.00000  Uiso   1.00
C290   C     0.20275   0.77462   0.40293   0.00000  Uiso   1.00
C291   C     0.15731   0.71525   0.04848   0.00000  Uiso   1.00
C292   C     0.20011   0.77519   0.45276   0.00000  Uiso   1.00
C293   C     0.16156   0.75516   0.02623   0.00000  Uiso   1.00
C294   C     0.15992   0.75382   0.47154   0.00000  Uiso   1.00
C295   C     0.06793   0.74986   0.23750   0.00000  Uiso   1.00
C296   C     0.26540   0.74997   0.26250   0.00000  Uiso   1.00
C297   C     0.01250   0.74979   0.23074   0.00000  Uiso   1.00
C298   C     0.32083   0.74969   0.26923   0.00000  Uiso   1.00
C299   C     0.19957   0.55085   0.28979   0.00000  Uiso   1.00
C300   C     0.17591   0.95191   0.21013   0.00000  Uiso   1.00
C301   C     0.19848   0.59680   0.28859   0.00000  Uiso   1.00
C302   C     0.17443   0.90602   0.20963   0.00000  Uiso   1.00
C303   C     0.16923   0.61692   0.24971   0.00000  Uiso   1.00
C304   C     0.16933   0.88355   0.25195   0.00000  Uiso   1.00
C305   C     0.14051   0.59071   0.21258   0.00000  Uiso   1.00
C306   C     0.16649   0.90780   0.29504   0.00000  Uiso   1.00
C307   C     0.14136   0.54489   0.21376   0.00000  Uiso   1.00
C308   C     0.16776   0.95391   0.29546   0.00000  Uiso   1.00
C309   C     0.17107   0.52463   0.25225   0.00000  Uiso   1.00
C310   C     0.17203   0.97618   0.25285   0.00000  Uiso   1.00
Cu311  Cu    0.16667   0.75000   0.29822   0.00000  Uiso   1.00
Cu312  Cu    0.16667   0.75001   0.20179   0.00000  Uiso   1.00
H313   H     0.32554   0.74993   0.19394   0.00000  Uiso   1.00
H314   H     0.00782   0.74938   0.30600   0.00000  Uiso   1.00
H315   H     0.22303   0.53585   0.31965   0.00000  Uiso   1.00
H316   H     0.18014   0.96848   0.17706   0.00000  Uiso   1.00
H317   H     0.22080   0.61665   0.31779   0.00000  Uiso   1.00
H318   H     0.17728   0.88827   0.17598   0.00000  Uiso   1.00
H319   H     0.11609   0.60538   0.18354   0.00000  Uiso   1.00
H320   H     0.16274   0.89122   0.32819   0.00000  Uiso   1.00
H321   H     0.11804   0.52525   0.18501   0.00000  Uiso   1.00
H322   H     0.16432   0.97212   0.32873   0.00000  Uiso   1.00
H323   H     0.18458   0.81905   0.13084   0.00000  Uiso   1.00
H324   H     0.09856   0.70965   0.36232   0.00000  Uiso   1.00
H325   H     0.15338   0.68536   0.02589   0.00000  Uiso   1.00
H326   H     0.22913   0.79390   0.47722   0.00000  Uiso   1.00
N327   N     0.16667   0.75001   0.12935   0.00000  Uiso   1.00
N328   N     0.16667   0.74999   0.37066   0.00000  Uiso   1.00
O329   O     0.16667   0.68573   0.29072   0.00000  Uiso   1.00
O330   O     0.16666   0.81428   0.20929   0.00000  Uiso   1.00
O331   O     0.16667   0.68573   0.20928   0.00000  Uiso   1.00
O332   O     0.16666   0.81427   0.29072   0.00000  Uiso   1.00
O333   O     0.09161   0.75000   0.28132   0.00000  Uiso   1.00
O334   O     0.24172   0.75001   0.21868   0.00000  Uiso   1.00
O335   O     0.09161   0.75000   0.19989   0.00000  Uiso   1.00
O336   O     0.24172   0.75000   0.30012   0.00000  Uiso   1.00
C337   C     0.17239   0.83997   0.03814   0.00000  Uiso   1.00
C338   C     0.22626   0.86267   0.05137   0.00000  Uiso   1.00
C339   C     0.23056   0.90524   0.02412   0.00000  Uiso   1.00
H340   H     0.22528   0.89777   0.48451   0.00000  Uiso   1.00
H341   H     0.20090   0.92852   0.03251   0.00000  Uiso   1.00
H342   H     0.26941   0.92136   0.03518   0.00000  Uiso   1.00
H343   H     0.23382   0.87092   0.09084   0.00000  Uiso   1.00
H344   H     0.25665   0.84025   0.04274   0.00000  Uiso   1.00
H345   H     0.16018   0.83961   0.49845   0.00000  Uiso   1.00
H346   H     0.14378   0.85998   0.05403   0.00000  Uiso   1.00
C347   C     0.07396   0.70733   0.45181   0.00000  Uiso   1.00
C348   C     0.07223   0.65664   0.44449   0.00000  Uiso   1.00
C349   C     0.01812   0.63709   0.44668   0.00000  Uiso   1.00
H350   H     0.00466   0.64769   0.48091   0.00000  Uiso   1.00
H351   H     0.32386   0.64820   0.41576   0.00000  Uiso   1.00
H352   H     0.01859   0.60038   0.44465   0.00000  Uiso   1.00
H353   H     0.08303   0.64697   0.40876   0.00000  Uiso   1.00
H354   H     0.09992   0.64181   0.47278   0.00000  Uiso   1.00
H355   H     0.06879   0.71636   0.48950   0.00000  Uiso   1.00
H356   H     0.04053   0.72040   0.42824   0.00000  Uiso   1.00
C357   C     0.13064   0.66932   0.11163   0.00000  Uiso   1.00
C358   C     0.07627   0.67447   0.12602   0.00000  Uiso   1.00
C359   C     0.03792   0.63748   0.10400   0.00000  Uiso   1.00
H360   H     0.00011   0.64192   0.11670   0.00000  Uiso   1.00
H361   H     0.03218   0.63858   0.06400   0.00000  Uiso   1.00
H362   H     0.05214   0.60456   0.11480   0.00000  Uiso   1.00
H363   H     0.07821   0.67383   0.16575   0.00000  Uiso   1.00
H364   H     0.06015   0.70649   0.11386   0.00000  Uiso   1.00
H365   H     0.12629   0.64532   0.08018   0.00000  Uiso   1.00
H366   H     0.15791   0.65166   0.13720   0.00000  Uiso   1.00
C367   C     0.24359   0.80572   0.38760   0.00000  Uiso   1.00
C368   C     0.29875   0.78877   0.39810   0.00000  Uiso   1.00
C369   C     0.32513   0.79930   0.44998   0.00000  Uiso   1.00
H370   H     0.31677   0.83320   0.46236   0.00000  Uiso   1.00
H371   H     0.31259   0.77470   0.47492   0.00000  Uiso   1.00
H372   H     0.03432   0.79766   0.45166   0.00000  Uiso   1.00
H373   H     0.29841   0.75255   0.38996   0.00000  Uiso   1.00
H374   H     0.32248   0.80518   0.37337   0.00000  Uiso   1.00
H375   H     0.23582   0.81255   0.34923   0.00000  Uiso   1.00
H376   H     0.24178   0.83882   0.40566   0.00000  Uiso   1.00
C377   C     0.50049   0.66506   0.24961   0.00000  Uiso   1.00
C378   C     0.50071   0.83507   0.25070   0.00000  Uiso   1.00
C379   C     0.50406   0.79373   0.05731   0.00000  Uiso   1.00
C380   C     0.45577   0.72902   0.43787   0.00000  Uiso   1.00
C381   C     0.50896   0.78948   0.10841   0.00000  Uiso   1.00
C382   C     0.46085   0.72760   0.38791   0.00000  Uiso   1.00
C383   C     0.48745   0.71300   0.09816   0.00000  Uiso   1.00
C384   C     0.53609   0.77462   0.40293   0.00000  Uiso   1.00
C385   C     0.49064   0.71525   0.04848   0.00000  Uiso   1.00
C386   C     0.53344   0.77519   0.45276   0.00000  Uiso   1.00
C387   C     0.49489   0.75516   0.02623   0.00000  Uiso   1.00
C388   C     0.49325   0.75382   0.47154   0.00000  Uiso   1.00
C389   C     0.40127   0.74986   0.23750   0.00000  Uiso   1.00
C390   C     0.59873   0.74997   0.26250   0.00000  Uiso   1.00
C391   C     0.34583   0.74979   0.23074   0.00000  Uiso   1.00
C392   C     0.65417   0.74969   0.26923   0.00000  Uiso   1.00
C393   C     0.53290   0.55085   0.28979   0.00000  Uiso   1.00
C394   C     0.50924   0.95191   0.21013   0.00000  Uiso   1.00
C395   C     0.53182   0.59680   0.28859   0.00000  Uiso   1.00
C396   C     0.50776   0.90602   0.20963   0.00000  Uiso   1.00
C397   C     0.50256   0.61692   0.24971   0.00000  Uiso   1.00
C398   C     0.50267   0.88355   0.25195   0.00000  Uiso   1.00
C399   C     0.47384   0.59071   0.21258   0.00000  Uiso   1.00
C400   C     0.49982   0.90780   0.29504   0.00000  Uiso   1.00
C401   C     0.47470   0.54489   0.21376   0.00000  Uiso   1.00
C402   C     0.50110   0.95391   0.29546   0.00000  Uiso   1.00
C403   C     0.50441   0.52463   0.25225   0.00000  Uiso   1.00
C404   C     0.50536   0.97618   0.25285   0.00000  Uiso   1.00
Cu405  Cu    0.50000   0.75000   0.29822   0.00000  Uiso   1.00
Cu406  Cu    0.50000   0.75001   0.20179   0.00000  Uiso   1.00
H407   H     0.65888   0.74993   0.19394   0.00000  Uiso   1.00
H408   H     0.34115   0.74938   0.30600   0.00000  Uiso   1.00
H409   H     0.55636   0.53585   0.31965   0.00000  Uiso   1.00
H410   H     0.51347   0.96848   0.17706   0.00000  Uiso   1.00
H411   H     0.55413   0.61665   0.31779   0.00000  Uiso   1.00
H412   H     0.51061   0.88827   0.17598   0.00000  Uiso   1.00
H413   H     0.44943   0.60538   0.18354   0.00000  Uiso   1.00
H414   H     0.49607   0.89122   0.32819   0.00000  Uiso   1.00
H415   H     0.45137   0.52525   0.18501   0.00000  Uiso   1.00
H416   H     0.49765   0.97212   0.32873   0.00000  Uiso   1.00
H417   H     0.51791   0.81905   0.13084   0.00000  Uiso   1.00
H418   H     0.43190   0.70965   0.36232   0.00000  Uiso   1.00
H419   H     0.48671   0.68536   0.02589   0.00000  Uiso   1.00
H420   H     0.56246   0.79390   0.47722   0.00000  Uiso   1.00
N421   N     0.50000   0.75001   0.12935   0.00000  Uiso   1.00
N422   N     0.50000   0.74999   0.37066   0.00000  Uiso   1.00
O423   O     0.50000   0.68573   0.29072   0.00000  Uiso   1.00
O424   O     0.50000   0.81428   0.20929   0.00000  Uiso   1.00
O425   O     0.50000   0.68573   0.20928   0.00000  Uiso   1.00
O426   O     0.50000   0.81427   0.29072   0.00000  Uiso   1.00
O427   O     0.42495   0.75000   0.28132   0.00000  Uiso   1.00
O428   O     0.57505   0.75001   0.21868   0.00000  Uiso   1.00
O429   O     0.42495   0.75000   0.19989   0.00000  Uiso   1.00
O430   O     0.57505   0.75000   0.30012   0.00000  Uiso   1.00
C431   C     0.50573   0.83997   0.03814   0.00000  Uiso   1.00
C432   C     0.55960   0.86267   0.05137   0.00000  Uiso   1.00
C433   C     0.56389   0.90524   0.02412   0.00000  Uiso   1.00
H434   H     0.55862   0.89777   0.48451   0.00000  Uiso   1.00
H435   H     0.53423   0.92852   0.03251   0.00000  Uiso   1.00
H436   H     0.60275   0.92136   0.03518   0.00000  Uiso   1.00
H437   H     0.56715   0.87092   0.09084   0.00000  Uiso   1.00
H438   H     0.58998   0.84025   0.04274   0.00000  Uiso   1.00
H439   H     0.49351   0.83961   0.49845   0.00000  Uiso   1.00
H440   H     0.47711   0.85998   0.05403   0.00000  Uiso   1.00
C441   C     0.40729   0.70733   0.45181   0.00000  Uiso   1.00
C442   C     0.40556   0.65664   0.44449   0.00000  Uiso   1.00
C443   C     0.35145   0.63709   0.44668   0.00000  Uiso   1.00
H444   H     0.33800   0.64769   0.48091   0.00000  Uiso   1.00
H445   H     0.65719   0.64820   0.41576   0.00000  Uiso   1.00
H446   H     0.35193   0.60038   0.44465   0.00000  Uiso   1.00
H447   H     0.41636   0.64697   0.40876   0.00000  Uiso   1.00
H448   H     0.43326   0.64181   0.47278   0.00000  Uiso   1.00
H449   H     0.40212   0.71636   0.48950   0.00000  Uiso   1.00
H450   H     0.37386   0.72040   0.42824   0.00000  Uiso   1.00
C451   C     0.46398   0.66932   0.11163   0.00000  Uiso   1.00
C452   C     0.40960   0.67447   0.12602   0.00000  Uiso   1.00
C453   C     0.37126   0.63748   0.10400   0.00000  Uiso   1.00
H454   H     0.33344   0.64192   0.11670   0.00000  Uiso   1.00
H455   H     0.36551   0.63858   0.06400   0.00000  Uiso   1.00
H456   H     0.38547   0.60456   0.11480   0.00000  Uiso   1.00
H457   H     0.41154   0.67383   0.16575   0.00000  Uiso   1.00
H458   H     0.39349   0.70649   0.11386   0.00000  Uiso   1.00
H459   H     0.45962   0.64532   0.08018   0.00000  Uiso   1.00
H460   H     0.49124   0.65166   0.13720   0.00000  Uiso   1.00
C461   C     0.57692   0.80572   0.38760   0.00000  Uiso   1.00
C462   C     0.63208   0.78877   0.39810   0.00000  Uiso   1.00
C463   C     0.65847   0.79930   0.44998   0.00000  Uiso   1.00
H464   H     0.65010   0.83320   0.46236   0.00000  Uiso   1.00
H465   H     0.64593   0.77470   0.47492   0.00000  Uiso   1.00
H466   H     0.36765   0.79766   0.45166   0.00000  Uiso   1.00
H467   H     0.63174   0.75255   0.38996   0.00000  Uiso   1.00
H468   H     0.65582   0.80518   0.37337   0.00000  Uiso   1.00
H469   H     0.56915   0.81255   0.34923   0.00000  Uiso   1.00
H470   H     0.57511   0.83882   0.40566   0.00000  Uiso   1.00
C471   C     0.83382   0.66506   0.24961   0.00000  Uiso   1.00
C472   C     0.83404   0.83507   0.25070   0.00000  Uiso   1.00
C473   C     0.83740   0.79373   0.05731   0.00000  Uiso   1.00
C474   C     0.78910   0.72902   0.43787   0.00000  Uiso   1.00
C475   C     0.84229   0.78948   0.10841   0.00000  Uiso   1.00
C476   C     0.79419   0.72760   0.38791   0.00000  Uiso   1.00
C477   C     0.82079   0.71300   0.09816   0.00000  Uiso   1.00
C478   C     0.86942   0.77462   0.40293   0.00000  Uiso   1.00
C479   C     0.82398   0.71525   0.04848   0.00000  Uiso   1.00
C480   C     0.86678   0.77519   0.45276   0.00000  Uiso   1.00
C481   C     0.82822   0.75516   0.02623   0.00000  Uiso   1.00
C482   C     0.82659   0.75382   0.47154   0.00000  Uiso   1.00
C483   C     0.73460   0.74986   0.23750   0.00000  Uiso   1.00
C484   C     0.93207   0.74997   0.26250   0.00000  Uiso   1.00
C485   C     0.67916   0.74979   0.23074   0.00000  Uiso   1.00
C486   C     0.98750   0.74969   0.26923   0.00000  Uiso   1.00
C487   C     0.86624   0.55085   0.28979   0.00000  Uiso   1.00
C488   C     0.84257   0.95191   0.21013   0.00000  Uiso   1.00
C489   C     0.86515   0.59680   0.28859   0.00000  Uiso   1.00
C490   C     0.84109   0.90602   0.20963   0.00000  Uiso   1.00
C491   C     0.83589   0.61692   0.24971   0.00000  Uiso   1.00
C492   C     0.83600   0.88355   0.25195   0.00000  Uiso   1.00
C493   C     0.80718   0.59071   0.21258   0.00000  Uiso   1.00
C494   C     0.83316   0.90780   0.29504   0.00000  Uiso   1.00
C495   C     0.80803   0.54489   0.21376   0.00000  Uiso   1.00
C496   C     0.83443   0.95391   0.29546   0.00000  Uiso   1.00
C497   C     0.83774   0.52463   0.25225   0.00000  Uiso   1.00
C498   C     0.83870   0.97618   0.25285   0.00000  Uiso   1.00
Cu499  Cu    0.83333   0.75000   0.29822   0.00000  Uiso   1.00
Cu500  Cu    0.83333   0.75001   0.20179   0.00000  Uiso   1.00
H501   H     0.99221   0.74993   0.19394   0.00000  Uiso   1.00
H502   H     0.67449   0.74938   0.30600   0.00000  Uiso   1.00
H503   H     0.88970   0.53585   0.31965   0.00000  Uiso   1.00
H504   H     0.84680   0.96848   0.17706   0.00000  Uiso   1.00
H505   H     0.88746   0.61665   0.31779   0.00000  Uiso   1.00
H506   H     0.84394   0.88827   0.17598   0.00000  Uiso   1.00
H507   H     0.78276   0.60538   0.18354   0.00000  Uiso   1.00
H508   H     0.82940   0.89122   0.32819   0.00000  Uiso   1.00
H509   H     0.78471   0.52525   0.18501   0.00000  Uiso   1.00
H510   H     0.83098   0.97212   0.32873   0.00000  Uiso   1.00
H511   H     0.85124   0.81905   0.13084   0.00000  Uiso   1.00
H512   H     0.76523   0.70965   0.36232   0.00000  Uiso   1.00
H513   H     0.82004   0.68536   0.02589   0.00000  Uiso   1.00
H514   H     0.89579   0.79390   0.47722   0.00000  Uiso   1.00
N515   N     0.83333   0.75001   0.12935   0.00000  Uiso   1.00
N516   N     0.83333   0.74999   0.37066   0.00000  Uiso   1.00
O517   O     0.83334   0.68573   0.29072   0.00000  Uiso   1.00
O518   O     0.83333   0.81428   0.20929   0.00000  Uiso   1.00
O519   O     0.83334   0.68573   0.20928   0.00000  Uiso   1.00
O520   O     0.83333   0.81427   0.29072   0.00000  Uiso   1.00
O521   O     0.75828   0.75000   0.28132   0.00000  Uiso   1.00
O522   O     0.90839   0.75001   0.21868   0.00000  Uiso   1.00
O523   O     0.75828   0.75000   0.19989   0.00000  Uiso   1.00
O524   O     0.90839   0.75000   0.30012   0.00000  Uiso   1.00
C525   C     0.83906   0.83997   0.03814   0.00000  Uiso   1.00
C526   C     0.89293   0.86267   0.05137   0.00000  Uiso   1.00
C527   C     0.89723   0.90524   0.02412   0.00000  Uiso   1.00
H528   H     0.89195   0.89777   0.48451   0.00000  Uiso   1.00
H529   H     0.86756   0.92852   0.03251   0.00000  Uiso   1.00
H530   H     0.93608   0.92136   0.03518   0.00000  Uiso   1.00
H531   H     0.90049   0.87092   0.09084   0.00000  Uiso   1.00
H532   H     0.92331   0.84025   0.04274   0.00000  Uiso   1.00
H533   H     0.82684   0.83961   0.49845   0.00000  Uiso   1.00
H534   H     0.81045   0.85998   0.05403   0.00000  Uiso   1.00
C535   C     0.74063   0.70733   0.45181   0.00000  Uiso   1.00
C536   C     0.73890   0.65664   0.44449   0.00000  Uiso   1.00
C537   C     0.68479   0.63709   0.44668   0.00000  Uiso   1.00
H538   H     0.67133   0.64769   0.48091   0.00000  Uiso   1.00
H539   H     0.99052   0.64820   0.41576   0.00000  Uiso   1.00
H540   H     0.68526   0.60038   0.44465   0.00000  Uiso   1.00
H541   H     0.74969   0.64697   0.40876   0.00000  Uiso   1.00
H542   H     0.76659   0.64181   0.47278   0.00000  Uiso   1.00
H543   H     0.73546   0.71636   0.48950   0.00000  Uiso   1.00
H544   H     0.70720   0.72040   0.42824   0.00000  Uiso   1.00
C545   C     0.79731   0.66932   0.11163   0.00000  Uiso   1.00
C546   C     0.74294   0.67447   0.12602   0.00000  Uiso   1.00
C547   C     0.70459   0.63748   0.10400   0.00000  Uiso   1.00
H548   H     0.66678   0.64192   0.11670   0.00000  Uiso   1.00
H549   H     0.69885   0.63858   0.06400   0.00000  Uiso   1.00
H550   H     0.71880   0.60456   0.11480   0.00000  Uiso   1.00
H551   H     0.74487   0.67383   0.16575   0.00000  Uiso   1.00
H552   H     0.72682   0.70649   0.11386   0.00000  Uiso   1.00
H553   H     0.79295   0.64532   0.08018   0.00000  Uiso   1.00
H554   H     0.82457   0.65166   0.13720   0.00000  Uiso   1.00
C555   C     0.91025   0.80572   0.38760   0.00000  Uiso   1.00
C556   C     0.96542   0.78877   0.39810   0.00000  Uiso   1.00
C557   C     0.99180   0.79930   0.44998   0.00000  Uiso   1.00
H558   H     0.98343   0.83320   0.46236   0.00000  Uiso   1.00
H559   H     0.97926   0.77470   0.47492   0.00000  Uiso   1.00
H560   H     0.70098   0.79766   0.45166   0.00000  Uiso   1.00
H561   H     0.96508   0.75255   0.38996   0.00000  Uiso   1.00
H562   H     0.98915   0.80518   0.37337   0.00000  Uiso   1.00
H563   H     0.90249   0.81255   0.34923   0.00000  Uiso   1.00
H564   H     0.90845   0.83882   0.40566   0.00000  Uiso   1.00
C565   C     0.16715   0.16506   0.74961   0.00000  Uiso   1.00
C566   C     0.16737   0.33507   0.75070   0.00000  Uiso   1.00
C567   C     0.17073   0.29373   0.55731   0.00000  Uiso   1.00
C568   C     0.12243   0.22902   0.93787   0.00000  Uiso   1.00
C569   C     0.17562   0.28948   0.60841   0.00000  Uiso   1.00
C570   C     0.12752   0.22760   0.88791   0.00000  Uiso   1.00
C571   C     0.15412   0.21300   0.59816   0.00000  Uiso   1.00
C572   C     0.20275   0.27462   0.90293   0.00000  Uiso   1.00
C573   C     0.15731   0.21525   0.54848   0.00000  Uiso   1.00
C574   C     0.20011   0.27519   0.95276   0.00000  Uiso   1.00
C575   C     0.16156   0.25516   0.52623   0.00000  Uiso   1.00
C576   C     0.15992   0.25382   0.97154   0.00000  Uiso   1.00
C577   C     0.06793   0.24986   0.73750   0.00000  Uiso   1.00
C578   C     0.26540   0.24997   0.76250   0.00000  Uiso   1.00
C579   C     0.01250   0.24979   0.73074   0.00000  Uiso   1.00
C580   C     0.32083   0.24969   0.76923   0.00000  Uiso   1.00
C581   C     0.19957   0.05085   0.78979   0.00000  Uiso   1.00
C582   C     0.17591   0.45191   0.71013   0.00000  Uiso   1.00
C583   C     0.19848   0.09680   0.78859   0.00000  Uiso   1.00
C584   C     0.17443   0.40602   0.70963   0.00000  Uiso   1.00
C585   C     0.16923   0.11692   0.74971   0.00000  Uiso   1.00
C586   C     0.16933   0.38355   0.75195   0.00000  Uiso   1.00
C587   C     0.14051   0.09071   0.71258   0.00000  Uiso   1.00
C588   C     0.16649   0.40780   0.79504   0.00000  Uiso   1.00
C589   C     0.14136   0.04489   0.71376   0.00000  Uiso   1.00
C590   C     0.16776   0.45391   0.79546   0.00000  Uiso   1.00
C591   C     0.17107   0.02463   0.75225   0.00000  Uiso   1.00
C592   C     0.17203   0.47618   0.75285   0.00000  Uiso   1.00
Cu593  Cu    0.16667   0.25000   0.79822   0.00000  Uiso   1.00
Cu594  Cu    0.16667   0.25001   0.70179   0.00000  Uiso   1.00
H595   H     0.32554   0.24993   0.69394   0.00000  Uiso   1.00
H596   H     0.00782   0.24938   0.80600   0.00000  Uiso   1.00
H597   H     0.22303   0.03585   0.81965   0.00000  Uiso   1.00
H598   H     0.18014   0.46848   0.67706   0.00000  Uiso   1.00
H599   H     0.22080   0.11665   0.81779   0.00000  Uiso   1.00
H600   H     0.17728   0.38827   0.67598   0.00000  Uiso   1.00
H601   H     0.11609   0.10538   0.68354   0.00000  Uiso   1.00
H602   H     0.16274   0.39122   0.82819   0.00000  Uiso   1.00
H603   H     0.11804   0.02525   0.68501   0.00000  Uiso   1.00
H604   H     0.16432   0.47212   0.82873   0.00000  Uiso   1.00
H605   H     0.18458   0.31905   0.63084   0.00000  Uiso   1.00
H606   H     0.09856   0.20965   0.86232   0.00000  Uiso   1.00
H607   H     0.15338   0.18536   0.52589   0.00000  Uiso   1.00
H608   H     0.22913   0.29390   0.97722   0.00000  Uiso   1.00
N609   N     0.16667   0.25001   0.62935   0.00000  Uiso   1.00
N610   N     0.16667   0.24999   0.87066   0.00000  Uiso   1.00
O611   O     0.16667   0.18573   0.79072   0.00000  Uiso   1.00
O612   O     0.16666   0.31428   0.70929   0.00000  Uiso   1.00
O613   O     0.16667   0.18573   0.70928   0.00000  Uiso   1.00
O614   O     0.16666   0.31427   0.79072   0.00000  Uiso   1.00
O615   O     0.09161   0.25000   0.78132   0.00000  Uiso   1.00
O616   O     0.24172   0.25001   0.71868   0.00000  Uiso   1.00
O617   O     0.09161   0.25000   0.69989   0.00000  Uiso   1.00
O618   O     0.24172   0.25000   0.80012   0.00000  Uiso   1.00
C619   C     0.17239   0.33997   0.53814   0.00000  Uiso   1.00
C620   C     0.22626   0.36267   0.55137   0.00000  Uiso   1.00
C621   C     0.23056   0.40524   0.52412   0.00000  Uiso   1.00
H622   H     0.22528   0.39777   0.98451   0.00000  Uiso   1.00
H623   H     0.20090   0.42852   0.53251   0.00000  Uiso   1.00
H624   H     0.26941   0.42136   0.53518   0.00000  Uiso   1.00
H625   H     0.23382   0.37092   0.59084   0.00000  Uiso   1.00
H626   H     0.25665   0.34025   0.54274   0.00000  Uiso   1.00
H627   H     0.16018   0.33961   0.99845   0.00000  Uiso   1.00
H628   H     0.14378   0.35998   0.55403   0.00000  Uiso   1.00
C629   C     0.07396   0.20733   0.95181   0.00000  Uiso   1.00
C630   C     0.07223   0.15664   0.94449   0.00000  Uiso   1.00
C631   C     0.01812   0.13709   0.94668   0.00000  Uiso   1.00
H632   H     0.00466   0.14769   0.98091   0.00000  Uiso   1.00
H633   H     0.32386   0.14820   0.91576   0.00000  Uiso   1.00
H634   H     0.01859   0.10038   0.94465   0.00000  Uiso   1.00
H635   H     0.08303   0.14697   0.90876   0.00000  Uiso   1.00
H636   H     0.09992   0.14181   0.97278   0.00000  Uiso   1.00
H637   H     0.06879   0.21636   0.98950   0.00000  Uiso   1.00
H638   H     0.04053   0.22040   0.92824   0.00000  Uiso   1.00
C639   C     0.13064   0.16932   0.61163   0.00000  Uiso   1.00
C640   C     0.07627   0.17447   0.62602   0.00000  Uiso   1.00
C641   C     0.03792   0.13748   0.60400   0.00000  Uiso   1.00
H642   H     0.00011   0.14192   0.61670   0.00000  Uiso   1.00
H643   H     0.03218   0.13858   0.56400   0.00000  Uiso   1.00
H644   H     0.05214   0.10456   0.61480   0.00000  Uiso   1.00
H645   H     0.07821   0.17383   0.66575   0.00000  Uiso   1.00
H646   H     0.06015   0.20649   0.61386   0.00000  Uiso   1.00
H647   H     0.12629   0.14532   0.58018   0.00000  Uiso   1.00
H648   H     0.15791   0.15166   0.63720   0.00000  Uiso   1.00
C649   C     0.24359   0.30572   0.88760   0.00000  Uiso   1.00
C650   C     0.29875   0.28877   0.89810   0.00000  Uiso   1.00
C651   C     0.32513   0.29930   0.94998   0.00000  Uiso   1.00
H652   H     0.31677   0.33320   0.96236   0.00000  Uiso   1.00
H653   H     0.31259   0.27470   0.97492   0.00000  Uiso   1.00
H654   H     0.03432   0.29766   0.95166   0.00000  Uiso   1.00
H655   H     0.29841   0.25255   0.88996   0.00000  Uiso   1.00
H656   H     0.32248   0.30518   0.87337   0.00000  Uiso   1.00
H657   H     0.23582   0.31255   0.84923   0.00000  Uiso   1.00
H658   H     0.24178   0.33882   0.90566   0.00000  Uiso   1.00
C659   C     0.50049   0.16506   0.74961   0.00000  Uiso   1.00
C660   C     0.50071   0.33507   0.75070   0.00000  Uiso   1.00
C661   C     0.50406   0.29373   0.55731   0.00000  Uiso   1.00
C662   C     0.45577   0.22902   0.93787   0.00000  Uiso   1.00
C663   C     0.50896   0.28948   0.60841   0.00000  Uiso   1.00
C664   C     0.46085   0.22760   0.88791   0.00000  Uiso   1.00
C665   C     0.48745   0.21300   0.59816   0.00000  Uiso   1.00
C666   C     0.53609   0.27462   0.90293   0.00000  Uiso   1.00
C667   C     0.49064   0.21525   0.54848   0.00000  Uiso   1.00
C668   C     0.53344   0.27519   0.95276   0.00000  Uiso   1.00
C669   C     0.49489   0.25516   0.52623   0.00000  Uiso   1.00
C670   C     0.49325   0.25382   0.97154   0.00000  Uiso   1.00
C671   C     0.40127   0.24986   0.73750   0.00000  Uiso   1.00
C672   C     0.59873   0.24997   0.76250   0.00000  Uiso   1.00
C673   C     0.34583   0.24979   0.73074   0.00000  Uiso   1.00
C674   C     0.65417   0.24969   0.76923   0.00000  Uiso   1.00
C675   C     0.53290   0.05085   0.78979   0.00000  Uiso   1.00
C676   C     0.50924   0.45191   0.71013   0.00000  Uiso   1.00
C677   C     0.53182   0.09680   0.78859   0.00000  Uiso   1.00
C678   C     0.50776   0.40602   0.70963   0.00000  Uiso   1.00
C679   C     0.50256   0.11692   0.74971   0.00000  Uiso   1.00
C680   C     0.50267   0.38355   0.75195   0.00000  Uiso   1.00
C681   C     0.47384   0.09071   0.71258   0.00000  Uiso   1.00
C682   C     0.49982   0.40780   0.79504   0.00000  Uiso   1.00
C683   C     0.47470   0.04489   0.71376   0.00000  Uiso   1.00
C684   C     0.50110   0.45391   0.79546   0.00000  Uiso   1.00
C685   C     0.50441   0.02463   0.75225   0.00000  Uiso   1.00
C686   C     0.50536   0.47618   0.75285   0.00000  Uiso   1.00
Cu687  Cu    0.50000   0.25000   0.79822   0.00000  Uiso   1.00
Cu688  Cu    0.50000   0.25001   0.70179   0.00000  Uiso   1.00
H689   H     0.65888   0.24993   0.69394   0.00000  Uiso   1.00
H690   H     0.34115   0.24938   0.80600   0.00000  Uiso   1.00
H691   H     0.55636   0.03585   0.81965   0.00000  Uiso   1.00
H692   H     0.51347   0.46848   0.67706   0.00000  Uiso   1.00
H693   H     0.55413   0.11665   0.81779   0.00000  Uiso   1.00
H694   H     0.51061   0.38827   0.67598   0.00000  Uiso   1.00
H695   H     0.44943   0.10538   0.68354   0.00000  Uiso   1.00
H696   H     0.49607   0.39122   0.82819   0.00000  Uiso   1.00
H697   H     0.45137   0.02525   0.68501   0.00000  Uiso   1.00
H698   H     0.49765   0.47212   0.82873   0.00000  Uiso   1.00
H699   H     0.51791   0.31905   0.63084   0.00000  Uiso   1.00
H700   H     0.43190   0.20965   0.86232   0.00000  Uiso   1.00
H701   H     0.48671   0.18536   0.52589   0.00000  Uiso   1.00
H702   H     0.56246   0.29390   0.97722   0.00000  Uiso   1.00
N703   N     0.50000   0.25001   0.62935   0.00000  Uiso   1.00
N704   N     0.50000   0.24999   0.87066   0.00000  Uiso   1.00
O705   O     0.50000   0.18573   0.79072   0.00000  Uiso   1.00
O706   O     0.50000   0.31428   0.70929   0.00000  Uiso   1.00
O707   O     0.50000   0.18573   0.70928   0.00000  Uiso   1.00
O708   O     0.50000   0.31427   0.79072   0.00000  Uiso   1.00
O709   O     0.42495   0.25000   0.78132   0.00000  Uiso   1.00
O710   O     0.57505   0.25001   0.71868   0.00000  Uiso   1.00
O711   O     0.42495   0.25000   0.69989   0.00000  Uiso   1.00
O712   O     0.57505   0.25000   0.80012   0.00000  Uiso   1.00
C713   C     0.50573   0.33997   0.53814   0.00000  Uiso   1.00
C714   C     0.55960   0.36267   0.55137   0.00000  Uiso   1.00
C715   C     0.56389   0.40524   0.52412   0.00000  Uiso   1.00
H716   H     0.55862   0.39777   0.98451   0.00000  Uiso   1.00
H717   H     0.53423   0.42852   0.53251   0.00000  Uiso   1.00
H718   H     0.60275   0.42136   0.53518   0.00000  Uiso   1.00
H719   H     0.56715   0.37092   0.59084   0.00000  Uiso   1.00
H720   H     0.58998   0.34025   0.54274   0.00000  Uiso   1.00
H721   H     0.49351   0.33961   0.99845   0.00000  Uiso   1.00
H722   H     0.47711   0.35998   0.55403   0.00000  Uiso   1.00
C723   C     0.40729   0.20733   0.95181   0.00000  Uiso   1.00
C724   C     0.40556   0.15664   0.94449   0.00000  Uiso   1.00
C725   C     0.35145   0.13709   0.94668   0.00000  Uiso   1.00
H726   H     0.33800   0.14769   0.98091   0.00000  Uiso   1.00
H727   H     0.65719   0.14820   0.91576   0.00000  Uiso   1.00
H728   H     0.35193   0.10038   0.94465   0.00000  Uiso   1.00
H729   H     0.41636   0.14697   0.90876   0.00000  Uiso   1.00
H730   H     0.43326   0.14181   0.97278   0.00000  Uiso   1.00
H731   H     0.40212   0.21636   0.98950   0.00000  Uiso   1.00
H732   H     0.37386   0.22040   0.92824   0.00000  Uiso   1.00
C733   C     0.46398   0.16932   0.61163   0.00000  Uiso   1.00
C734   C     0.40960   0.17447   0.62602   0.00000  Uiso   1.00
C735   C     0.37126   0.13748   0.60400   0.00000  Uiso   1.00
H736   H     0.33344   0.14192   0.61670   0.00000  Uiso   1.00
H737   H     0.36551   0.13858   0.56400   0.00000  Uiso   1.00
H738   H     0.38547   0.10456   0.61480   0.00000  Uiso   1.00
H739   H     0.41154   0.17383   0.66575   0.00000  Uiso   1.00
H740   H     0.39349   0.20649   0.61386   0.00000  Uiso   1.00
H741   H     0.45962   0.14532   0.58018   0.00000  Uiso   1.00
H742   H     0.49124   0.15166   0.63720   0.00000  Uiso   1.00
C743   C     0.57692   0.30572   0.88760   0.00000  Uiso   1.00
C744   C     0.63208   0.28877   0.89810   0.00000  Uiso   1.00
C745   C     0.65847   0.29930   0.94998   0.00000  Uiso   1.00
H746   H     0.65010   0.33320   0.96236   0.00000  Uiso   1.00
H747   H     0.64593   0.27470   0.97492   0.00000  Uiso   1.00
H748   H     0.36765   0.29766   0.95166   0.00000  Uiso   1.00
H749   H     0.63174   0.25255   0.88996   0.00000  Uiso   1.00
H750   H     0.65582   0.30518   0.87337   0.00000  Uiso   1.00
H751   H     0.56915   0.31255   0.84923   0.00000  Uiso   1.00
H752   H     0.57511   0.33882   0.90566   0.00000  Uiso   1.00
C753   C     0.83382   0.16506   0.74961   0.00000  Uiso   1.00
C754   C     0.83404   0.33507   0.75070   0.00000  Uiso   1.00
C755   C     0.83740   0.29373   0.55731   0.00000  Uiso   1.00
C756   C     0.78910   0.22902   0.93787   0.00000  Uiso   1.00
C757   C     0.84229   0.28948   0.60841   0.00000  Uiso   1.00
C758   C     0.79419   0.22760   0.88791   0.00000  Uiso   1.00
C759   C     0.82079   0.21300   0.59816   0.00000  Uiso   1.00
C760   C     0.86942   0.27462   0.90293   0.00000  Uiso   1.00
C761   C     0.82398   0.21525   0.54848   0.00000  Uiso   1.00
C762   C     0.86678   0.27519   0.95276   0.00000  Uiso   1.00
C763   C     0.82822   0.25516   0.52623   0.00000  Uiso   1.00
C764   C     0.82659   0.25382   0.97154   0.00000  Uiso   1.00
C765   C     0.73460   0.24986   0.73750   0.00000  Uiso   1.00
C766   C     0.93207   0.24997   0.76250   0.00000  Uiso   1.00
C767   C     0.67916   0.24979   0.73074   0.00000  Uiso   1.00
C768   C     0.98750   0.24969   0.76923   0.00000  Uiso   1.00
C769   C     0.86624   0.05085   0.78979   0.00000  Uiso   1.00
C770   C     0.84257   0.45191   0.71013   0.00000  Uiso   1.00
C771   C     0.86515   0.09680   0.78859   0.00000  Uiso   1.00
C772   C     0.84109   0.40602   0.70963   0.00000  Uiso   1.00
C773   C     0.83589   0.11692   0.74971   0.00000  Uiso   1.00
C774   C     0.83600   0.38355   0.75195   0.00000  Uiso   1.00
C775   C     0.80718   0.09071   0.71258   0.00000  Uiso   1.00
C776   C     0.83316   0.40780   0.79504   0.00000  Uiso   1.00
C777   C     0.80803   0.04489   0.71376   0.00000  Uiso   1.00
C778   C     0.83443   0.45391   0.79546   0.00000  Uiso   1.00
C779   C     0.83774   0.02463   0.75225   0.00000  Uiso   1.00
C780   C     0.83870   0.47618   0.75285   0.00000  Uiso   1.00
Cu781  Cu    0.83333   0.25000   0.79822   0.00000  Uiso   1.00
Cu782  Cu    0.83333   0.25001   0.70179   0.00000  Uiso   1.00
H783   H     0.99221   0.24993   0.69394   0.00000  Uiso   1.00
H784   H     0.67449   0.24938   0.80600   0.00000  Uiso   1.00
H785   H     0.88970   0.03585   0.81965   0.00000  Uiso   1.00
H786   H     0.84680   0.46848   0.67706   0.00000  Uiso   1.00
H787   H     0.88746   0.11665   0.81779   0.00000  Uiso   1.00
H788   H     0.84394   0.38827   0.67598   0.00000  Uiso   1.00
H789   H     0.78276   0.10538   0.68354   0.00000  Uiso   1.00
H790   H     0.82940   0.39122   0.82819   0.00000  Uiso   1.00
H791   H     0.78471   0.02525   0.68501   0.00000  Uiso   1.00
H792   H     0.83098   0.47212   0.82873   0.00000  Uiso   1.00
H793   H     0.85124   0.31905   0.63084   0.00000  Uiso   1.00
H794   H     0.76523   0.20965   0.86232   0.00000  Uiso   1.00
H795   H     0.82004   0.18536   0.52589   0.00000  Uiso   1.00
H796   H     0.89579   0.29390   0.97722   0.00000  Uiso   1.00
N797   N     0.83333   0.25001   0.62935   0.00000  Uiso   1.00
N798   N     0.83333   0.24999   0.87066   0.00000  Uiso   1.00
O799   O     0.83334   0.18573   0.79072   0.00000  Uiso   1.00
O800   O     0.83333   0.31428   0.70929   0.00000  Uiso   1.00
O801   O     0.83334   0.18573   0.70928   0.00000  Uiso   1.00
O802   O     0.83333   0.31427   0.79072   0.00000  Uiso   1.00
O803   O     0.75828   0.25000   0.78132   0.00000  Uiso   1.00
O804   O     0.90839   0.25001   0.71868   0.00000  Uiso   1.00
O805   O     0.75828   0.25000   0.69989   0.00000  Uiso   1.00
O806   O     0.90839   0.25000   0.80012   0.00000  Uiso   1.00
C807   C     0.83906   0.33997   0.53814   0.00000  Uiso   1.00
C808   C     0.89293   0.36267   0.55137   0.00000  Uiso   1.00
C809   C     0.89723   0.40524   0.52412   0.00000  Uiso   1.00
H810   H     0.89195   0.39777   0.98451   0.00000  Uiso   1.00
H811   H     0.86756   0.42852   0.53251   0.00000  Uiso   1.00
H812   H     0.93608   0.42136   0.53518   0.00000  Uiso   1.00
H813   H     0.90049   0.37092   0.59084   0.00000  Uiso   1.00
H814   H     0.92331   0.34025   0.54274   0.00000  Uiso   1.00
H815   H     0.82684   0.33961   0.99845   0.00000  Uiso   1.00
H816   H     0.81045   0.35998   0.55403   0.00000  Uiso   1.00
C817   C     0.74063   0.20733   0.95181   0.00000  Uiso   1.00
C818   C     0.73890   0.15664   0.94449   0.00000  Uiso   1.00
C819   C     0.68479   0.13709   0.94668   0.00000  Uiso   1.00
H820   H     0.67133   0.14769   0.98091   0.00000  Uiso   1.00
H821   H     0.99052   0.14820   0.91576   0.00000  Uiso   1.00
H822   H     0.68526   0.10038   0.94465   0.00000  Uiso   1.00
H823   H     0.74969   0.14697   0.90876   0.00000  Uiso   1.00
H824   H     0.76659   0.14181   0.97278   0.00000  Uiso   1.00
H825   H     0.73546   0.21636   0.98950   0.00000  Uiso   1.00
H826   H     0.70720   0.22040   0.92824   0.00000  Uiso   1.00
C827   C     0.79731   0.16932   0.61163   0.00000  Uiso   1.00
C828   C     0.74294   0.17447   0.62602   0.00000  Uiso   1.00
C829   C     0.70459   0.13748   0.60400   0.00000  Uiso   1.00
H830   H     0.66678   0.14192   0.61670   0.00000  Uiso   1.00
H831   H     0.69885   0.13858   0.56400   0.00000  Uiso   1.00
H832   H     0.71880   0.10456   0.61480   0.00000  Uiso   1.00
H833   H     0.74487   0.17383   0.66575   0.00000  Uiso   1.00
H834   H     0.72682   0.20649   0.61386   0.00000  Uiso   1.00
H835   H     0.79295   0.14532   0.58018   0.00000  Uiso   1.00
H836   H     0.82457   0.15166   0.63720   0.00000  Uiso   1.00
C837   C     0.91025   0.30572   0.88760   0.00000  Uiso   1.00
C838   C     0.96542   0.28877   0.89810   0.00000  Uiso   1.00
C839   C     0.99180   0.29930   0.94998   0.00000  Uiso   1.00
H840   H     0.98343   0.33320   0.96236   0.00000  Uiso   1.00
H841   H     0.97926   0.27470   0.97492   0.00000  Uiso   1.00
H842   H     0.70098   0.29766   0.95166   0.00000  Uiso   1.00
H843   H     0.96508   0.25255   0.88996   0.00000  Uiso   1.00
H844   H     0.98915   0.30518   0.87337   0.00000  Uiso   1.00
H845   H     0.90249   0.31255   0.84923   0.00000  Uiso   1.00
H846   H     0.90845   0.33882   0.90566   0.00000  Uiso   1.00
C847   C     0.16715   0.66506   0.74961   0.00000  Uiso   1.00
C848   C     0.16737   0.83507   0.75070   0.00000  Uiso   1.00
C849   C     0.17073   0.79373   0.55731   0.00000  Uiso   1.00
C850   C     0.12243   0.72902   0.93787   0.00000  Uiso   1.00
C851   C     0.17562   0.78948   0.60841   0.00000  Uiso   1.00
C852   C     0.12752   0.72760   0.88791   0.00000  Uiso   1.00
C853   C     0.15412   0.71300   0.59816   0.00000  Uiso   1.00
C854   C     0.20275   0.77462   0.90293   0.00000  Uiso   1.00
C855   C     0.15731   0.71525   0.54848   0.00000  Uiso   1.00
C856   C     0.20011   0.77519   0.95276   0.00000  Uiso   1.00
C857   C     0.16156   0.75516   0.52623   0.00000  Uiso   1.00
C858   C     0.15992   0.75382   0.97154   0.00000  Uiso   1.00
C859   C     0.06793   0.74986   0.73750   0.00000  Uiso   1.00
C860   C     0.26540   0.74997   0.76250   0.00000  Uiso   1.00
C861   C     0.01250   0.74979   0.73074   0.00000  Uiso   1.00
C862   C     0.32083   0.74969   0.76923   0.00000  Uiso   1.00
C863   C     0.19957   0.55085   0.78979   0.00000  Uiso   1.00
C864   C     0.17591   0.95191   0.71013   0.00000  Uiso   1.00
C865   C     0.19848   0.59680   0.78859   0.00000  Uiso   1.00
C866   C     0.17443   0.90602   0.70963   0.00000  Uiso   1.00
C867   C     0.16923   0.61692   0.74971   0.00000  Uiso   1.00
C868   C     0.16933   0.88355   0.75195   0.00000  Uiso   1.00
C869   C     0.14051   0.59071   0.71258   0.00000  Uiso   1.00
C870   C     0.16649   0.90780   0.79504   0.00000  Uiso   1.00
C871   C     0.14136   0.54489   0.71376   0.00000  Uiso   1.00
C872   C     0.16776   0.95391   0.79546   0.00000  Uiso   1.00
C873   C     0.17107   0.52463   0.75225   0.00000  Uiso   1.00
C874   C     0.17203   0.97618   0.75285   0.00000  Uiso   1.00
Cu875  Cu    0.16667   0.75000   0.79822   0.00000  Uiso   1.00
Cu876  Cu    0.16667   0.75001   0.70179   0.00000  Uiso   1.00
H877   H     0.32554   0.74993   0.69394   0.00000  Uiso   1.00
H878   H     0.00782   0.74938   0.80600   0.00000  Uiso   1.00
H879   H     0.22303   0.53585   0.81965   0.00000  Uiso   1.00
H880   H     0.18014   0.96848   0.67706   0.00000  Uiso   1.00
H881   H     0.22080   0.61665   0.81779   0.00000  Uiso   1.00
H882   H     0.17728   0.88827   0.67598   0.00000  Uiso   1.00
H883   H     0.11609   0.60538   0.68354   0.00000  Uiso   1.00
H884   H     0.16274   0.89122   0.82819   0.00000  Uiso   1.00
H885   H     0.11804   0.52525   0.68501   0.00000  Uiso   1.00
H886   H     0.16432   0.97212   0.82873   0.00000  Uiso   1.00
H887   H     0.18458   0.81905   0.63084   0.00000  Uiso   1.00
H888   H     0.09856   0.70965   0.86232   0.00000  Uiso   1.00
H889   H     0.15338   0.68536   0.52589   0.00000  Uiso   1.00
H890   H     0.22913   0.79390   0.97722   0.00000  Uiso   1.00
N891   N     0.16667   0.75001   0.62935   0.00000  Uiso   1.00
N892   N     0.16667   0.74999   0.87066   0.00000  Uiso   1.00
O893   O     0.16667   0.68573   0.79072   0.00000  Uiso   1.00
O894   O     0.16666   0.81428   0.70929   0.00000  Uiso   1.00
O895   O     0.16667   0.68573   0.70928   0.00000  Uiso   1.00
O896   O     0.16666   0.81427   0.79072   0.00000  Uiso   1.00
O897   O     0.09161   0.75000   0.78132   0.00000  Uiso   1.00
O898   O     0.24172   0.75001   0.71868   0.00000  Uiso   1.00
O899   O     0.09161   0.75000   0.69989   0.00000  Uiso   1.00
O900   O     0.24172   0.75000   0.80012   0.00000  Uiso   1.00
C901   C     0.17239   0.83997   0.53814   0.00000  Uiso   1.00
C902   C     0.22626   0.86267   0.55137   0.00000  Uiso   1.00
C903   C     0.23056   0.90524   0.52412   0.00000  Uiso   1.00
H904   H     0.22528   0.89777   0.98451   0.00000  Uiso   1.00
H905   H     0.20090   0.92852   0.53251   0.00000  Uiso   1.00
H906   H     0.26941   0.92136   0.53518   0.00000  Uiso   1.00
H907   H     0.23382   0.87092   0.59084   0.00000  Uiso   1.00
H908   H     0.25665   0.84025   0.54274   0.00000  Uiso   1.00
H909   H     0.16018   0.83961   0.99845   0.00000  Uiso   1.00
H910   H     0.14378   0.85998   0.55403   0.00000  Uiso   1.00
C911   C     0.07396   0.70733   0.95181   0.00000  Uiso   1.00
C912   C     0.07223   0.65664   0.94449   0.00000  Uiso   1.00
C913   C     0.01812   0.63709   0.94668   0.00000  Uiso   1.00
H914   H     0.00466   0.64769   0.98091   0.00000  Uiso   1.00
H915   H     0.32386   0.64820   0.91576   0.00000  Uiso   1.00
H916   H     0.01859   0.60038   0.94465   0.00000  Uiso   1.00
H917   H     0.08303   0.64697   0.90876   0.00000  Uiso   1.00
H918   H     0.09992   0.64181   0.97278   0.00000  Uiso   1.00
H919   H     0.06879   0.71636   0.98950   0.00000  Uiso   1.00
H920   H     0.04053   0.72040   0.92824   0.00000  Uiso   1.00
C921   C     0.13064   0.66932   0.61163   0.00000  Uiso   1.00
C922   C     0.07627   0.67447   0.62602   0.00000  Uiso   1.00
C923   C     0.03792   0.63748   0.60400   0.00000  Uiso   1.00
H924   H     0.00011   0.64192   0.61670   0.00000  Uiso   1.00
H925   H     0.03218   0.63858   0.56400   0.00000  Uiso   1.00
H926   H     0.05214   0.60456   0.61480   0.00000  Uiso   1.00
H927   H     0.07821   0.67383   0.66575   0.00000  Uiso   1.00
H928   H     0.06015   0.70649   0.61386   0.00000  Uiso   1.00
H929   H     0.12629   0.64532   0.58018   0.00000  Uiso   1.00
H930   H     0.15791   0.65166   0.63720   0.00000  Uiso   1.00
C931   C     0.24359   0.80572   0.88760   0.00000  Uiso   1.00
C932   C     0.29875   0.78877   0.89810   0.00000  Uiso   1.00
C933   C     0.32513   0.79930   0.94998   0.00000  Uiso   1.00
H934   H     0.31677   0.83320   0.96236   0.00000  Uiso   1.00
H935   H     0.31259   0.77470   0.97492   0.00000  Uiso   1.00
H936   H     0.03432   0.79766   0.95166   0.00000  Uiso   1.00
H937   H     0.29841   0.75255   0.88996   0.00000  Uiso   1.00
H938   H     0.32248   0.80518   0.87337   0.00000  Uiso   1.00
H939   H     0.23582   0.81255   0.84923   0.00000  Uiso   1.00
H940   H     0.24178   0.83882   0.90566   0.00000  Uiso   1.00
C941   C     0.50049   0.66506   0.74961   0.00000  Uiso   1.00
C942   C     0.50071   0.83507   0.75070   0.00000  Uiso   1.00
C943   C     0.50406   0.79373   0.55731   0.00000  Uiso   1.00
C944   C     0.45577   0.72902   0.93787   0.00000  Uiso   1.00
C945   C     0.50896   0.78948   0.60841   0.00000  Uiso   1.00
C946   C     0.46085   0.72760   0.88791   0.00000  Uiso   1.00
C947   C     0.48745   0.71300   0.59816   0.00000  Uiso   1.00
C948   C     0.53609   0.77462   0.90293   0.00000  Uiso   1.00
C949   C     0.49064   0.71525   0.54848   0.00000  Uiso   1.00
C950   C     0.53344   0.77519   0.95276   0.00000  Uiso   1.00
C951   C     0.49489   0.75516   0.52623   0.00000  Uiso   1.00
C952   C     0.49325   0.75382   0.97154   0.00000  Uiso   1.00
C953   C     0.40127   0.74986   0.73750   0.00000  Uiso   1.00
C954   C     0.59873   0.74997   0.76250   0.00000  Uiso   1.00
C955   C     0.34583   0.74979   0.73074   0.00000  Uiso   1.00
C956   C     0.65417   0.74969   0.76923   0.00000  Uiso   1.00
C957   C     0.53290   0.55085   0.78979   0.00000  Uiso   1.00
C958   C     0.50924   0.95191   0.71013   0.00000  Uiso   1.00
C959   C     0.53182   0.59680   0.78859   0.00000  Uiso   1.00
C960   C     0.50776   0.90602   0.70963   0.00000  Uiso   1.00
C961   C     0.50256   0.61692   0.74971   0.00000  Uiso   1.00
C962   C     0.50267   0.88355   0.75195   0.00000  Uiso   1.00
C963   C     0.47384   0.59071   0.71258   0.00000  Uiso   1.00
C964   C     0.49982   0.90780   0.79504   0.00000  Uiso   1.00
C965   C     0.47470   0.54489   0.71376   0.00000  Uiso   1.00
C966   C     0.50110   0.95391   0.79546   0.00000  Uiso   1.00
C967   C     0.50441   0.52463   0.75225   0.00000  Uiso   1.00
C968   C     0.50536   0.97618   0.75285   0.00000  Uiso   1.00
Cu969  Cu    0.50000   0.75000   0.79822   0.00000  Uiso   1.00
Cu970  Cu    0.50000   0.75001   0.70179   0.00000  Uiso   1.00
H971   H     0.65888   0.74993   0.69394   0.00000  Uiso   1.00
H972   H     0.34115   0.74938   0.80600   0.00000  Uiso   1.00
H973   H     0.55636   0.53585   0.81965   0.00000  Uiso   1.00
H974   H     0.51347   0.96848   0.67706   0.00000  Uiso   1.00
H975   H     0.55413   0.61665   0.81779   0.00000  Uiso   1.00
H976   H     0.51061   0.88827   0.67598   0.00000  Uiso   1.00
H977   H     0.44943   0.60538   0.68354   0.00000  Uiso   1.00
H978   H     0.49607   0.89122   0.82819   0.00000  Uiso   1.00
H979   H     0.45137   0.52525   0.68501   0.00000  Uiso   1.00
H980   H     0.49765   0.97212   0.82873   0.00000  Uiso   1.00
H981   H     0.51791   0.81905   0.63084   0.00000  Uiso   1.00
H982   H     0.43190   0.70965   0.86232   0.00000  Uiso   1.00
H983   H     0.48671   0.68536   0.52589   0.00000  Uiso   1.00
H984   H     0.56246   0.79390   0.97722   0.00000  Uiso   1.00
N985   N     0.50000   0.75001   0.62935   0.00000  Uiso   1.00
N986   N     0.50000   0.74999   0.87066   0.00000  Uiso   1.00
O987   O     0.50000   0.68573   0.79072   0.00000  Uiso   1.00
O988   O     0.50000   0.81428   0.70929   0.00000  Uiso   1.00
O989   O     0.50000   0.68573   0.70928   0.00000  Uiso   1.00
O990   O     0.50000   0.81427   0.79072   0.00000  Uiso   1.00
O991   O     0.42495   0.75000   0.78132   0.00000  Uiso   1.00
O992   O     0.57505   0.75001   0.71868   0.00000  Uiso   1.00
O993   O     0.42495   0.75000   0.69989   0.00000  Uiso   1.00
O994   O     0.57505   0.75000   0.80012   0.00000  Uiso   1.00
C995   C     0.50573   0.83997   0.53814   0.00000  Uiso   1.00
C996   C     0.55960   0.86267   0.55137   0.00000  Uiso   1.00
C997   C     0.56389   0.90524   0.52412   0.00000  Uiso   1.00
H998   H     0.55862   0.89777   0.98451   0.00000  Uiso   1.00
H999   H     0.53423   0.92852   0.53251   0.00000  Uiso   1.00
H1000  H     0.60275   0.92136   0.53518   0.00000  Uiso   1.00
H1001  H     0.56715   0.87092   0.59084   0.00000  Uiso   1.00
H1002  H     0.58998   0.84025   0.54274   0.00000  Uiso   1.00
H1003  H     0.49351   0.83961   0.99845   0.00000  Uiso   1.00
H1004  H     0.47711   0.85998   0.55403   0.00000  Uiso   1.00
C1005  C     0.40729   0.70733   0.95181   0.00000  Uiso   1.00
C1006  C     0.40556   0.65664   0.94449   0.00000  Uiso   1.00
C1007  C     0.35145   0.63709   0.94668   0.00000  Uiso   1.00
H1008  H     0.33800   0.64769   0.98091   0.00000  Uiso   1.00
H1009  H     0.65719   0.64820   0.91576   0.00000  Uiso   1.00
H1010  H     0.35193   0.60038   0.94465   0.00000  Uiso   1.00
H1011  H     0.41636   0.64697   0.90876   0.00000  Uiso   1.00
H1012  H     0.43326   0.64181   0.97278   0.00000  Uiso   1.00
H1013  H     0.40212   0.71636   0.98950   0.00000  Uiso   1.00
H1014  H     0.37386   0.72040   0.92824   0.00000  Uiso   1.00
C1015  C     0.46398   0.66932   0.61163   0.00000  Uiso   1.00
C1016  C     0.40960   0.67447   0.62602   0.00000  Uiso   1.00
C1017  C     0.37126   0.63748   0.60400   0.00000  Uiso   1.00
H1018  H     0.33344   0.64192   0.61670   0.00000  Uiso   1.00
H1019  H     0.36551   0.63858   0.56400   0.00000  Uiso   1.00
H1020  H     0.38547   0.60456   0.61480   0.00000  Uiso   1.00
H1021  H     0.41154   0.67383   0.66575   0.00000  Uiso   1.00
H1022  H     0.39349   0.70649   0.61386   0.00000  Uiso   1.00
H1023  H     0.45962   0.64532   0.58018   0.00000  Uiso   1.00
H1024  H     0.49124   0.65166   0.63720   0.00000  Uiso   1.00
C1025  C     0.57692   0.80572   0.88760   0.00000  Uiso   1.00
C1026  C     0.63208   0.78877   0.89810   0.00000  Uiso   1.00
C1027  C     0.65847   0.79930   0.94998   0.00000  Uiso   1.00
H1028  H     0.65010   0.83320   0.96236   0.00000  Uiso   1.00
H1029  H     0.64593   0.77470   0.97492   0.00000  Uiso   1.00
H1030  H     0.36765   0.79766   0.95166   0.00000  Uiso   1.00
H1031  H     0.63174   0.75255   0.88996   0.00000  Uiso   1.00
H1032  H     0.65582   0.80518   0.87337   0.00000  Uiso   1.00
H1033  H     0.56915   0.81255   0.84923   0.00000  Uiso   1.00
H1034  H     0.57511   0.83882   0.90566   0.00000  Uiso   1.00
C1035  C     0.83382   0.66506   0.74961   0.00000  Uiso   1.00
C1036  C     0.83404   0.83507   0.75070   0.00000  Uiso   1.00
C1037  C     0.83740   0.79373   0.55731   0.00000  Uiso   1.00
C1038  C     0.78910   0.72902   0.93787   0.00000  Uiso   1.00
C1039  C     0.84229   0.78948   0.60841   0.00000  Uiso   1.00
C1040  C     0.79419   0.72760   0.88791   0.00000  Uiso   1.00
C1041  C     0.82079   0.71300   0.59816   0.00000  Uiso   1.00
C1042  C     0.86942   0.77462   0.90293   0.00000  Uiso   1.00
C1043  C     0.82398   0.71525   0.54848   0.00000  Uiso   1.00
C1044  C     0.86678   0.77519   0.95276   0.00000  Uiso   1.00
C1045  C     0.82822   0.75516   0.52623   0.00000  Uiso   1.00
C1046  C     0.82659   0.75382   0.97154   0.00000  Uiso   1.00
C1047  C     0.73460   0.74986   0.73750   0.00000  Uiso   1.00
C1048  C     0.93207   0.74997   0.76250   0.00000  Uiso   1.00
C1049  C     0.67916   0.74979   0.73074   0.00000  Uiso   1.00
C1050  C     0.98750   0.74969   0.76923   0.00000  Uiso   1.00
C1051  C     0.86624   0.55085   0.78979   0.00000  Uiso   1.00
C1052  C     0.84257   0.95191   0.71013   0.00000  Uiso   1.00
C1053  C     0.86515   0.59680   0.78859   0.00000  Uiso   1.00
C1054  C     0.84109   0.90602   0.70963   0.00000  Uiso   1.00
C1055  C     0.83589   0.61692   0.74971   0.00000  Uiso   1.00
C1056  C     0.83600   0.88355   0.75195   0.00000  Uiso   1.00
C1057  C     0.80718   0.59071   0.71258   0.00000  Uiso   1.00
C1058  C     0.83316   0.90780   0.79504   0.00000  Uiso   1.00
C1059  C     0.80803   0.54489   0.71376   0.00000  Uiso   1.00
C1060  C     0.83443   0.95391   0.79546   0.00000  Uiso   1.00
C1061  C     0.83774   0.52463   0.75225   0.00000  Uiso   1.00
C1062  C     0.83870   0.97618   0.75285   0.00000  Uiso   1.00
Cu1063 Cu    0.83333   0.75000   0.79822   0.00000  Uiso   1.00
Cu1064 Cu    0.83333   0.75001   0.70179   0.00000  Uiso   1.00
H1065  H     0.99221   0.74993   0.69394   0.00000  Uiso   1.00
H1066  H     0.67449   0.74938   0.80600   0.00000  Uiso   1.00
H1067  H     0.88970   0.53585   0.81965   0.00000  Uiso   1.00
H1068  H     0.84680   0.96848   0.67706   0.00000  Uiso   1.00
H1069  H     0.88746   0.61665   0.81779   0.00000  Uiso   1.00
H1070  H     0.84394   0.88827   0.67598   0.00000  Uiso   1.00
H1071  H     0.78276   0.60538   0.68354   0.00000  Uiso   1.00
H1072  H     0.82940   0.89122   0.82819   0.00000  Uiso   1.00
H1073  H     0.78471   0.52525   0.68501   0.00000  Uiso   1.00
H1074  H     0.83098   0.97212   0.82873   0.00000  Uiso   1.00
H1075  H     0.85124   0.81905   0.63084   0.00000  Uiso   1.00
H1076  H     0.76523   0.70965   0.86232   0.00000  Uiso   1.00
H1077  H     0.82004   0.68536   0.52589   0.00000  Uiso   1.00
H1078  H     0.89579   0.79390   0.97722   0.00000  Uiso   1.00
N1079  N     0.83333   0.75001   0.62935   0.00000  Uiso   1.00
N1080  N     0.83333   0.74999   0.87066   0.00000  Uiso   1.00
O1081  O     0.83334   0.68573   0.79072   0.00000  Uiso   1.00
O1082  O     0.83333   0.81428   0.70929   0.00000  Uiso   1.00
O1083  O     0.83334   0.68573   0.70928   0.00000  Uiso   1.00
O1084  O     0.83333   0.81427   0.79072   0.00000  Uiso   1.00
O1085  O     0.75828   0.75000   0.78132   0.00000  Uiso   1.00
O1086  O     0.90839   0.75001   0.71868   0.00000  Uiso   1.00
O1087  O     0.75828   0.75000   0.69989   0.00000  Uiso   1.00
O1088  O     0.90839   0.75000   0.80012   0.00000  Uiso   1.00
C1089  C     0.83906   0.83997   0.53814   0.00000  Uiso   1.00
C1090  C     0.89293   0.86267   0.55137   0.00000  Uiso   1.00
C1091  C     0.89723   0.90524   0.52412   0.00000  Uiso   1.00
H1092  H     0.89195   0.89777   0.98451   0.00000  Uiso   1.00
H1093  H     0.86756   0.92852   0.53251   0.00000  Uiso   1.00
H1094  H     0.93608   0.92136   0.53518   0.00000  Uiso   1.00
H1095  H     0.90049   0.87092   0.59084   0.00000  Uiso   1.00
H1096  H     0.92331   0.84025   0.54274   0.00000  Uiso   1.00
H1097  H     0.82684   0.83961   0.99845   0.00000  Uiso   1.00
H1098  H     0.81045   0.85998   0.55403   0.00000  Uiso   1.00
C1099  C     0.74063   0.70733   0.95181   0.00000  Uiso   1.00
C1100  C     0.73890   0.65664   0.94449   0.00000  Uiso   1.00
C1101  C     0.68479   0.63709   0.94668   0.00000  Uiso   1.00
H1102  H     0.67133   0.64769   0.98091   0.00000  Uiso   1.00
H1103  H     0.99052   0.64820   0.91576   0.00000  Uiso   1.00
H1104  H     0.68526   0.60038   0.94465   0.00000  Uiso   1.00
H1105  H     0.74969   0.64697   0.90876   0.00000  Uiso   1.00
H1106  H     0.76659   0.64181   0.97278   0.00000  Uiso   1.00
H1107  H     0.73546   0.71636   0.98950   0.00000  Uiso   1.00
H1108  H     0.70720   0.72040   0.92824   0.00000  Uiso   1.00
C1109  C     0.79731   0.66932   0.61163   0.00000  Uiso   1.00
C1110  C     0.74294   0.67447   0.62602   0.00000  Uiso   1.00
C1111  C     0.70459   0.63748   0.60400   0.00000  Uiso   1.00
H1112  H     0.66678   0.64192   0.61670   0.00000  Uiso   1.00
H1113  H     0.69885   0.63858   0.56400   0.00000  Uiso   1.00
H1114  H     0.71880   0.60456   0.61480   0.00000  Uiso   1.00
H1115  H     0.74487   0.67383   0.66575   0.00000  Uiso   1.00
H1116  H     0.72682   0.70649   0.61386   0.00000  Uiso   1.00
H1117  H     0.79295   0.64532   0.58018   0.00000  Uiso   1.00
H1118  H     0.82457   0.65166   0.63720   0.00000  Uiso   1.00
C1119  C     0.91025   0.80572   0.88760   0.00000  Uiso   1.00
C1120  C     0.96542   0.78877   0.89810   0.00000  Uiso   1.00
C1121  C     0.99180   0.79930   0.94998   0.00000  Uiso   1.00
H1122  H     0.98343   0.83320   0.96236   0.00000  Uiso   1.00
H1123  H     0.97926   0.77470   0.97492   0.00000  Uiso   1.00
H1124  H     0.70098   0.79766   0.95166   0.00000  Uiso   1.00
H1125  H     0.96508   0.75255   0.88996   0.00000  Uiso   1.00
H1126  H     0.98915   0.80518   0.87337   0.00000  Uiso   1.00
H1127  H     0.90249   0.81255   0.84923   0.00000  Uiso   1.00
H1128  H     0.90845   0.83882   0.90566   0.00000  Uiso   1.00
loop_
_geom_bond_atom_site_label_1
_geom_bond_atom_site_label_2
_geom_bond_distance
_geom_bond_site_symmetry_2
_ccdc_geom_bond_type
C1     C21     1.459   .     S
C1     O47     1.293   .     A
C1     O49     1.305   .     A
C2     O50     1.303   .     A
C2     C22     1.464   .     S
C2     O48     1.298   .     A
C3     C55     1.515   .     S
C3     C5      1.426   .     A
C3     C11     1.425   .     A
C4     C65     1.516   .     S
C4     C12     1.431   .     A
C4     C6      1.422   .     A
C5     N45     1.374   .     A
C5     H41     1.075   .     S
C6     N46     1.364   .     A
C6     H42     1.082   .     S
C7     N45     1.397   .     A
C7     C75     1.519   .     S
C7     C9      1.408   .     A
C8     C85     1.517   .     S
C8     N46     1.387   .     A
C8     C10     1.405   .     A
C9     H43     1.080   .     S
C9     C11     1.383   .     A
C10    H44     1.077   .     S
C10    C12     1.392   .     A
C11    C576    1.523   1_554 S
C12    C575    1.523   .     S
C13    O51     1.290   .     A
C13    O53     1.297   .     A
C13    C15     1.436   .     S
C14    O52     1.290   .     A
C14    O54     1.297   .     A
C14    C16     1.436   .     S
C15    C204    1.339   1_455 S
C15    H219    1.087   1_455 S
C16    C109    1.339   .     S
C16    H126    1.087   .     S
C17    H33     1.083   .     S
C17    C27     1.402   .     A
C17    C19     1.392   .     A
C18    C28     1.401   .     A
C18    H34     1.083   .     S
C18    C20     1.386   .     A
C19    C21     1.403   .     A
C19    H35     1.084   .     S
C20    C22     1.404   .     A
C20    H36     1.082   .     S
C21    C23     1.397   .     A
C22    C24     1.404   .     A
C23    H37     1.075   .     S
C23    C25     1.388   .     A
C24    C26     1.393   .     A
C24    H38     1.083   .     S
C25    C27     1.403   .     A
C25    H39     1.083   .     S
C26    C28     1.403   .     A
C26    H40     1.083   .     S
C27    C310    1.466   1_545 S
C28    C309    1.466   .     S
Cu29   O47     1.948   .     S
Cu29   O54     1.958   .     S
Cu29   O50     1.961   .     S
Cu29   Cu30    2.697   .     S
Cu29   O51     1.953   .     S
Cu29   N46     2.026   .     S
Cu30   N45     2.026   .     S
Cu30   O48     1.948   .     S
Cu30   O52     1.953   .     S
Cu30   O53     1.958   .     S
Cu30   O49     1.961   .     S
H31    C109    1.087   .     S
H32    C204    1.087   1_455 S
C55    C56     1.537   .     S
C55    H64     1.112   .     S
C55    H627    1.109   1_554 S
C56    C57     1.526   .     S
C56    H62     1.111   .     S
C56    H61     1.111   .     S
C57    H59     1.111   .     S
C57    H60     1.110   .     S
C57    H622    1.111   1_554 S
H58    C621    1.111   .     S
H63    C619    1.109   .     S
C65    H73     1.109   .     S
C65    H74     1.108   .     S
C65    C66     1.538   .     S
C66    C67     1.527   .     S
C66    H72     1.109   .     S
C66    H71     1.111   .     S
C67    H68     1.109   .     S
C67    H70     1.110   .     S
C67    H257    1.111   1_455 S
H69    C161    1.111   .     S
C75    H83     1.113   .     S
C75    H84     1.098   .     S
C75    C76     1.547   .     S
C76    C77     1.529   .     S
C76    H82     1.113   .     S
C76    H81     1.106   .     S
C77    H78     1.111   .     S
C77    H79     1.109   .     S
C77    H80     1.110   .     S
C85    H93     1.090   .     S
C85    C86     1.540   .     S
C85    H94     1.113   .     S
C86    H91     1.111   .     S
C86    C87     1.532   .     S
C86    H92     1.112   .     S
C87    H88     1.111   .     S
C87    H89     1.110   .     S
C87    H184    1.110   .     S
H90    C275    1.110   1_455 S
C95    C115    1.459   .     S
C95    O141    1.293   .     A
C95    O143    1.305   .     A
C96    O144    1.303   .     A
C96    C116    1.464   .     S
C96    O142    1.298   .     A
C97    C149    1.515   .     S
C97    C99     1.426   .     A
C97    C105    1.425   .     A
C98    C159    1.516   .     S
C98    C106    1.431   .     A
C98    C100    1.422   .     A
C99    N139    1.374   .     A
C99    H135    1.075   .     S
C100   N140    1.364   .     A
C100   H136    1.082   .     S
C101   N139    1.397   .     A
C101   C169    1.519   .     S
C101   C103    1.408   .     A
C102   C179    1.517   .     S
C102   N140    1.387   .     A
C102   C104    1.405   .     A
C103   H137    1.080   .     S
C103   C105    1.383   .     A
C104   H138    1.077   .     S
C104   C106    1.392   .     A
C105   C670    1.523   1_554 S
C106   C669    1.523   .     S
C107   O145    1.290   .     A
C107   O147    1.297   .     A
C107   C109    1.436   .     S
C108   O146    1.290   .     A
C108   O148    1.297   .     A
C108   C110    1.436   .     S
C110   C203    1.339   .     S
C110   H220    1.087   .     S
C111   H127    1.083   .     S
C111   C121    1.402   .     A
C111   C113    1.392   .     A
C112   C122    1.401   .     A
C112   H128    1.083   .     S
C112   C114    1.386   .     A
C113   C115    1.403   .     A
C113   H129    1.084   .     S
C114   C116    1.404   .     A
C114   H130    1.082   .     S
C115   C117    1.397   .     A
C116   C118    1.404   .     A
C117   H131    1.075   .     S
C117   C119    1.388   .     A
C118   C120    1.393   .     A
C118   H132    1.083   .     S
C119   C121    1.403   .     A
C119   H133    1.083   .     S
C120   C122    1.403   .     A
C120   H134    1.083   .     S
C121   C404    1.466   1_545 S
C122   C403    1.466   .     S
Cu123  O141    1.948   .     S
Cu123  O148    1.958   .     S
Cu123  O144    1.961   .     S
Cu123  Cu124   2.697   .     S
Cu123  O145    1.953   .     S
Cu123  N140    2.026   .     S
Cu124  N139    2.026   .     S
Cu124  O142    1.948   .     S
Cu124  O146    1.953   .     S
Cu124  O147    1.958   .     S
Cu124  O143    1.961   .     S
H125   C203    1.087   .     S
C149   C150    1.537   .     S
C149   H158    1.112   .     S
C149   H721    1.109   1_554 S
C150   C151    1.526   .     S
C150   H156    1.111   .     S
C150   H155    1.111   .     S
C151   H153    1.111   .     S
C151   H154    1.110   .     S
C151   H716    1.111   1_554 S
H152   C715    1.111   .     S
H157   C713    1.109   .     S
C159   H167    1.109   .     S
C159   H168    1.108   .     S
C159   C160    1.538   .     S
C160   C161    1.527   .     S
C160   H166    1.109   .     S
C160   H165    1.111   .     S
C161   H162    1.109   .     S
C161   H164    1.110   .     S
H163   C255    1.111   .     S
C169   H177    1.113   .     S
C169   H178    1.098   .     S
C169   C170    1.547   .     S
C170   C171    1.529   .     S
C170   H176    1.113   .     S
C170   H175    1.106   .     S
C171   H172    1.111   .     S
C171   H173    1.109   .     S
C171   H174    1.110   .     S
C179   H187    1.090   .     S
C179   C180    1.540   .     S
C179   H188    1.113   .     S
C180   H185    1.111   .     S
C180   C181    1.532   .     S
C180   H186    1.112   .     S
C181   H182    1.111   .     S
C181   H183    1.110   .     S
C181   H278    1.110   .     S
C189   C209    1.459   .     S
C189   O235    1.293   .     A
C189   O237    1.305   .     A
C190   O238    1.303   .     A
C190   C210    1.464   .     S
C190   O236    1.298   .     A
C191   C243    1.515   .     S
C191   C193    1.426   .     A
C191   C199    1.425   .     A
C192   C253    1.516   .     S
C192   C200    1.431   .     A
C192   C194    1.422   .     A
C193   N233    1.374   .     A
C193   H229    1.075   .     S
C194   N234    1.364   .     A
C194   H230    1.082   .     S
C195   N233    1.397   .     A
C195   C263    1.519   .     S
C195   C197    1.408   .     A
C196   C273    1.517   .     S
C196   N234    1.387   .     A
C196   C198    1.405   .     A
C197   H231    1.080   .     S
C197   C199    1.383   .     A
C198   H232    1.077   .     S
C198   C200    1.392   .     A
C199   C764    1.523   1_554 S
C200   C763    1.523   .     S
C201   O239    1.290   .     A
C201   O241    1.297   .     A
C201   C203    1.436   .     S
C202   O240    1.290   .     A
C202   O242    1.297   .     A
C202   C204    1.436   .     S
C204   C15     1.339   1_655 S
C204   H32     1.087   1_655 S
C205   H221    1.083   .     S
C205   C215    1.402   .     A
C205   C207    1.392   .     A
C206   C216    1.401   .     A
C206   H222    1.083   .     S
C206   C208    1.386   .     A
C207   C209    1.403   .     A
C207   H223    1.084   .     S
C208   C210    1.404   .     A
C208   H224    1.082   .     S
C209   C211    1.397   .     A
C210   C212    1.404   .     A
C211   H225    1.075   .     S
C211   C213    1.388   .     A
C212   C214    1.393   .     A
C212   H226    1.083   .     S
C213   C215    1.403   .     A
C213   H227    1.083   .     S
C214   C216    1.403   .     A
C214   H228    1.083   .     S
C215   C498    1.466   1_545 S
C216   C497    1.466   .     S
Cu217  O235    1.948   .     S
Cu217  O242    1.958   .     S
Cu217  O238    1.961   .     S
Cu217  Cu218   2.697   .     S
Cu217  O239    1.953   .     S
Cu217  N234    2.026   .     S
Cu218  N233    2.026   .     S
Cu218  O236    1.948   .     S
Cu218  O240    1.953   .     S
Cu218  O241    1.958   .     S
Cu218  O237    1.961   .     S
H219   C15     1.087   1_655 S
C243   C244    1.537   .     S
C243   H252    1.112   .     S
C243   H815    1.109   1_554 S
C244   C245    1.526   .     S
C244   H250    1.111   .     S
C244   H249    1.111   .     S
C245   H247    1.111   .     S
C245   H248    1.110   .     S
C245   H810    1.111   1_554 S
H246   C809    1.111   .     S
H251   C807    1.109   .     S
C253   H261    1.109   .     S
C253   H262    1.108   .     S
C253   C254    1.538   .     S
C254   C255    1.527   .     S
C254   H260    1.109   .     S
C254   H259    1.111   .     S
C255   H256    1.109   .     S
C255   H258    1.110   .     S
H257   C67     1.111   1_655 S
C263   H271    1.113   .     S
C263   H272    1.098   .     S
C263   C264    1.547   .     S
C264   C265    1.529   .     S
C264   H270    1.113   .     S
C264   H269    1.106   .     S
C265   H266    1.111   .     S
C265   H267    1.109   .     S
C265   H268    1.110   .     S
C273   H281    1.090   .     S
C273   C274    1.540   .     S
C273   H282    1.113   .     S
C274   H279    1.111   .     S
C274   C275    1.532   .     S
C274   H280    1.112   .     S
C275   H276    1.111   .     S
C275   H277    1.110   .     S
C275   H90     1.110   1_655 S
C283   C303    1.459   .     S
C283   O329    1.293   .     A
C283   O331    1.305   .     A
C284   O332    1.303   .     A
C284   C304    1.464   .     S
C284   O330    1.298   .     A
C285   C337    1.515   .     S
C285   C287    1.426   .     A
C285   C293    1.425   .     A
C286   C347    1.516   .     S
C286   C294    1.431   .     A
C286   C288    1.422   .     A
C287   N327    1.374   .     A
C287   H323    1.075   .     S
C288   N328    1.364   .     A
C288   H324    1.082   .     S
C289   N327    1.397   .     A
C289   C357    1.519   .     S
C289   C291    1.408   .     A
C290   C367    1.517   .     S
C290   N328    1.387   .     A
C290   C292    1.405   .     A
C291   H325    1.080   .     S
C291   C293    1.383   .     A
C292   H326    1.077   .     S
C292   C294    1.392   .     A
C293   C858    1.523   1_554 S
C294   C857    1.523   .     S
C295   O333    1.290   .     A
C295   O335    1.297   .     A
C295   C297    1.436   .     S
C296   O334    1.290   .     A
C296   O336    1.297   .     A
C296   C298    1.436   .     S
C297   C486    1.339   1_455 S
C297   H501    1.087   1_455 S
C298   C391    1.339   .     S
C298   H408    1.087   .     S
C299   H315    1.083   .     S
C299   C309    1.402   .     A
C299   C301    1.392   .     A
C300   C310    1.401   .     A
C300   H316    1.083   .     S
C300   C302    1.386   .     A
C301   C303    1.403   .     A
C301   H317    1.084   .     S
C302   C304    1.404   .     A
C302   H318    1.082   .     S
C303   C305    1.397   .     A
C304   C306    1.404   .     A
C305   H319    1.075   .     S
C305   C307    1.388   .     A
C306   C308    1.393   .     A
C306   H320    1.083   .     S
C307   C309    1.403   .     A
C307   H321    1.083   .     S
C308   C310    1.403   .     A
C308   H322    1.083   .     S
C310   C27     1.466   1_565 S
Cu311  O329    1.948   .     S
Cu311  O336    1.958   .     S
Cu311  O332    1.961   .     S
Cu311  Cu312   2.697   .     S
Cu311  O333    1.953   .     S
Cu311  N328    2.026   .     S
Cu312  N327    2.026   .     S
Cu312  O330    1.948   .     S
Cu312  O334    1.953   .     S
Cu312  O335    1.958   .     S
Cu312  O331    1.961   .     S
H313   C391    1.087   .     S
H314   C486    1.087   1_455 S
C337   C338    1.537   .     S
C337   H346    1.112   .     S
C337   H909    1.109   1_554 S
C338   C339    1.526   .     S
C338   H344    1.111   .     S
C338   H343    1.111   .     S
C339   H341    1.111   .     S
C339   H342    1.110   .     S
C339   H904    1.111   1_554 S
H340   C903    1.111   .     S
H345   C901    1.109   .     S
C347   H355    1.109   .     S
C347   H356    1.108   .     S
C347   C348    1.538   .     S
C348   C349    1.527   .     S
C348   H354    1.109   .     S
C348   H353    1.111   .     S
C349   H350    1.109   .     S
C349   H352    1.110   .     S
C349   H539    1.111   1_455 S
H351   C443    1.111   .     S
C357   H365    1.113   .     S
C357   H366    1.098   .     S
C357   C358    1.547   .     S
C358   C359    1.529   .     S
C358   H364    1.113   .     S
C358   H363    1.106   .     S
C359   H360    1.111   .     S
C359   H361    1.109   .     S
C359   H362    1.110   .     S
C367   H375    1.090   .     S
C367   C368    1.540   .     S
C367   H376    1.113   .     S
C368   H373    1.111   .     S
C368   C369    1.532   .     S
C368   H374    1.112   .     S
C369   H370    1.111   .     S
C369   H371    1.110   .     S
C369   H466    1.110   .     S
H372   C557    1.110   1_455 S
C377   C397    1.459   .     S
C377   O423    1.293   .     A
C377   O425    1.305   .     A
C378   O426    1.303   .     A
C378   C398    1.464   .     S
C378   O424    1.298   .     A
C379   C431    1.515   .     S
C379   C381    1.426   .     A
C379   C387    1.425   .     A
C380   C441    1.516   .     S
C380   C388    1.431   .     A
C380   C382    1.422   .     A
C381   N421    1.374   .     A
C381   H417    1.075   .     S
C382   N422    1.364   .     A
C382   H418    1.082   .     S
C383   N421    1.397   .     A
C383   C451    1.519   .     S
C383   C385    1.408   .     A
C384   C461    1.517   .     S
C384   N422    1.387   .     A
C384   C386    1.405   .     A
C385   H419    1.080   .     S
C385   C387    1.383   .     A
C386   H420    1.077   .     S
C386   C388    1.392   .     A
C387   C952    1.523   1_554 S
C388   C951    1.523   .     S
C389   O427    1.290   .     A
C389   O429    1.297   .     A
C389   C391    1.436   .     S
C390   O428    1.290   .     A
C390   O430    1.297   .     A
C390   C392    1.436   .     S
C392   C485    1.339   .     S
C392   H502    1.087   .     S
C393   H409    1.083   .     S
C393   C403    1.402   .     A
C393   C395    1.392   .     A
C394   C404    1.401   .     A
C394   H410    1.083   .     S
C394   C396    1.386   .     A
C395   C397    1.403   .     A
C395   H411    1.084   .     S
C396   C398    1.404   .     A
C396   H412    1.082   .     S
C397   C399    1.397   .     A
C398   C400    1.404   .     A
C399   H413    1.075   .     S
C399   C401    1.388   .     A
C400   C402    1.393   .     A
C400   H414    1.083   .     S
C401   C403    1.403   .     A
C401   H415    1.083   .     S
C402   C404    1.403   .     A
C402   H416    1.083   .     S
C404   C121    1.466   1_565 S
Cu405  O423    1.948   .     S
Cu405  O430    1.958   .     S
Cu405  O426    1.961   .     S
Cu405  Cu406   2.697   .     S
Cu405  O427    1.953   .     S
Cu405  N422    2.026   .     S
Cu406  N421    2.026   .     S
Cu406  O424    1.948   .     S
Cu406  O428    1.953   .     S
Cu406  O429    1.958   .     S
Cu406  O425    1.961   .     S
H407   C485    1.087   .     S
C431   C432    1.537   .     S
C431   H440    1.112   .     S
C431   H1003   1.109   1_554 S
C432   C433    1.526   .     S
C432   H438    1.111   .     S
C432   H437    1.111   .     S
C433   H435    1.111   .     S
C433   H436    1.110   .     S
C433   H998    1.111   1_554 S
H434   C997    1.111   .     S
H439   C995    1.109   .     S
C441   H449    1.109   .     S
C441   H450    1.108   .     S
C441   C442    1.538   .     S
C442   C443    1.527   .     S
C442   H448    1.109   .     S
C442   H447    1.111   .     S
C443   H444    1.109   .     S
C443   H446    1.110   .     S
H445   C537    1.111   .     S
C451   H459    1.113   .     S
C451   H460    1.098   .     S
C451   C452    1.547   .     S
C452   C453    1.529   .     S
C452   H458    1.113   .     S
C452   H457    1.106   .     S
C453   H454    1.111   .     S
C453   H455    1.109   .     S
C453   H456    1.110   .     S
C461   H469    1.090   .     S
C461   C462    1.540   .     S
C461   H470    1.113   .     S
C462   H467    1.111   .     S
C462   C463    1.532   .     S
C462   H468    1.112   .     S
C463   H464    1.111   .     S
C463   H465    1.110   .     S
C463   H560    1.110   .     S
C471   C491    1.459   .     S
C471   O517    1.293   .     A
C471   O519    1.305   .     A
C472   O520    1.303   .     A
C472   C492    1.464   .     S
C472   O518    1.298   .     A
C473   C525    1.515   .     S
C473   C475    1.426   .     A
C473   C481    1.425   .     A
C474   C535    1.516   .     S
C474   C482    1.431   .     A
C474   C476    1.422   .     A
C475   N515    1.374   .     A
C475   H511    1.075   .     S
C476   N516    1.364   .     A
C476   H512    1.082   .     S
C477   N515    1.397   .     A
C477   C545    1.519   .     S
C477   C479    1.408   .     A
C478   C555    1.517   .     S
C478   N516    1.387   .     A
C478   C480    1.405   .     A
C479   H513    1.080   .     S
C479   C481    1.383   .     A
C480   H514    1.077   .     S
C480   C482    1.392   .     A
C481   C1046   1.523   1_554 S
C482   C1045   1.523   .     S
C483   O521    1.290   .     A
C483   O523    1.297   .     A
C483   C485    1.436   .     S
C484   O522    1.290   .     A
C484   O524    1.297   .     A
C484   C486    1.436   .     S
C486   C297    1.339   1_655 S
C486   H314    1.087   1_655 S
C487   H503    1.083   .     S
C487   C497    1.402   .     A
C487   C489    1.392   .     A
C488   C498    1.401   .     A
C488   H504    1.083   .     S
C488   C490    1.386   .     A
C489   C491    1.403   .     A
C489   H505    1.084   .     S
C490   C492    1.404   .     A
C490   H506    1.082   .     S
C491   C493    1.397   .     A
C492   C494    1.404   .     A
C493   H507    1.075   .     S
C493   C495    1.388   .     A
C494   C496    1.393   .     A
C494   H508    1.083   .     S
C495   C497    1.403   .     A
C495   H509    1.083   .     S
C496   C498    1.403   .     A
C496   H510    1.083   .     S
C498   C215    1.466   1_565 S
Cu499  O517    1.948   .     S
Cu499  O524    1.958   .     S
Cu499  O520    1.961   .     S
Cu499  Cu500   2.697   .     S
Cu499  O521    1.953   .     S
Cu499  N516    2.026   .     S
Cu500  N515    2.026   .     S
Cu500  O518    1.948   .     S
Cu500  O522    1.953   .     S
Cu500  O523    1.958   .     S
Cu500  O519    1.961   .     S
H501   C297    1.087   1_655 S
C525   C526    1.537   .     S
C525   H534    1.112   .     S
C525   H1097   1.109   1_554 S
C526   C527    1.526   .     S
C526   H532    1.111   .     S
C526   H531    1.111   .     S
C527   H529    1.111   .     S
C527   H530    1.110   .     S
C527   H1092   1.111   1_554 S
H528   C1091   1.111   .     S
H533   C1089   1.109   .     S
C535   H543    1.109   .     S
C535   H544    1.108   .     S
C535   C536    1.538   .     S
C536   C537    1.527   .     S
C536   H542    1.109   .     S
C536   H541    1.111   .     S
C537   H538    1.109   .     S
C537   H540    1.110   .     S
H539   C349    1.111   1_655 S
C545   H553    1.113   .     S
C545   H554    1.098   .     S
C545   C546    1.547   .     S
C546   C547    1.529   .     S
C546   H552    1.113   .     S
C546   H551    1.106   .     S
C547   H548    1.111   .     S
C547   H549    1.109   .     S
C547   H550    1.110   .     S
C555   H563    1.090   .     S
C555   C556    1.540   .     S
C555   H564    1.113   .     S
C556   H561    1.111   .     S
C556   C557    1.532   .     S
C556   H562    1.112   .     S
C557   H558    1.111   .     S
C557   H559    1.110   .     S
C557   H372    1.110   1_655 S
C565   C585    1.459   .     S
C565   O611    1.293   .     A
C565   O613    1.305   .     A
C566   O614    1.303   .     A
C566   C586    1.464   .     S
C566   O612    1.298   .     A
C567   C619    1.515   .     S
C567   C569    1.426   .     A
C567   C575    1.425   .     A
C568   C629    1.516   .     S
C568   C576    1.431   .     A
C568   C570    1.422   .     A
C569   N609    1.374   .     A
C569   H605    1.075   .     S
C570   N610    1.364   .     A
C570   H606    1.082   .     S
C571   N609    1.397   .     A
C571   C639    1.519   .     S
C571   C573    1.408   .     A
C572   C649    1.517   .     S
C572   N610    1.387   .     A
C572   C574    1.405   .     A
C573   H607    1.080   .     S
C573   C575    1.383   .     A
C574   H608    1.077   .     S
C574   C576    1.392   .     A
C576   C11     1.523   1_556 S
C577   O615    1.290   .     A
C577   O617    1.297   .     A
C577   C579    1.436   .     S
C578   O616    1.290   .     A
C578   O618    1.297   .     A
C578   C580    1.436   .     S
C579   C768    1.339   1_455 S
C579   H783    1.087   1_455 S
C580   C673    1.339   .     S
C580   H690    1.087   .     S
C581   H597    1.083   .     S
C581   C591    1.402   .     A
C581   C583    1.392   .     A
C582   C592    1.401   .     A
C582   H598    1.083   .     S
C582   C584    1.386   .     A
C583   C585    1.403   .     A
C583   H599    1.084   .     S
C584   C586    1.404   .     A
C584   H600    1.082   .     S
C585   C587    1.397   .     A
C586   C588    1.404   .     A
C587   H601    1.075   .     S
C587   C589    1.388   .     A
C588   C590    1.393   .     A
C588   H602    1.083   .     S
C589   C591    1.403   .     A
C589   H603    1.083   .     S
C590   C592    1.403   .     A
C590   H604    1.083   .     S
C591   C874    1.466   1_545 S
C592   C873    1.466   .     S
Cu593  O611    1.948   .     S
Cu593  O618    1.958   .     S
Cu593  O614    1.961   .     S
Cu593  Cu594   2.697   .     S
Cu593  O615    1.953   .     S
Cu593  N610    2.026   .     S
Cu594  N609    2.026   .     S
Cu594  O612    1.948   .     S
Cu594  O616    1.953   .     S
Cu594  O617    1.958   .     S
Cu594  O613    1.961   .     S
H595   C673    1.087   .     S
H596   C768    1.087   1_455 S
C619   C620    1.537   .     S
C619   H628    1.112   .     S
C620   C621    1.526   .     S
C620   H626    1.111   .     S
C620   H625    1.111   .     S
C621   H623    1.111   .     S
C621   H624    1.110   .     S
H622   C57     1.111   1_556 S
H627   C55     1.109   1_556 S
C629   H637    1.109   .     S
C629   H638    1.108   .     S
C629   C630    1.538   .     S
C630   C631    1.527   .     S
C630   H636    1.109   .     S
C630   H635    1.111   .     S
C631   H632    1.109   .     S
C631   H634    1.110   .     S
C631   H821    1.111   1_455 S
H633   C725    1.111   .     S
C639   H647    1.113   .     S
C639   H648    1.098   .     S
C639   C640    1.547   .     S
C640   C641    1.529   .     S
C640   H646    1.113   .     S
C640   H645    1.106   .     S
C641   H642    1.111   .     S
C641   H643    1.109   .     S
C641   H644    1.110   .     S
C649   H657    1.090   .     S
C649   C650    1.540   .     S
C649   H658    1.113   .     S
C650   H655    1.111   .     S
C650   C651    1.532   .     S
C650   H656    1.112   .     S
C651   H652    1.111   .     S
C651   H653    1.110   .     S
C651   H748    1.110   .     S
H654   C839    1.110   1_455 S
C659   C679    1.459   .     S
C659   O705    1.293   .     A
C659   O707    1.305   .     A
C660   O708    1.303   .     A
C660   C680    1.464   .     S
C660   O706    1.298   .     A
C661   C713    1.515   .     S
C661   C663    1.426   .     A
C661   C669    1.425   .     A
C662   C723    1.516   .     S
C662   C670    1.431   .     A
C662   C664    1.422   .     A
C663   N703    1.374   .     A
C663   H699    1.075   .     S
C664   N704    1.364   .     A
C664   H700    1.082   .     S
C665   N703    1.397   .     A
C665   C733    1.519   .     S
C665   C667    1.408   .     A
C666   C743    1.517   .     S
C666   N704    1.387   .     A
C666   C668    1.405   .     A
C667   H701    1.080   .     S
C667   C669    1.383   .     A
C668   H702    1.077   .     S
C668   C670    1.392   .     A
C670   C105    1.523   1_556 S
C671   O709    1.290   .     A
C671   O711    1.297   .     A
C671   C673    1.436   .     S
C672   O710    1.290   .     A
C672   O712    1.297   .     A
C672   C674    1.436   .     S
C674   C767    1.339   .     S
C674   H784    1.087   .     S
C675   H691    1.083   .     S
C675   C685    1.402   .     A
C675   C677    1.392   .     A
C676   C686    1.401   .     A
C676   H692    1.083   .     S
C676   C678    1.386   .     A
C677   C679    1.403   .     A
C677   H693    1.084   .     S
C678   C680    1.404   .     A
C678   H694    1.082   .     S
C679   C681    1.397   .     A
C680   C682    1.404   .     A
C681   H695    1.075   .     S
C681   C683    1.388   .     A
C682   C684    1.393   .     A
C682   H696    1.083   .     S
C683   C685    1.403   .     A
C683   H697    1.083   .     S
C684   C686    1.403   .     A
C684   H698    1.083   .     S
C685   C968    1.466   1_545 S
C686   C967    1.466   .     S
Cu687  O705    1.948   .     S
Cu687  O712    1.958   .     S
Cu687  O708    1.961   .     S
Cu687  Cu688   2.697   .     S
Cu687  O709    1.953   .     S
Cu687  N704    2.026   .     S
Cu688  N703    2.026   .     S
Cu688  O706    1.948   .     S
Cu688  O710    1.953   .     S
Cu688  O711    1.958   .     S
Cu688  O707    1.961   .     S
H689   C767    1.087   .     S
C713   C714    1.537   .     S
C713   H722    1.112   .     S
C714   C715    1.526   .     S
C714   H720    1.111   .     S
C714   H719    1.111   .     S
C715   H717    1.111   .     S
C715   H718    1.110   .     S
H716   C151    1.111   1_556 S
H721   C149    1.109   1_556 S
C723   H731    1.109   .     S
C723   H732    1.108   .     S
C723   C724    1.538   .     S
C724   C725    1.527   .     S
C724   H730    1.109   .     S
C724   H729    1.111   .     S
C725   H726    1.109   .     S
C725   H728    1.110   .     S
H727   C819    1.111   .     S
C733   H741    1.113   .     S
C733   H742    1.098   .     S
C733   C734    1.547   .     S
C734   C735    1.529   .     S
C734   H740    1.113   .     S
C734   H739    1.106   .     S
C735   H736    1.111   .     S
C735   H737    1.109   .     S
C735   H738    1.110   .     S
C743   H751    1.090   .     S
C743   C744    1.540   .     S
C743   H752    1.113   .     S
C744   H749    1.111   .     S
C744   C745    1.532   .     S
C744   H750    1.112   .     S
C745   H746    1.111   .     S
C745   H747    1.110   .     S
C745   H842    1.110   .     S
C753   C773    1.459   .     S
C753   O799    1.293   .     A
C753   O801    1.305   .     A
C754   O802    1.303   .     A
C754   C774    1.464   .     S
C754   O800    1.298   .     A
C755   C807    1.515   .     S
C755   C757    1.426   .     A
C755   C763    1.425   .     A
C756   C817    1.516   .     S
C756   C764    1.431   .     A
C756   C758    1.422   .     A
C757   N797    1.374   .     A
C757   H793    1.075   .     S
C758   N798    1.364   .     A
C758   H794    1.082   .     S
C759   N797    1.397   .     A
C759   C827    1.519   .     S
C759   C761    1.408   .     A
C760   C837    1.517   .     S
C760   N798    1.387   .     A
C760   C762    1.405   .     A
C761   H795    1.080   .     S
C761   C763    1.383   .     A
C762   H796    1.077   .     S
C762   C764    1.392   .     A
C764   C199    1.523   1_556 S
C765   O803    1.290   .     A
C765   O805    1.297   .     A
C765   C767    1.436   .     S
C766   O804    1.290   .     A
C766   O806    1.297   .     A
C766   C768    1.436   .     S
C768   C579    1.339   1_655 S
C768   H596    1.087   1_655 S
C769   H785    1.083   .     S
C769   C779    1.402   .     A
C769   C771    1.392   .     A
C770   C780    1.401   .     A
C770   H786    1.083   .     S
C770   C772    1.386   .     A
C771   C773    1.403   .     A
C771   H787    1.084   .     S
C772   C774    1.404   .     A
C772   H788    1.082   .     S
C773   C775    1.397   .     A
C774   C776    1.404   .     A
C775   H789    1.075   .     S
C775   C777    1.388   .     A
C776   C778    1.393   .     A
C776   H790    1.083   .     S
C777   C779    1.403   .     A
C777   H791    1.083   .     S
C778   C780    1.403   .     A
C778   H792    1.083   .     S
C779   C1062   1.466   1_545 S
C780   C1061   1.466   .     S
Cu781  O799    1.948   .     S
Cu781  O806    1.958   .     S
Cu781  O802    1.961   .     S
Cu781  Cu782   2.697   .     S
Cu781  O803    1.953   .     S
Cu781  N798    2.026   .     S
Cu782  N797    2.026   .     S
Cu782  O800    1.948   .     S
Cu782  O804    1.953   .     S
Cu782  O805    1.958   .     S
Cu782  O801    1.961   .     S
H783   C579    1.087   1_655 S
C807   C808    1.537   .     S
C807   H816    1.112   .     S
C808   C809    1.526   .     S
C808   H814    1.111   .     S
C808   H813    1.111   .     S
C809   H811    1.111   .     S
C809   H812    1.110   .     S
H810   C245    1.111   1_556 S
H815   C243    1.109   1_556 S
C817   H825    1.109   .     S
C817   H826    1.108   .     S
C817   C818    1.538   .     S
C818   C819    1.527   .     S
C818   H824    1.109   .     S
C818   H823    1.111   .     S
C819   H820    1.109   .     S
C819   H822    1.110   .     S
H821   C631    1.111   1_655 S
C827   H835    1.113   .     S
C827   H836    1.098   .     S
C827   C828    1.547   .     S
C828   C829    1.529   .     S
C828   H834    1.113   .     S
C828   H833    1.106   .     S
C829   H830    1.111   .     S
C829   H831    1.109   .     S
C829   H832    1.110   .     S
C837   H845    1.090   .     S
C837   C838    1.540   .     S
C837   H846    1.113   .     S
C838   H843    1.111   .     S
C838   C839    1.532   .     S
C838   H844    1.112   .     S
C839   H840    1.111   .     S
C839   H841    1.110   .     S
C839   H654    1.110   1_655 S
C847   C867    1.459   .     S
C847   O893    1.293   .     A
C847   O895    1.305   .     A
C848   O896    1.303   .     A
C848   C868    1.464   .     S
C848   O894    1.298   .     A
C849   C901    1.515   .     S
C849   C851    1.426   .     A
C849   C857    1.425   .     A
C850   C911    1.516   .     S
C850   C858    1.431   .     A
C850   C852    1.422   .     A
C851   N891    1.374   .     A
C851   H887    1.075   .     S
C852   N892    1.364   .     A
C852   H888    1.082   .     S
C853   N891    1.397   .     A
C853   C921    1.519   .     S
C853   C855    1.408   .     A
C854   C931    1.517   .     S
C854   N892    1.387   .     A
C854   C856    1.405   .     A
C855   H889    1.080   .     S
C855   C857    1.383   .     A
C856   H890    1.077   .     S
C856   C858    1.392   .     A
C858   C293    1.523   1_556 S
C859   O897    1.290   .     A
C859   O899    1.297   .     A
C859   C861    1.436   .     S
C860   O898    1.290   .     A
C860   O900    1.297   .     A
C860   C862    1.436   .     S
C861   C1050   1.339   1_455 S
C861   H1065   1.087   1_455 S
C862   C955    1.339   .     S
C862   H972    1.087   .     S
C863   H879    1.083   .     S
C863   C873    1.402   .     A
C863   C865    1.392   .     A
C864   C874    1.401   .     A
C864   H880    1.083   .     S
C864   C866    1.386   .     A
C865   C867    1.403   .     A
C865   H881    1.084   .     S
C866   C868    1.404   .     A
C866   H882    1.082   .     S
C867   C869    1.397   .     A
C868   C870    1.404   .     A
C869   H883    1.075   .     S
C869   C871    1.388   .     A
C870   C872    1.393   .     A
C870   H884    1.083   .     S
C871   C873    1.403   .     A
C871   H885    1.083   .     S
C872   C874    1.403   .     A
C872   H886    1.083   .     S
C874   C591    1.466   1_565 S
Cu875  O893    1.948   .     S
Cu875  O900    1.958   .     S
Cu875  O896    1.961   .     S
Cu875  Cu876   2.697   .     S
Cu875  O897    1.953   .     S
Cu875  N892    2.026   .     S
Cu876  N891    2.026   .     S
Cu876  O894    1.948   .     S
Cu876  O898    1.953   .     S
Cu876  O899    1.958   .     S
Cu876  O895    1.961   .     S
H877   C955    1.087   .     S
H878   C1050   1.087   1_455 S
C901   C902    1.537   .     S
C901   H910    1.112   .     S
C902   C903    1.526   .     S
C902   H908    1.111   .     S
C902   H907    1.111   .     S
C903   H905    1.111   .     S
C903   H906    1.110   .     S
H904   C339    1.111   1_556 S
H909   C337    1.109   1_556 S
C911   H919    1.109   .     S
C911   H920    1.108   .     S
C911   C912    1.538   .     S
C912   C913    1.527   .     S
C912   H918    1.109   .     S
C912   H917    1.111   .     S
C913   H914    1.109   .     S
C913   H916    1.110   .     S
C913   H1103   1.111   1_455 S
H915   C1007   1.111   .     S
C921   H929    1.113   .     S
C921   H930    1.098   .     S
C921   C922    1.547   .     S
C922   C923    1.529   .     S
C922   H928    1.113   .     S
C922   H927    1.106   .     S
C923   H924    1.111   .     S
C923   H925    1.109   .     S
C923   H926    1.110   .     S
C931   H939    1.090   .     S
C931   C932    1.540   .     S
C931   H940    1.113   .     S
C932   H937    1.111   .     S
C932   C933    1.532   .     S
C932   H938    1.112   .     S
C933   H934    1.111   .     S
C933   H935    1.110   .     S
C933   H1030   1.110   .     S
H936   C1121   1.110   1_455 S
C941   C961    1.459   .     S
C941   O987    1.293   .     A
C941   O989    1.305   .     A
C942   O990    1.303   .     A
C942   C962    1.464   .     S
C942   O988    1.298   .     A
C943   C995    1.515   .     S
C943   C945    1.426   .     A
C943   C951    1.425   .     A
C944   C1005   1.516   .     S
C944   C952    1.431   .     A
C944   C946    1.422   .     A
C945   N985    1.374   .     A
C945   H981    1.075   .     S
C946   N986    1.364   .     A
C946   H982    1.082   .     S
C947   N985    1.397   .     A
C947   C1015   1.519   .     S
C947   C949    1.408   .     A
C948   C1025   1.517   .     S
C948   N986    1.387   .     A
C948   C950    1.405   .     A
C949   H983    1.080   .     S
C949   C951    1.383   .     A
C950   H984    1.077   .     S
C950   C952    1.392   .     A
C952   C387    1.523   1_556 S
C953   O991    1.290   .     A
C953   O993    1.297   .     A
C953   C955    1.436   .     S
C954   O992    1.290   .     A
C954   O994    1.297   .     A
C954   C956    1.436   .     S
C956   C1049   1.339   .     S
C956   H1066   1.087   .     S
C957   H973    1.083   .     S
C957   C967    1.402   .     A
C957   C959    1.392   .     A
C958   C968    1.401   .     A
C958   H974    1.083   .     S
C958   C960    1.386   .     A
C959   C961    1.403   .     A
C959   H975    1.084   .     S
C960   C962    1.404   .     A
C960   H976    1.082   .     S
C961   C963    1.397   .     A
C962   C964    1.404   .     A
C963   H977    1.075   .     S
C963   C965    1.388   .     A
C964   C966    1.393   .     A
C964   H978    1.083   .     S
C965   C967    1.403   .     A
C965   H979    1.083   .     S
C966   C968    1.403   .     A
C966   H980    1.083   .     S
C968   C685    1.466   1_565 S
Cu969  O987    1.948   .     S
Cu969  O994    1.958   .     S
Cu969  O990    1.961   .     S
Cu969  Cu970   2.697   .     S
Cu969  O991    1.953   .     S
Cu969  N986    2.026   .     S
Cu970  N985    2.026   .     S
Cu970  O988    1.948   .     S
Cu970  O992    1.953   .     S
Cu970  O993    1.958   .     S
Cu970  O989    1.961   .     S
H971   C1049   1.087   .     S
C995   C996    1.537   .     S
C995   H1004   1.112   .     S
C996   C997    1.526   .     S
C996   H1002   1.111   .     S
C996   H1001   1.111   .     S
C997   H999    1.111   .     S
C997   H1000   1.110   .     S
H998   C433    1.111   1_556 S
H1003  C431    1.109   1_556 S
C1005  H1013   1.109   .     S
C1005  H1014   1.108   .     S
C1005  C1006   1.538   .     S
C1006  C1007   1.527   .     S
C1006  H1012   1.109   .     S
C1006  H1011   1.111   .     S
C1007  H1008   1.109   .     S
C1007  H1010   1.110   .     S
H1009  C1101   1.111   .     S
C1015  H1023   1.113   .     S
C1015  H1024   1.098   .     S
C1015  C1016   1.547   .     S
C1016  C1017   1.529   .     S
C1016  H1022   1.113   .     S
C1016  H1021   1.106   .     S
C1017  H1018   1.111   .     S
C1017  H1019   1.109   .     S
C1017  H1020   1.110   .     S
C1025  H1033   1.090   .     S
C1025  C1026   1.540   .     S
C1025  H1034   1.113   .     S
C1026  H1031   1.111   .     S
C1026  C1027   1.532   .     S
C1026  H1032   1.112   .     S
C1027  H1028   1.111   .     S
C1027  H1029   1.110   .     S
C1027  H1124   1.110   .     S
C1035  C1055   1.459   .     S
C1035  O1081   1.293   .     A
C1035  O1083   1.305   .     A
C1036  O1084   1.303   .     A
C1036  C1056   1.464   .     S
C1036  O1082   1.298   .     A
C1037  C1089   1.515   .     S
C1037  C1039   1.426   .     A
C1037  C1045   1.425   .     A
C1038  C1099   1.516   .     S
C1038  C1046   1.431   .     A
C1038  C1040   1.422   .     A
C1039  N1079   1.374   .     A
C1039  H1075   1.075   .     S
C1040  N1080   1.364   .     A
C1040  H1076   1.082   .     S
C1041  N1079   1.397   .     A
C1041  C1109   1.519   .     S
C1041  C1043   1.408   .     A
C1042  C1119   1.517   .     S
C1042  N1080   1.387   .     A
C1042  C1044   1.405   .     A
C1043  H1077   1.080   .     S
C1043  C1045   1.383   .     A
C1044  H1078   1.077   .     S
C1044  C1046   1.392   .     A
C1046  C481    1.523   1_556 S
C1047  O1085   1.290   .     A
C1047  O1087   1.297   .     A
C1047  C1049   1.436   .     S
C1048  O1086   1.290   .     A
C1048  O1088   1.297   .     A
C1048  C1050   1.436   .     S
C1050  C861    1.339   1_655 S
C1050  H878    1.087   1_655 S
C1051  H1067   1.083   .     S
C1051  C1061   1.402   .     A
C1051  C1053   1.392   .     A
C1052  C1062   1.401   .     A
C1052  H1068   1.083   .     S
C1052  C1054   1.386   .     A
C1053  C1055   1.403   .     A
C1053  H1069   1.084   .     S
C1054  C1056   1.404   .     A
C1054  H1070   1.082   .     S
C1055  C1057   1.397   .     A
C1056  C1058   1.404   .     A
C1057  H1071   1.075   .     S
C1057  C1059   1.388   .     A
C1058  C1060   1.393   .     A
C1058  H1072   1.083   .     S
C1059  C1061   1.403   .     A
C1059  H1073   1.083   .     S
C1060  C1062   1.403   .     A
C1060  H1074   1.083   .     S
C1062  C779    1.466   1_565 S
Cu1063 O1081   1.948   .     S
Cu1063 O1088   1.958   .     S
Cu1063 O1084   1.961   .     S
Cu1063 Cu1064  2.697   .     S
Cu1063 O1085   1.953   .     S
Cu1063 N1080   2.026   .     S
Cu1064 N1079   2.026   .     S
Cu1064 O1082   1.948   .     S
Cu1064 O1086   1.953   .     S
Cu1064 O1087   1.958   .     S
Cu1064 O1083   1.961   .     S
H1065  C861    1.087   1_655 S
C1089  C1090   1.537   .     S
C1089  H1098   1.112   .     S
C1090  C1091   1.526   .     S
C1090  H1096   1.111   .     S
C1090  H1095   1.111   .     S
C1091  H1093   1.111   .     S
C1091  H1094   1.110   .     S
H1092  C527    1.111   1_556 S
H1097  C525    1.109   1_556 S
C1099  H1107   1.109   .     S
C1099  H1108   1.108   .     S
C1099  C1100   1.538   .     S
C1100  C1101   1.527   .     S
C1100  H1106   1.109   .     S
C1100  H1105   1.111   .     S
C1101  H1102   1.109   .     S
C1101  H1104   1.110   .     S
H1103  C913    1.111   1_655 S
C1109  H1117   1.113   .     S
C1109  H1118   1.098   .     S
C1109  C1110   1.547   .     S
C1110  C1111   1.529   .     S
C1110  H1116   1.113   .     S
C1110  H1115   1.106   .     S
C1111  H1112   1.111   .     S
C1111  H1113   1.109   .     S
C1111  H1114   1.110   .     S
C1119  H1127   1.090   .     S
C1119  C1120   1.540   .     S
C1119  H1128   1.113   .     S
C1120  H1125   1.111   .     S
C1120  C1121   1.532   .     S
C1120  H1126   1.112   .     S
C1121  H1122   1.111   .     S
C1121  H1123   1.110   .     S
C1121  H936    1.110   1_655 S
