data_str_m2_o1_o16_pcu_sym.58
_audit_creation_date              2020-01-03
_audit_creation_method            'Materials Studio'
_symmetry_space_group_name_H-M    'P1'
_symmetry_Int_Tables_number       1
_symmetry_cell_setting            triclinic
loop_
_symmetry_equiv_pos_as_xyz
  x,y,z
_cell_length_a                    28.7220
_cell_length_b                    32.3445
_cell_length_c                    27.0181
_cell_angle_alpha                 91.3432
_cell_angle_beta                  73.7985
_cell_angle_gamma                 91.0383
loop_
_atom_site_label
_atom_site_type_symbol
_atom_site_fract_x
_atom_site_fract_y
_atom_site_fract_z
_atom_site_U_iso_or_equiv
_atom_site_adp_type
_atom_site_occupancy
C1     C     0.16709   0.24590   0.24989   0.00000  Uiso   1.00
C2     C     0.12941   0.15238   0.40473   0.00000  Uiso   1.00
C3     C     0.20937   0.31231   0.22182   0.00000  Uiso   1.00
C4     C     0.14155   0.16230   0.34927   0.00000  Uiso   1.00
C5     C     0.20830   0.02212   0.22219   0.00000  Uiso   1.00
C6     C     0.16662   0.04292   0.25018   0.00000  Uiso   1.00
C7     C     0.12623   0.02117   0.27914   0.00000  Uiso   1.00
C8     C     0.12662   0.31171   0.27855   0.00000  Uiso   1.00
C9     C     0.16790   0.29061   0.24997   0.00000  Uiso   1.00
C10    C     0.30337   0.19838   0.27270   0.00000  Uiso   1.00
C11    C     0.01955   0.19848   0.27247   0.00000  Uiso   1.00
C12    C     0.15022   0.15325   0.48674   0.00000  Uiso   1.00
C13    C     0.02865   0.13420   0.22831   0.00000  Uiso   1.00
C14    C     0.31298   0.13504   0.22776   0.00000  Uiso   1.00
C15    C     0.16640   0.08748   0.25014   0.00000  Uiso   1.00
C16    C     0.19241   0.16853   0.15046   0.00000  Uiso   1.00
C17    C     0.26974   0.17326   0.01327   0.00000  Uiso   1.00
C18    C     0.20728   0.17076   0.09421   0.00000  Uiso   1.00
C19    C     0.08119   0.14265   0.43100   0.00000  Uiso   1.00
C20    C     0.06796   0.13491   0.48362   0.00000  Uiso   1.00
C21    C     0.10150   0.14283   0.01180   0.00000  Uiso   1.00
C22    C     0.05433   0.09613   0.20594   0.00000  Uiso   1.00
C23    C     0.16540   0.15196   0.43221   0.00000  Uiso   1.00
C24    C     0.08541   0.09577   0.15586   0.00000  Uiso   1.00
C25    C     0.10508   0.05877   0.13194   0.00000  Uiso   1.00
C26    C     0.09179   0.02136   0.15716   0.00000  Uiso   1.00
C27    C     0.05859   0.02103   0.20605   0.00000  Uiso   1.00
C28    C     0.04013   0.05824   0.23055   0.00000  Uiso   1.00
C29    C     0.18515   0.16193   0.01405   0.00000  Uiso   1.00
C30    C     0.23501   0.16458   0.48699   0.00000  Uiso   1.00
C31    C     0.24991   0.15663   0.43435   0.00000  Uiso   1.00
C32    C     0.21586   0.14880   0.40777   0.00000  Uiso   1.00
C33    C     0.17206   0.16840   0.06750   0.00000  Uiso   1.00
C34    C     0.25627   0.17464   0.06681   0.00000  Uiso   1.00
Cu35   Cu    0.11978   0.16666   0.25000   0.00000  Uiso   1.00
Cu36   Cu    0.21355   0.16667   0.25000   0.00000  Uiso   1.00
H37    H     0.28408   0.17870   0.08662   0.00000  Uiso   1.00
H38    H     0.13472   0.17220   0.08876   0.00000  Uiso   1.00
H39    H     0.05393   0.13948   0.41032   0.00000  Uiso   1.00
H40    H     0.08943   0.13813   0.05271   0.00000  Uiso   1.00
H41    H     0.23073   0.13757   0.36886   0.00000  Uiso   1.00
H42    H     0.09263   0.12392   0.13489   0.00000  Uiso   1.00
H43    H     0.12953   0.05903   0.09336   0.00000  Uiso   1.00
H44    H     0.10649   0.32593   0.13849   0.00000  Uiso   1.00
H45    H     0.04738   0.32531   0.22513   0.00000  Uiso   1.00
H46    H     0.01410   0.05753   0.26827   0.00000  Uiso   1.00
H47    H     0.01848   0.11517   0.04358   0.00000  Uiso   1.00
H48    H     0.23959   0.03945   0.20013   0.00000  Uiso   1.00
H49    H     0.27535   0.31098   0.17648   0.00000  Uiso   1.00
H50    H     0.09447   0.03727   0.30207   0.00000  Uiso   1.00
H51    H     0.09487   0.29505   0.30081   0.00000  Uiso   1.00
H52    H     0.28063   0.22379   0.29116   0.00000  Uiso   1.00
H53    H     0.03367   0.22396   0.29078   0.00000  Uiso   1.00
H54    H     0.29792   0.10988   0.20974   0.00000  Uiso   1.00
H55    H     0.28815   0.15530   0.41379   0.00000  Uiso   1.00
H56    H     0.30744   0.17770   0.49229   0.00000  Uiso   1.00
N57    N     0.04931   0.16666   0.24999   0.00000  Uiso   1.00
N58    N     0.28402   0.16669   0.25000   0.00000  Uiso   1.00
O59    O     0.12708   0.22678   0.25001   0.00000  Uiso   1.00
O60    O     0.24960   0.29093   0.19341   0.00000  Uiso   1.00
O61    O     0.20627   0.22679   0.25001   0.00000  Uiso   1.00
O62    O     0.10775   0.16665   0.32549   0.00000  Uiso   1.00
O63    O     0.18694   0.16666   0.32549   0.00000  Uiso   1.00
O64    O     0.12706   0.10654   0.25000   0.00000  Uiso   1.00
O65    O     0.20625   0.10655   0.25000   0.00000  Uiso   1.00
O66    O     0.14640   0.16667   0.17451   0.00000  Uiso   1.00
O67    O     0.22559   0.16668   0.17451   0.00000  Uiso   1.00
O68    O     0.02224   0.11921   0.00639   0.00000  Uiso   1.00
C69    C     0.50042   0.24590   0.24989   0.00000  Uiso   1.00
C70    C     0.46275   0.15238   0.40473   0.00000  Uiso   1.00
C71    C     0.54271   0.31231   0.22182   0.00000  Uiso   1.00
C72    C     0.47489   0.16230   0.34927   0.00000  Uiso   1.00
C73    C     0.54163   0.02212   0.22219   0.00000  Uiso   1.00
C74    C     0.49996   0.04292   0.25018   0.00000  Uiso   1.00
C75    C     0.45956   0.02117   0.27914   0.00000  Uiso   1.00
C76    C     0.45995   0.31171   0.27855   0.00000  Uiso   1.00
C77    C     0.50123   0.29061   0.24997   0.00000  Uiso   1.00
C78    C     0.63670   0.19838   0.27270   0.00000  Uiso   1.00
C79    C     0.35288   0.19848   0.27247   0.00000  Uiso   1.00
C80    C     0.48356   0.15325   0.48674   0.00000  Uiso   1.00
C81    C     0.36199   0.13420   0.22831   0.00000  Uiso   1.00
C82    C     0.64632   0.13504   0.22776   0.00000  Uiso   1.00
C83    C     0.49974   0.08748   0.25014   0.00000  Uiso   1.00
C84    C     0.52574   0.16853   0.15046   0.00000  Uiso   1.00
C85    C     0.60308   0.17326   0.01327   0.00000  Uiso   1.00
C86    C     0.54061   0.17076   0.09421   0.00000  Uiso   1.00
C87    C     0.41452   0.14265   0.43100   0.00000  Uiso   1.00
C88    C     0.40130   0.13491   0.48362   0.00000  Uiso   1.00
C89    C     0.43483   0.14283   0.01180   0.00000  Uiso   1.00
C90    C     0.38766   0.09613   0.20594   0.00000  Uiso   1.00
C91    C     0.49873   0.15196   0.43221   0.00000  Uiso   1.00
C92    C     0.41874   0.09577   0.15586   0.00000  Uiso   1.00
C93    C     0.43841   0.05877   0.13194   0.00000  Uiso   1.00
C94    C     0.42512   0.02136   0.15716   0.00000  Uiso   1.00
C95    C     0.39192   0.02103   0.20605   0.00000  Uiso   1.00
C96    C     0.37346   0.05824   0.23055   0.00000  Uiso   1.00
C97    C     0.51848   0.16193   0.01405   0.00000  Uiso   1.00
C98    C     0.56834   0.16458   0.48699   0.00000  Uiso   1.00
C99    C     0.58324   0.15663   0.43435   0.00000  Uiso   1.00
C100   C     0.54920   0.14880   0.40777   0.00000  Uiso   1.00
C101   C     0.50540   0.16840   0.06750   0.00000  Uiso   1.00
C102   C     0.58960   0.17464   0.06681   0.00000  Uiso   1.00
Cu103  Cu    0.45311   0.16666   0.25000   0.00000  Uiso   1.00
Cu104  Cu    0.54689   0.16667   0.25000   0.00000  Uiso   1.00
H105   H     0.61741   0.17870   0.08662   0.00000  Uiso   1.00
H106   H     0.46805   0.17220   0.08876   0.00000  Uiso   1.00
H107   H     0.38726   0.13948   0.41032   0.00000  Uiso   1.00
H108   H     0.42277   0.13813   0.05271   0.00000  Uiso   1.00
H109   H     0.56406   0.13757   0.36886   0.00000  Uiso   1.00
H110   H     0.42596   0.12392   0.13489   0.00000  Uiso   1.00
H111   H     0.46286   0.05903   0.09336   0.00000  Uiso   1.00
H112   H     0.43982   0.32593   0.13849   0.00000  Uiso   1.00
H113   H     0.38071   0.32531   0.22513   0.00000  Uiso   1.00
H114   H     0.34743   0.05753   0.26827   0.00000  Uiso   1.00
H115   H     0.35182   0.11517   0.04358   0.00000  Uiso   1.00
H116   H     0.57292   0.03945   0.20013   0.00000  Uiso   1.00
H117   H     0.60868   0.31098   0.17648   0.00000  Uiso   1.00
H118   H     0.42780   0.03727   0.30207   0.00000  Uiso   1.00
H119   H     0.42821   0.29505   0.30081   0.00000  Uiso   1.00
H120   H     0.61396   0.22379   0.29116   0.00000  Uiso   1.00
H121   H     0.36700   0.22396   0.29078   0.00000  Uiso   1.00
H122   H     0.63125   0.10988   0.20974   0.00000  Uiso   1.00
H123   H     0.62148   0.15530   0.41379   0.00000  Uiso   1.00
H124   H     0.64077   0.17770   0.49229   0.00000  Uiso   1.00
N125   N     0.38265   0.16666   0.24999   0.00000  Uiso   1.00
N126   N     0.61735   0.16669   0.25000   0.00000  Uiso   1.00
O127   O     0.46042   0.22678   0.25001   0.00000  Uiso   1.00
O128   O     0.58293   0.29093   0.19341   0.00000  Uiso   1.00
O129   O     0.53961   0.22679   0.25001   0.00000  Uiso   1.00
O130   O     0.44108   0.16665   0.32549   0.00000  Uiso   1.00
O131   O     0.52027   0.16666   0.32549   0.00000  Uiso   1.00
O132   O     0.46039   0.10654   0.25000   0.00000  Uiso   1.00
O133   O     0.53958   0.10655   0.25000   0.00000  Uiso   1.00
O134   O     0.47973   0.16667   0.17451   0.00000  Uiso   1.00
O135   O     0.55892   0.16668   0.17451   0.00000  Uiso   1.00
O136   O     0.35557   0.11921   0.00639   0.00000  Uiso   1.00
C137   C     0.83376   0.24590   0.24989   0.00000  Uiso   1.00
C138   C     0.79608   0.15238   0.40473   0.00000  Uiso   1.00
C139   C     0.87604   0.31231   0.22182   0.00000  Uiso   1.00
C140   C     0.80822   0.16230   0.34927   0.00000  Uiso   1.00
C141   C     0.87496   0.02212   0.22219   0.00000  Uiso   1.00
C142   C     0.83329   0.04292   0.25018   0.00000  Uiso   1.00
C143   C     0.79289   0.02117   0.27914   0.00000  Uiso   1.00
C144   C     0.79329   0.31171   0.27855   0.00000  Uiso   1.00
C145   C     0.83457   0.29061   0.24997   0.00000  Uiso   1.00
C146   C     0.97004   0.19838   0.27270   0.00000  Uiso   1.00
C147   C     0.68622   0.19848   0.27247   0.00000  Uiso   1.00
C148   C     0.81689   0.15325   0.48674   0.00000  Uiso   1.00
C149   C     0.69532   0.13420   0.22831   0.00000  Uiso   1.00
C150   C     0.97965   0.13504   0.22776   0.00000  Uiso   1.00
C151   C     0.83307   0.08748   0.25014   0.00000  Uiso   1.00
C152   C     0.85907   0.16853   0.15046   0.00000  Uiso   1.00
C153   C     0.93641   0.17326   0.01327   0.00000  Uiso   1.00
C154   C     0.87394   0.17076   0.09421   0.00000  Uiso   1.00
C155   C     0.74785   0.14265   0.43100   0.00000  Uiso   1.00
C156   C     0.73463   0.13491   0.48362   0.00000  Uiso   1.00
C157   C     0.76817   0.14283   0.01180   0.00000  Uiso   1.00
C158   C     0.72100   0.09613   0.20594   0.00000  Uiso   1.00
C159   C     0.83207   0.15196   0.43221   0.00000  Uiso   1.00
C160   C     0.75208   0.09577   0.15586   0.00000  Uiso   1.00
C161   C     0.77174   0.05877   0.13194   0.00000  Uiso   1.00
C162   C     0.75846   0.02136   0.15716   0.00000  Uiso   1.00
C163   C     0.72526   0.02103   0.20605   0.00000  Uiso   1.00
C164   C     0.70680   0.05824   0.23055   0.00000  Uiso   1.00
C165   C     0.85181   0.16193   0.01405   0.00000  Uiso   1.00
C166   C     0.90167   0.16458   0.48699   0.00000  Uiso   1.00
C167   C     0.91657   0.15663   0.43435   0.00000  Uiso   1.00
C168   C     0.88253   0.14880   0.40777   0.00000  Uiso   1.00
C169   C     0.83873   0.16840   0.06750   0.00000  Uiso   1.00
C170   C     0.92293   0.17464   0.06681   0.00000  Uiso   1.00
Cu171  Cu    0.78645   0.16666   0.25000   0.00000  Uiso   1.00
Cu172  Cu    0.88022   0.16667   0.25000   0.00000  Uiso   1.00
H173   H     0.95074   0.17870   0.08662   0.00000  Uiso   1.00
H174   H     0.80138   0.17220   0.08876   0.00000  Uiso   1.00
H175   H     0.72060   0.13948   0.41032   0.00000  Uiso   1.00
H176   H     0.75610   0.13813   0.05271   0.00000  Uiso   1.00
H177   H     0.89739   0.13757   0.36886   0.00000  Uiso   1.00
H178   H     0.75930   0.12392   0.13489   0.00000  Uiso   1.00
H179   H     0.79620   0.05903   0.09336   0.00000  Uiso   1.00
H180   H     0.77315   0.32593   0.13849   0.00000  Uiso   1.00
H181   H     0.71404   0.32531   0.22513   0.00000  Uiso   1.00
H182   H     0.68077   0.05753   0.26827   0.00000  Uiso   1.00
H183   H     0.68515   0.11517   0.04358   0.00000  Uiso   1.00
H184   H     0.90625   0.03945   0.20013   0.00000  Uiso   1.00
H185   H     0.94201   0.31098   0.17648   0.00000  Uiso   1.00
H186   H     0.76114   0.03727   0.30207   0.00000  Uiso   1.00
H187   H     0.76154   0.29505   0.30081   0.00000  Uiso   1.00
H188   H     0.94729   0.22379   0.29116   0.00000  Uiso   1.00
H189   H     0.70033   0.22396   0.29078   0.00000  Uiso   1.00
H190   H     0.96459   0.10988   0.20974   0.00000  Uiso   1.00
H191   H     0.95481   0.15530   0.41379   0.00000  Uiso   1.00
H192   H     0.97411   0.17770   0.49229   0.00000  Uiso   1.00
N193   N     0.71598   0.16666   0.24999   0.00000  Uiso   1.00
N194   N     0.95069   0.16669   0.25000   0.00000  Uiso   1.00
O195   O     0.79375   0.22678   0.25001   0.00000  Uiso   1.00
O196   O     0.91627   0.29093   0.19341   0.00000  Uiso   1.00
O197   O     0.87294   0.22679   0.25001   0.00000  Uiso   1.00
O198   O     0.77441   0.16665   0.32549   0.00000  Uiso   1.00
O199   O     0.85360   0.16666   0.32549   0.00000  Uiso   1.00
O200   O     0.79373   0.10654   0.25000   0.00000  Uiso   1.00
O201   O     0.87292   0.10655   0.25000   0.00000  Uiso   1.00
O202   O     0.81306   0.16667   0.17451   0.00000  Uiso   1.00
O203   O     0.89225   0.16668   0.17451   0.00000  Uiso   1.00
O204   O     0.68891   0.11921   0.00639   0.00000  Uiso   1.00
C205   C     0.16709   0.57923   0.24989   0.00000  Uiso   1.00
C206   C     0.12941   0.48571   0.40473   0.00000  Uiso   1.00
C207   C     0.20937   0.64564   0.22182   0.00000  Uiso   1.00
C208   C     0.14155   0.49563   0.34927   0.00000  Uiso   1.00
C209   C     0.20830   0.35545   0.22219   0.00000  Uiso   1.00
C210   C     0.16662   0.37626   0.25018   0.00000  Uiso   1.00
C211   C     0.12623   0.35450   0.27914   0.00000  Uiso   1.00
C212   C     0.12662   0.64504   0.27855   0.00000  Uiso   1.00
C213   C     0.16790   0.62394   0.24997   0.00000  Uiso   1.00
C214   C     0.30337   0.53171   0.27270   0.00000  Uiso   1.00
C215   C     0.01955   0.53181   0.27247   0.00000  Uiso   1.00
C216   C     0.15022   0.48658   0.48674   0.00000  Uiso   1.00
C217   C     0.02865   0.46753   0.22831   0.00000  Uiso   1.00
C218   C     0.31298   0.46838   0.22776   0.00000  Uiso   1.00
C219   C     0.16640   0.42081   0.25014   0.00000  Uiso   1.00
C220   C     0.19241   0.50187   0.15046   0.00000  Uiso   1.00
C221   C     0.26974   0.50659   0.01327   0.00000  Uiso   1.00
C222   C     0.20728   0.50409   0.09421   0.00000  Uiso   1.00
C223   C     0.08119   0.47599   0.43100   0.00000  Uiso   1.00
C224   C     0.06796   0.46825   0.48362   0.00000  Uiso   1.00
C225   C     0.10150   0.47616   0.01180   0.00000  Uiso   1.00
C226   C     0.05433   0.42946   0.20594   0.00000  Uiso   1.00
C227   C     0.16540   0.48529   0.43221   0.00000  Uiso   1.00
C228   C     0.08541   0.42911   0.15586   0.00000  Uiso   1.00
C229   C     0.10508   0.39210   0.13194   0.00000  Uiso   1.00
C230   C     0.09179   0.35469   0.15716   0.00000  Uiso   1.00
C231   C     0.05859   0.35436   0.20605   0.00000  Uiso   1.00
C232   C     0.04013   0.39158   0.23055   0.00000  Uiso   1.00
C233   C     0.18515   0.49527   0.01405   0.00000  Uiso   1.00
C234   C     0.23501   0.49791   0.48699   0.00000  Uiso   1.00
C235   C     0.24991   0.48996   0.43435   0.00000  Uiso   1.00
C236   C     0.21586   0.48213   0.40777   0.00000  Uiso   1.00
C237   C     0.17206   0.50173   0.06750   0.00000  Uiso   1.00
C238   C     0.25627   0.50797   0.06681   0.00000  Uiso   1.00
Cu239  Cu    0.11978   0.49999   0.25000   0.00000  Uiso   1.00
Cu240  Cu    0.21355   0.50001   0.25000   0.00000  Uiso   1.00
H241   H     0.28408   0.51204   0.08662   0.00000  Uiso   1.00
H242   H     0.13472   0.50553   0.08876   0.00000  Uiso   1.00
H243   H     0.05393   0.47282   0.41032   0.00000  Uiso   1.00
H244   H     0.08943   0.47146   0.05271   0.00000  Uiso   1.00
H245   H     0.23073   0.47090   0.36886   0.00000  Uiso   1.00
H246   H     0.09263   0.45725   0.13489   0.00000  Uiso   1.00
H247   H     0.12953   0.39236   0.09336   0.00000  Uiso   1.00
H248   H     0.10649   0.65927   0.13849   0.00000  Uiso   1.00
H249   H     0.04738   0.65864   0.22513   0.00000  Uiso   1.00
H250   H     0.01410   0.39086   0.26827   0.00000  Uiso   1.00
H251   H     0.01848   0.44850   0.04358   0.00000  Uiso   1.00
H252   H     0.23959   0.37278   0.20013   0.00000  Uiso   1.00
H253   H     0.27535   0.64432   0.17648   0.00000  Uiso   1.00
H254   H     0.09447   0.37060   0.30207   0.00000  Uiso   1.00
H255   H     0.09487   0.62838   0.30081   0.00000  Uiso   1.00
H256   H     0.28063   0.55712   0.29116   0.00000  Uiso   1.00
H257   H     0.03367   0.55729   0.29078   0.00000  Uiso   1.00
H258   H     0.29792   0.44322   0.20974   0.00000  Uiso   1.00
H259   H     0.28815   0.48864   0.41379   0.00000  Uiso   1.00
H260   H     0.30744   0.51104   0.49229   0.00000  Uiso   1.00
N261   N     0.04931   0.49999   0.24999   0.00000  Uiso   1.00
N262   N     0.28402   0.50002   0.25000   0.00000  Uiso   1.00
O263   O     0.12708   0.56011   0.25001   0.00000  Uiso   1.00
O264   O     0.24960   0.62426   0.19341   0.00000  Uiso   1.00
O265   O     0.20627   0.56012   0.25001   0.00000  Uiso   1.00
O266   O     0.10775   0.49998   0.32549   0.00000  Uiso   1.00
O267   O     0.18694   0.49999   0.32549   0.00000  Uiso   1.00
O268   O     0.12706   0.43988   0.25000   0.00000  Uiso   1.00
O269   O     0.20625   0.43989   0.25000   0.00000  Uiso   1.00
O270   O     0.14640   0.50001   0.17451   0.00000  Uiso   1.00
O271   O     0.22559   0.50002   0.17451   0.00000  Uiso   1.00
O272   O     0.02224   0.45255   0.00639   0.00000  Uiso   1.00
C273   C     0.50042   0.57923   0.24989   0.00000  Uiso   1.00
C274   C     0.46275   0.48571   0.40473   0.00000  Uiso   1.00
C275   C     0.54271   0.64564   0.22182   0.00000  Uiso   1.00
C276   C     0.47489   0.49563   0.34927   0.00000  Uiso   1.00
C277   C     0.54163   0.35545   0.22219   0.00000  Uiso   1.00
C278   C     0.49996   0.37626   0.25018   0.00000  Uiso   1.00
C279   C     0.45956   0.35450   0.27914   0.00000  Uiso   1.00
C280   C     0.45995   0.64504   0.27855   0.00000  Uiso   1.00
C281   C     0.50123   0.62394   0.24997   0.00000  Uiso   1.00
C282   C     0.63670   0.53171   0.27270   0.00000  Uiso   1.00
C283   C     0.35288   0.53181   0.27247   0.00000  Uiso   1.00
C284   C     0.48356   0.48658   0.48674   0.00000  Uiso   1.00
C285   C     0.36199   0.46753   0.22831   0.00000  Uiso   1.00
C286   C     0.64632   0.46838   0.22776   0.00000  Uiso   1.00
C287   C     0.49974   0.42081   0.25014   0.00000  Uiso   1.00
C288   C     0.52574   0.50187   0.15046   0.00000  Uiso   1.00
C289   C     0.60308   0.50659   0.01327   0.00000  Uiso   1.00
C290   C     0.54061   0.50409   0.09421   0.00000  Uiso   1.00
C291   C     0.41452   0.47599   0.43100   0.00000  Uiso   1.00
C292   C     0.40130   0.46825   0.48362   0.00000  Uiso   1.00
C293   C     0.43483   0.47616   0.01180   0.00000  Uiso   1.00
C294   C     0.38766   0.42946   0.20594   0.00000  Uiso   1.00
C295   C     0.49873   0.48529   0.43221   0.00000  Uiso   1.00
C296   C     0.41874   0.42911   0.15586   0.00000  Uiso   1.00
C297   C     0.43841   0.39210   0.13194   0.00000  Uiso   1.00
C298   C     0.42512   0.35469   0.15716   0.00000  Uiso   1.00
C299   C     0.39192   0.35436   0.20605   0.00000  Uiso   1.00
C300   C     0.37346   0.39158   0.23055   0.00000  Uiso   1.00
C301   C     0.51848   0.49527   0.01405   0.00000  Uiso   1.00
C302   C     0.56834   0.49791   0.48699   0.00000  Uiso   1.00
C303   C     0.58324   0.48996   0.43435   0.00000  Uiso   1.00
C304   C     0.54920   0.48213   0.40777   0.00000  Uiso   1.00
C305   C     0.50540   0.50173   0.06750   0.00000  Uiso   1.00
C306   C     0.58960   0.50797   0.06681   0.00000  Uiso   1.00
Cu307  Cu    0.45311   0.49999   0.25000   0.00000  Uiso   1.00
Cu308  Cu    0.54689   0.50001   0.25000   0.00000  Uiso   1.00
H309   H     0.61741   0.51204   0.08662   0.00000  Uiso   1.00
H310   H     0.46805   0.50553   0.08876   0.00000  Uiso   1.00
H311   H     0.38726   0.47282   0.41032   0.00000  Uiso   1.00
H312   H     0.42277   0.47146   0.05271   0.00000  Uiso   1.00
H313   H     0.56406   0.47090   0.36886   0.00000  Uiso   1.00
H314   H     0.42596   0.45725   0.13489   0.00000  Uiso   1.00
H315   H     0.46286   0.39236   0.09336   0.00000  Uiso   1.00
H316   H     0.43982   0.65927   0.13849   0.00000  Uiso   1.00
H317   H     0.38071   0.65864   0.22513   0.00000  Uiso   1.00
H318   H     0.34743   0.39086   0.26827   0.00000  Uiso   1.00
H319   H     0.35182   0.44850   0.04358   0.00000  Uiso   1.00
H320   H     0.57292   0.37278   0.20013   0.00000  Uiso   1.00
H321   H     0.60868   0.64432   0.17648   0.00000  Uiso   1.00
H322   H     0.42780   0.37060   0.30207   0.00000  Uiso   1.00
H323   H     0.42821   0.62838   0.30081   0.00000  Uiso   1.00
H324   H     0.61396   0.55712   0.29116   0.00000  Uiso   1.00
H325   H     0.36700   0.55729   0.29078   0.00000  Uiso   1.00
H326   H     0.63125   0.44322   0.20974   0.00000  Uiso   1.00
H327   H     0.62148   0.48864   0.41379   0.00000  Uiso   1.00
H328   H     0.64077   0.51104   0.49229   0.00000  Uiso   1.00
N329   N     0.38265   0.49999   0.24999   0.00000  Uiso   1.00
N330   N     0.61735   0.50002   0.25000   0.00000  Uiso   1.00
O331   O     0.46042   0.56011   0.25001   0.00000  Uiso   1.00
O332   O     0.58293   0.62426   0.19341   0.00000  Uiso   1.00
O333   O     0.53961   0.56012   0.25001   0.00000  Uiso   1.00
O334   O     0.44108   0.49998   0.32549   0.00000  Uiso   1.00
O335   O     0.52027   0.49999   0.32549   0.00000  Uiso   1.00
O336   O     0.46039   0.43988   0.25000   0.00000  Uiso   1.00
O337   O     0.53958   0.43989   0.25000   0.00000  Uiso   1.00
O338   O     0.47973   0.50001   0.17451   0.00000  Uiso   1.00
O339   O     0.55892   0.50002   0.17451   0.00000  Uiso   1.00
O340   O     0.35557   0.45255   0.00639   0.00000  Uiso   1.00
C341   C     0.83376   0.57923   0.24989   0.00000  Uiso   1.00
C342   C     0.79608   0.48571   0.40473   0.00000  Uiso   1.00
C343   C     0.87604   0.64564   0.22182   0.00000  Uiso   1.00
C344   C     0.80822   0.49563   0.34927   0.00000  Uiso   1.00
C345   C     0.87496   0.35545   0.22219   0.00000  Uiso   1.00
C346   C     0.83329   0.37626   0.25018   0.00000  Uiso   1.00
C347   C     0.79289   0.35450   0.27914   0.00000  Uiso   1.00
C348   C     0.79329   0.64504   0.27855   0.00000  Uiso   1.00
C349   C     0.83457   0.62394   0.24997   0.00000  Uiso   1.00
C350   C     0.97004   0.53171   0.27270   0.00000  Uiso   1.00
C351   C     0.68622   0.53181   0.27247   0.00000  Uiso   1.00
C352   C     0.81689   0.48658   0.48674   0.00000  Uiso   1.00
C353   C     0.69532   0.46753   0.22831   0.00000  Uiso   1.00
C354   C     0.97965   0.46838   0.22776   0.00000  Uiso   1.00
C355   C     0.83307   0.42081   0.25014   0.00000  Uiso   1.00
C356   C     0.85907   0.50187   0.15046   0.00000  Uiso   1.00
C357   C     0.93641   0.50659   0.01327   0.00000  Uiso   1.00
C358   C     0.87394   0.50409   0.09421   0.00000  Uiso   1.00
C359   C     0.74785   0.47599   0.43100   0.00000  Uiso   1.00
C360   C     0.73463   0.46825   0.48362   0.00000  Uiso   1.00
C361   C     0.76817   0.47616   0.01180   0.00000  Uiso   1.00
C362   C     0.72100   0.42946   0.20594   0.00000  Uiso   1.00
C363   C     0.83207   0.48529   0.43221   0.00000  Uiso   1.00
C364   C     0.75208   0.42911   0.15586   0.00000  Uiso   1.00
C365   C     0.77174   0.39210   0.13194   0.00000  Uiso   1.00
C366   C     0.75846   0.35469   0.15716   0.00000  Uiso   1.00
C367   C     0.72526   0.35436   0.20605   0.00000  Uiso   1.00
C368   C     0.70680   0.39158   0.23055   0.00000  Uiso   1.00
C369   C     0.85181   0.49527   0.01405   0.00000  Uiso   1.00
C370   C     0.90167   0.49791   0.48699   0.00000  Uiso   1.00
C371   C     0.91657   0.48996   0.43435   0.00000  Uiso   1.00
C372   C     0.88253   0.48213   0.40777   0.00000  Uiso   1.00
C373   C     0.83873   0.50173   0.06750   0.00000  Uiso   1.00
C374   C     0.92293   0.50797   0.06681   0.00000  Uiso   1.00
Cu375  Cu    0.78645   0.49999   0.25000   0.00000  Uiso   1.00
Cu376  Cu    0.88022   0.50001   0.25000   0.00000  Uiso   1.00
H377   H     0.95074   0.51204   0.08662   0.00000  Uiso   1.00
H378   H     0.80138   0.50553   0.08876   0.00000  Uiso   1.00
H379   H     0.72060   0.47282   0.41032   0.00000  Uiso   1.00
H380   H     0.75610   0.47146   0.05271   0.00000  Uiso   1.00
H381   H     0.89739   0.47090   0.36886   0.00000  Uiso   1.00
H382   H     0.75930   0.45725   0.13489   0.00000  Uiso   1.00
H383   H     0.79620   0.39236   0.09336   0.00000  Uiso   1.00
H384   H     0.77315   0.65927   0.13849   0.00000  Uiso   1.00
H385   H     0.71404   0.65864   0.22513   0.00000  Uiso   1.00
H386   H     0.68077   0.39086   0.26827   0.00000  Uiso   1.00
H387   H     0.68515   0.44850   0.04358   0.00000  Uiso   1.00
H388   H     0.90625   0.37278   0.20013   0.00000  Uiso   1.00
H389   H     0.94201   0.64432   0.17648   0.00000  Uiso   1.00
H390   H     0.76114   0.37060   0.30207   0.00000  Uiso   1.00
H391   H     0.76154   0.62838   0.30081   0.00000  Uiso   1.00
H392   H     0.94729   0.55712   0.29116   0.00000  Uiso   1.00
H393   H     0.70033   0.55729   0.29078   0.00000  Uiso   1.00
H394   H     0.96459   0.44322   0.20974   0.00000  Uiso   1.00
H395   H     0.95481   0.48864   0.41379   0.00000  Uiso   1.00
H396   H     0.97411   0.51104   0.49229   0.00000  Uiso   1.00
N397   N     0.71598   0.49999   0.24999   0.00000  Uiso   1.00
N398   N     0.95069   0.50002   0.25000   0.00000  Uiso   1.00
O399   O     0.79375   0.56011   0.25001   0.00000  Uiso   1.00
O400   O     0.91627   0.62426   0.19341   0.00000  Uiso   1.00
O401   O     0.87294   0.56012   0.25001   0.00000  Uiso   1.00
O402   O     0.77441   0.49998   0.32549   0.00000  Uiso   1.00
O403   O     0.85360   0.49999   0.32549   0.00000  Uiso   1.00
O404   O     0.79373   0.43988   0.25000   0.00000  Uiso   1.00
O405   O     0.87292   0.43989   0.25000   0.00000  Uiso   1.00
O406   O     0.81306   0.50001   0.17451   0.00000  Uiso   1.00
O407   O     0.89225   0.50002   0.17451   0.00000  Uiso   1.00
O408   O     0.68891   0.45255   0.00639   0.00000  Uiso   1.00
C409   C     0.16709   0.91256   0.24989   0.00000  Uiso   1.00
C410   C     0.12941   0.81905   0.40473   0.00000  Uiso   1.00
C411   C     0.20937   0.97898   0.22182   0.00000  Uiso   1.00
C412   C     0.14155   0.82897   0.34927   0.00000  Uiso   1.00
C413   C     0.20830   0.68879   0.22219   0.00000  Uiso   1.00
C414   C     0.16662   0.70959   0.25018   0.00000  Uiso   1.00
C415   C     0.12623   0.68783   0.27914   0.00000  Uiso   1.00
C416   C     0.12662   0.97837   0.27855   0.00000  Uiso   1.00
C417   C     0.16790   0.95727   0.24997   0.00000  Uiso   1.00
C418   C     0.30337   0.86504   0.27270   0.00000  Uiso   1.00
C419   C     0.01955   0.86514   0.27247   0.00000  Uiso   1.00
C420   C     0.15022   0.81992   0.48674   0.00000  Uiso   1.00
C421   C     0.02865   0.80086   0.22831   0.00000  Uiso   1.00
C422   C     0.31298   0.80171   0.22776   0.00000  Uiso   1.00
C423   C     0.16640   0.75415   0.25014   0.00000  Uiso   1.00
C424   C     0.19241   0.83520   0.15046   0.00000  Uiso   1.00
C425   C     0.26974   0.83992   0.01327   0.00000  Uiso   1.00
C426   C     0.20728   0.83742   0.09421   0.00000  Uiso   1.00
C427   C     0.08119   0.80932   0.43100   0.00000  Uiso   1.00
C428   C     0.06796   0.80158   0.48362   0.00000  Uiso   1.00
C429   C     0.10150   0.80950   0.01180   0.00000  Uiso   1.00
C430   C     0.05433   0.76279   0.20594   0.00000  Uiso   1.00
C431   C     0.16540   0.81862   0.43221   0.00000  Uiso   1.00
C432   C     0.08541   0.76244   0.15586   0.00000  Uiso   1.00
C433   C     0.10508   0.72544   0.13194   0.00000  Uiso   1.00
C434   C     0.09179   0.68802   0.15716   0.00000  Uiso   1.00
C435   C     0.05859   0.68770   0.20605   0.00000  Uiso   1.00
C436   C     0.04013   0.72491   0.23055   0.00000  Uiso   1.00
C437   C     0.18515   0.82860   0.01405   0.00000  Uiso   1.00
C438   C     0.23501   0.83124   0.48699   0.00000  Uiso   1.00
C439   C     0.24991   0.82330   0.43435   0.00000  Uiso   1.00
C440   C     0.21586   0.81547   0.40777   0.00000  Uiso   1.00
C441   C     0.17206   0.83506   0.06750   0.00000  Uiso   1.00
C442   C     0.25627   0.84130   0.06681   0.00000  Uiso   1.00
Cu443  Cu    0.11978   0.83333   0.25000   0.00000  Uiso   1.00
Cu444  Cu    0.21355   0.83334   0.25000   0.00000  Uiso   1.00
H445   H     0.28408   0.84537   0.08662   0.00000  Uiso   1.00
H446   H     0.13472   0.83886   0.08876   0.00000  Uiso   1.00
H447   H     0.05393   0.80615   0.41032   0.00000  Uiso   1.00
H448   H     0.08943   0.80479   0.05271   0.00000  Uiso   1.00
H449   H     0.23073   0.80423   0.36886   0.00000  Uiso   1.00
H450   H     0.09263   0.79059   0.13489   0.00000  Uiso   1.00
H451   H     0.12953   0.72569   0.09336   0.00000  Uiso   1.00
H452   H     0.10649   0.99260   0.13849   0.00000  Uiso   1.00
H453   H     0.04738   0.99198   0.22513   0.00000  Uiso   1.00
H454   H     0.01410   0.72419   0.26827   0.00000  Uiso   1.00
H455   H     0.01848   0.78183   0.04358   0.00000  Uiso   1.00
H456   H     0.23959   0.70611   0.20013   0.00000  Uiso   1.00
H457   H     0.27535   0.97765   0.17648   0.00000  Uiso   1.00
H458   H     0.09447   0.70393   0.30207   0.00000  Uiso   1.00
H459   H     0.09487   0.96171   0.30081   0.00000  Uiso   1.00
H460   H     0.28063   0.89045   0.29116   0.00000  Uiso   1.00
H461   H     0.03367   0.89063   0.29078   0.00000  Uiso   1.00
H462   H     0.29792   0.77655   0.20974   0.00000  Uiso   1.00
H463   H     0.28815   0.82197   0.41379   0.00000  Uiso   1.00
H464   H     0.30744   0.84437   0.49229   0.00000  Uiso   1.00
N465   N     0.04931   0.83332   0.24999   0.00000  Uiso   1.00
N466   N     0.28402   0.83335   0.25000   0.00000  Uiso   1.00
O467   O     0.12708   0.89345   0.25001   0.00000  Uiso   1.00
O468   O     0.24960   0.95760   0.19341   0.00000  Uiso   1.00
O469   O     0.20627   0.89346   0.25001   0.00000  Uiso   1.00
O470   O     0.10775   0.83332   0.32549   0.00000  Uiso   1.00
O471   O     0.18694   0.83333   0.32549   0.00000  Uiso   1.00
O472   O     0.12706   0.77321   0.25000   0.00000  Uiso   1.00
O473   O     0.20625   0.77322   0.25000   0.00000  Uiso   1.00
O474   O     0.14640   0.83334   0.17451   0.00000  Uiso   1.00
O475   O     0.22559   0.83335   0.17451   0.00000  Uiso   1.00
O476   O     0.02224   0.78588   0.00639   0.00000  Uiso   1.00
C477   C     0.50042   0.91256   0.24989   0.00000  Uiso   1.00
C478   C     0.46275   0.81905   0.40473   0.00000  Uiso   1.00
C479   C     0.54271   0.97898   0.22182   0.00000  Uiso   1.00
C480   C     0.47489   0.82897   0.34927   0.00000  Uiso   1.00
C481   C     0.54163   0.68879   0.22219   0.00000  Uiso   1.00
C482   C     0.49996   0.70959   0.25018   0.00000  Uiso   1.00
C483   C     0.45956   0.68783   0.27914   0.00000  Uiso   1.00
C484   C     0.45995   0.97837   0.27855   0.00000  Uiso   1.00
C485   C     0.50123   0.95727   0.24997   0.00000  Uiso   1.00
C486   C     0.63670   0.86504   0.27270   0.00000  Uiso   1.00
C487   C     0.35288   0.86514   0.27247   0.00000  Uiso   1.00
C488   C     0.48356   0.81992   0.48674   0.00000  Uiso   1.00
C489   C     0.36199   0.80086   0.22831   0.00000  Uiso   1.00
C490   C     0.64632   0.80171   0.22776   0.00000  Uiso   1.00
C491   C     0.49974   0.75415   0.25014   0.00000  Uiso   1.00
C492   C     0.52574   0.83520   0.15046   0.00000  Uiso   1.00
C493   C     0.60308   0.83992   0.01327   0.00000  Uiso   1.00
C494   C     0.54061   0.83742   0.09421   0.00000  Uiso   1.00
C495   C     0.41452   0.80932   0.43100   0.00000  Uiso   1.00
C496   C     0.40130   0.80158   0.48362   0.00000  Uiso   1.00
C497   C     0.43483   0.80950   0.01180   0.00000  Uiso   1.00
C498   C     0.38766   0.76279   0.20594   0.00000  Uiso   1.00
C499   C     0.49873   0.81862   0.43221   0.00000  Uiso   1.00
C500   C     0.41874   0.76244   0.15586   0.00000  Uiso   1.00
C501   C     0.43841   0.72544   0.13194   0.00000  Uiso   1.00
C502   C     0.42512   0.68802   0.15716   0.00000  Uiso   1.00
C503   C     0.39192   0.68770   0.20605   0.00000  Uiso   1.00
C504   C     0.37346   0.72491   0.23055   0.00000  Uiso   1.00
C505   C     0.51848   0.82860   0.01405   0.00000  Uiso   1.00
C506   C     0.56834   0.83124   0.48699   0.00000  Uiso   1.00
C507   C     0.58324   0.82330   0.43435   0.00000  Uiso   1.00
C508   C     0.54920   0.81547   0.40777   0.00000  Uiso   1.00
C509   C     0.50540   0.83506   0.06750   0.00000  Uiso   1.00
C510   C     0.58960   0.84130   0.06681   0.00000  Uiso   1.00
Cu511  Cu    0.45311   0.83333   0.25000   0.00000  Uiso   1.00
Cu512  Cu    0.54689   0.83334   0.25000   0.00000  Uiso   1.00
H513   H     0.61741   0.84537   0.08662   0.00000  Uiso   1.00
H514   H     0.46805   0.83886   0.08876   0.00000  Uiso   1.00
H515   H     0.38726   0.80615   0.41032   0.00000  Uiso   1.00
H516   H     0.42277   0.80479   0.05271   0.00000  Uiso   1.00
H517   H     0.56406   0.80423   0.36886   0.00000  Uiso   1.00
H518   H     0.42596   0.79059   0.13489   0.00000  Uiso   1.00
H519   H     0.46286   0.72569   0.09336   0.00000  Uiso   1.00
H520   H     0.43982   0.99260   0.13849   0.00000  Uiso   1.00
H521   H     0.38071   0.99198   0.22513   0.00000  Uiso   1.00
H522   H     0.34743   0.72419   0.26827   0.00000  Uiso   1.00
H523   H     0.35182   0.78183   0.04358   0.00000  Uiso   1.00
H524   H     0.57292   0.70611   0.20013   0.00000  Uiso   1.00
H525   H     0.60868   0.97765   0.17648   0.00000  Uiso   1.00
H526   H     0.42780   0.70393   0.30207   0.00000  Uiso   1.00
H527   H     0.42821   0.96171   0.30081   0.00000  Uiso   1.00
H528   H     0.61396   0.89045   0.29116   0.00000  Uiso   1.00
H529   H     0.36700   0.89063   0.29078   0.00000  Uiso   1.00
H530   H     0.63125   0.77655   0.20974   0.00000  Uiso   1.00
H531   H     0.62148   0.82197   0.41379   0.00000  Uiso   1.00
H532   H     0.64077   0.84437   0.49229   0.00000  Uiso   1.00
N533   N     0.38265   0.83332   0.24999   0.00000  Uiso   1.00
N534   N     0.61735   0.83335   0.25000   0.00000  Uiso   1.00
O535   O     0.46042   0.89345   0.25001   0.00000  Uiso   1.00
O536   O     0.58293   0.95760   0.19341   0.00000  Uiso   1.00
O537   O     0.53961   0.89346   0.25001   0.00000  Uiso   1.00
O538   O     0.44108   0.83332   0.32549   0.00000  Uiso   1.00
O539   O     0.52027   0.83333   0.32549   0.00000  Uiso   1.00
O540   O     0.46039   0.77321   0.25000   0.00000  Uiso   1.00
O541   O     0.53958   0.77322   0.25000   0.00000  Uiso   1.00
O542   O     0.47973   0.83334   0.17451   0.00000  Uiso   1.00
O543   O     0.55892   0.83335   0.17451   0.00000  Uiso   1.00
O544   O     0.35557   0.78588   0.00639   0.00000  Uiso   1.00
C545   C     0.83376   0.91256   0.24989   0.00000  Uiso   1.00
C546   C     0.79608   0.81905   0.40473   0.00000  Uiso   1.00
C547   C     0.87604   0.97898   0.22182   0.00000  Uiso   1.00
C548   C     0.80822   0.82897   0.34927   0.00000  Uiso   1.00
C549   C     0.87496   0.68879   0.22219   0.00000  Uiso   1.00
C550   C     0.83329   0.70959   0.25018   0.00000  Uiso   1.00
C551   C     0.79289   0.68783   0.27914   0.00000  Uiso   1.00
C552   C     0.79329   0.97837   0.27855   0.00000  Uiso   1.00
C553   C     0.83457   0.95727   0.24997   0.00000  Uiso   1.00
C554   C     0.97004   0.86504   0.27270   0.00000  Uiso   1.00
C555   C     0.68622   0.86514   0.27247   0.00000  Uiso   1.00
C556   C     0.81689   0.81992   0.48674   0.00000  Uiso   1.00
C557   C     0.69532   0.80086   0.22831   0.00000  Uiso   1.00
C558   C     0.97965   0.80171   0.22776   0.00000  Uiso   1.00
C559   C     0.83307   0.75415   0.25014   0.00000  Uiso   1.00
C560   C     0.85907   0.83520   0.15046   0.00000  Uiso   1.00
C561   C     0.93641   0.83992   0.01327   0.00000  Uiso   1.00
C562   C     0.87394   0.83742   0.09421   0.00000  Uiso   1.00
C563   C     0.74785   0.80932   0.43100   0.00000  Uiso   1.00
C564   C     0.73463   0.80158   0.48362   0.00000  Uiso   1.00
C565   C     0.76817   0.80950   0.01180   0.00000  Uiso   1.00
C566   C     0.72100   0.76279   0.20594   0.00000  Uiso   1.00
C567   C     0.83207   0.81862   0.43221   0.00000  Uiso   1.00
C568   C     0.75208   0.76244   0.15586   0.00000  Uiso   1.00
C569   C     0.77174   0.72544   0.13194   0.00000  Uiso   1.00
C570   C     0.75846   0.68802   0.15716   0.00000  Uiso   1.00
C571   C     0.72526   0.68770   0.20605   0.00000  Uiso   1.00
C572   C     0.70680   0.72491   0.23055   0.00000  Uiso   1.00
C573   C     0.85181   0.82860   0.01405   0.00000  Uiso   1.00
C574   C     0.90167   0.83124   0.48699   0.00000  Uiso   1.00
C575   C     0.91657   0.82330   0.43435   0.00000  Uiso   1.00
C576   C     0.88253   0.81547   0.40777   0.00000  Uiso   1.00
C577   C     0.83873   0.83506   0.06750   0.00000  Uiso   1.00
C578   C     0.92293   0.84130   0.06681   0.00000  Uiso   1.00
Cu579  Cu    0.78645   0.83333   0.25000   0.00000  Uiso   1.00
Cu580  Cu    0.88022   0.83334   0.25000   0.00000  Uiso   1.00
H581   H     0.95074   0.84537   0.08662   0.00000  Uiso   1.00
H582   H     0.80138   0.83886   0.08876   0.00000  Uiso   1.00
H583   H     0.72060   0.80615   0.41032   0.00000  Uiso   1.00
H584   H     0.75610   0.80479   0.05271   0.00000  Uiso   1.00
H585   H     0.89739   0.80423   0.36886   0.00000  Uiso   1.00
H586   H     0.75930   0.79059   0.13489   0.00000  Uiso   1.00
H587   H     0.79620   0.72569   0.09336   0.00000  Uiso   1.00
H588   H     0.77315   0.99260   0.13849   0.00000  Uiso   1.00
H589   H     0.71404   0.99198   0.22513   0.00000  Uiso   1.00
H590   H     0.68077   0.72419   0.26827   0.00000  Uiso   1.00
H591   H     0.68515   0.78183   0.04358   0.00000  Uiso   1.00
H592   H     0.90625   0.70611   0.20013   0.00000  Uiso   1.00
H593   H     0.94201   0.97765   0.17648   0.00000  Uiso   1.00
H594   H     0.76114   0.70393   0.30207   0.00000  Uiso   1.00
H595   H     0.76154   0.96171   0.30081   0.00000  Uiso   1.00
H596   H     0.94729   0.89045   0.29116   0.00000  Uiso   1.00
H597   H     0.70033   0.89063   0.29078   0.00000  Uiso   1.00
H598   H     0.96459   0.77655   0.20974   0.00000  Uiso   1.00
H599   H     0.95481   0.82197   0.41379   0.00000  Uiso   1.00
H600   H     0.97411   0.84437   0.49229   0.00000  Uiso   1.00
N601   N     0.71598   0.83332   0.24999   0.00000  Uiso   1.00
N602   N     0.95069   0.83335   0.25000   0.00000  Uiso   1.00
O603   O     0.79375   0.89345   0.25001   0.00000  Uiso   1.00
O604   O     0.91627   0.95760   0.19341   0.00000  Uiso   1.00
O605   O     0.87294   0.89346   0.25001   0.00000  Uiso   1.00
O606   O     0.77441   0.83332   0.32549   0.00000  Uiso   1.00
O607   O     0.85360   0.83333   0.32549   0.00000  Uiso   1.00
O608   O     0.79373   0.77321   0.25000   0.00000  Uiso   1.00
O609   O     0.87292   0.77322   0.25000   0.00000  Uiso   1.00
O610   O     0.81306   0.83334   0.17451   0.00000  Uiso   1.00
O611   O     0.89225   0.83335   0.17451   0.00000  Uiso   1.00
O612   O     0.68891   0.78588   0.00639   0.00000  Uiso   1.00
C613   C     0.16709   0.24590   0.74989   0.00000  Uiso   1.00
C614   C     0.12941   0.15238   0.90473   0.00000  Uiso   1.00
C615   C     0.20937   0.31231   0.72182   0.00000  Uiso   1.00
C616   C     0.14155   0.16230   0.84927   0.00000  Uiso   1.00
C617   C     0.20830   0.02212   0.72219   0.00000  Uiso   1.00
C618   C     0.16662   0.04292   0.75018   0.00000  Uiso   1.00
C619   C     0.12623   0.02117   0.77914   0.00000  Uiso   1.00
C620   C     0.12662   0.31171   0.77855   0.00000  Uiso   1.00
C621   C     0.16790   0.29061   0.74997   0.00000  Uiso   1.00
C622   C     0.30337   0.19838   0.77270   0.00000  Uiso   1.00
C623   C     0.01955   0.19848   0.77247   0.00000  Uiso   1.00
C624   C     0.15022   0.15325   0.98674   0.00000  Uiso   1.00
C625   C     0.02865   0.13420   0.72831   0.00000  Uiso   1.00
C626   C     0.31298   0.13504   0.72776   0.00000  Uiso   1.00
C627   C     0.16640   0.08748   0.75014   0.00000  Uiso   1.00
C628   C     0.19241   0.16853   0.65046   0.00000  Uiso   1.00
C629   C     0.26974   0.17326   0.51327   0.00000  Uiso   1.00
C630   C     0.20728   0.17076   0.59421   0.00000  Uiso   1.00
C631   C     0.08119   0.14265   0.93100   0.00000  Uiso   1.00
C632   C     0.06796   0.13491   0.98362   0.00000  Uiso   1.00
C633   C     0.10150   0.14283   0.51180   0.00000  Uiso   1.00
C634   C     0.05433   0.09613   0.70594   0.00000  Uiso   1.00
C635   C     0.16540   0.15196   0.93221   0.00000  Uiso   1.00
C636   C     0.08541   0.09577   0.65586   0.00000  Uiso   1.00
C637   C     0.10508   0.05877   0.63194   0.00000  Uiso   1.00
C638   C     0.09179   0.02136   0.65716   0.00000  Uiso   1.00
C639   C     0.05859   0.02103   0.70605   0.00000  Uiso   1.00
C640   C     0.04013   0.05824   0.73055   0.00000  Uiso   1.00
C641   C     0.18515   0.16193   0.51405   0.00000  Uiso   1.00
C642   C     0.23501   0.16458   0.98699   0.00000  Uiso   1.00
C643   C     0.24991   0.15663   0.93435   0.00000  Uiso   1.00
C644   C     0.21586   0.14880   0.90777   0.00000  Uiso   1.00
C645   C     0.17206   0.16840   0.56750   0.00000  Uiso   1.00
C646   C     0.25627   0.17464   0.56681   0.00000  Uiso   1.00
Cu647  Cu    0.11978   0.16666   0.75000   0.00000  Uiso   1.00
Cu648  Cu    0.21355   0.16667   0.75000   0.00000  Uiso   1.00
H649   H     0.28408   0.17870   0.58662   0.00000  Uiso   1.00
H650   H     0.13472   0.17220   0.58876   0.00000  Uiso   1.00
H651   H     0.05393   0.13948   0.91032   0.00000  Uiso   1.00
H652   H     0.08943   0.13813   0.55271   0.00000  Uiso   1.00
H653   H     0.23073   0.13757   0.86886   0.00000  Uiso   1.00
H654   H     0.09263   0.12392   0.63489   0.00000  Uiso   1.00
H655   H     0.12953   0.05903   0.59336   0.00000  Uiso   1.00
H656   H     0.10649   0.32593   0.63849   0.00000  Uiso   1.00
H657   H     0.04738   0.32531   0.72513   0.00000  Uiso   1.00
H658   H     0.01410   0.05753   0.76827   0.00000  Uiso   1.00
H659   H     0.01848   0.11517   0.54358   0.00000  Uiso   1.00
H660   H     0.23959   0.03945   0.70013   0.00000  Uiso   1.00
H661   H     0.27535   0.31098   0.67648   0.00000  Uiso   1.00
H662   H     0.09447   0.03727   0.80207   0.00000  Uiso   1.00
H663   H     0.09487   0.29505   0.80081   0.00000  Uiso   1.00
H664   H     0.28063   0.22379   0.79116   0.00000  Uiso   1.00
H665   H     0.03367   0.22396   0.79078   0.00000  Uiso   1.00
H666   H     0.29792   0.10988   0.70974   0.00000  Uiso   1.00
H667   H     0.28815   0.15530   0.91379   0.00000  Uiso   1.00
H668   H     0.30744   0.17770   0.99229   0.00000  Uiso   1.00
N669   N     0.04931   0.16666   0.74999   0.00000  Uiso   1.00
N670   N     0.28402   0.16669   0.75000   0.00000  Uiso   1.00
O671   O     0.12708   0.22678   0.75001   0.00000  Uiso   1.00
O672   O     0.24960   0.29093   0.69341   0.00000  Uiso   1.00
O673   O     0.20627   0.22679   0.75001   0.00000  Uiso   1.00
O674   O     0.10775   0.16665   0.82549   0.00000  Uiso   1.00
O675   O     0.18694   0.16666   0.82549   0.00000  Uiso   1.00
O676   O     0.12706   0.10654   0.75000   0.00000  Uiso   1.00
O677   O     0.20625   0.10655   0.75000   0.00000  Uiso   1.00
O678   O     0.14640   0.16667   0.67451   0.00000  Uiso   1.00
O679   O     0.22559   0.16668   0.67451   0.00000  Uiso   1.00
O680   O     0.02224   0.11921   0.50639   0.00000  Uiso   1.00
C681   C     0.50042   0.24590   0.74989   0.00000  Uiso   1.00
C682   C     0.46275   0.15238   0.90473   0.00000  Uiso   1.00
C683   C     0.54271   0.31231   0.72182   0.00000  Uiso   1.00
C684   C     0.47489   0.16230   0.84927   0.00000  Uiso   1.00
C685   C     0.54163   0.02212   0.72219   0.00000  Uiso   1.00
C686   C     0.49996   0.04292   0.75018   0.00000  Uiso   1.00
C687   C     0.45956   0.02117   0.77914   0.00000  Uiso   1.00
C688   C     0.45995   0.31171   0.77855   0.00000  Uiso   1.00
C689   C     0.50123   0.29061   0.74997   0.00000  Uiso   1.00
C690   C     0.63670   0.19838   0.77270   0.00000  Uiso   1.00
C691   C     0.35288   0.19848   0.77247   0.00000  Uiso   1.00
C692   C     0.48356   0.15325   0.98674   0.00000  Uiso   1.00
C693   C     0.36199   0.13420   0.72831   0.00000  Uiso   1.00
C694   C     0.64632   0.13504   0.72776   0.00000  Uiso   1.00
C695   C     0.49974   0.08748   0.75014   0.00000  Uiso   1.00
C696   C     0.52574   0.16853   0.65046   0.00000  Uiso   1.00
C697   C     0.60308   0.17326   0.51327   0.00000  Uiso   1.00
C698   C     0.54061   0.17076   0.59421   0.00000  Uiso   1.00
C699   C     0.41452   0.14265   0.93100   0.00000  Uiso   1.00
C700   C     0.40130   0.13491   0.98362   0.00000  Uiso   1.00
C701   C     0.43483   0.14283   0.51180   0.00000  Uiso   1.00
C702   C     0.38766   0.09613   0.70594   0.00000  Uiso   1.00
C703   C     0.49873   0.15196   0.93221   0.00000  Uiso   1.00
C704   C     0.41874   0.09577   0.65586   0.00000  Uiso   1.00
C705   C     0.43841   0.05877   0.63194   0.00000  Uiso   1.00
C706   C     0.42512   0.02136   0.65716   0.00000  Uiso   1.00
C707   C     0.39192   0.02103   0.70605   0.00000  Uiso   1.00
C708   C     0.37346   0.05824   0.73055   0.00000  Uiso   1.00
C709   C     0.51848   0.16193   0.51405   0.00000  Uiso   1.00
C710   C     0.56834   0.16458   0.98699   0.00000  Uiso   1.00
C711   C     0.58324   0.15663   0.93435   0.00000  Uiso   1.00
C712   C     0.54920   0.14880   0.90777   0.00000  Uiso   1.00
C713   C     0.50540   0.16840   0.56750   0.00000  Uiso   1.00
C714   C     0.58960   0.17464   0.56681   0.00000  Uiso   1.00
Cu715  Cu    0.45311   0.16666   0.75000   0.00000  Uiso   1.00
Cu716  Cu    0.54689   0.16667   0.75000   0.00000  Uiso   1.00
H717   H     0.61741   0.17870   0.58662   0.00000  Uiso   1.00
H718   H     0.46805   0.17220   0.58876   0.00000  Uiso   1.00
H719   H     0.38726   0.13948   0.91032   0.00000  Uiso   1.00
H720   H     0.42277   0.13813   0.55271   0.00000  Uiso   1.00
H721   H     0.56406   0.13757   0.86886   0.00000  Uiso   1.00
H722   H     0.42596   0.12392   0.63489   0.00000  Uiso   1.00
H723   H     0.46286   0.05903   0.59336   0.00000  Uiso   1.00
H724   H     0.43982   0.32593   0.63849   0.00000  Uiso   1.00
H725   H     0.38071   0.32531   0.72513   0.00000  Uiso   1.00
H726   H     0.34743   0.05753   0.76827   0.00000  Uiso   1.00
H727   H     0.35182   0.11517   0.54358   0.00000  Uiso   1.00
H728   H     0.57292   0.03945   0.70013   0.00000  Uiso   1.00
H729   H     0.60868   0.31098   0.67648   0.00000  Uiso   1.00
H730   H     0.42780   0.03727   0.80207   0.00000  Uiso   1.00
H731   H     0.42821   0.29505   0.80081   0.00000  Uiso   1.00
H732   H     0.61396   0.22379   0.79116   0.00000  Uiso   1.00
H733   H     0.36700   0.22396   0.79078   0.00000  Uiso   1.00
H734   H     0.63125   0.10988   0.70974   0.00000  Uiso   1.00
H735   H     0.62148   0.15530   0.91379   0.00000  Uiso   1.00
H736   H     0.64077   0.17770   0.99229   0.00000  Uiso   1.00
N737   N     0.38265   0.16666   0.74999   0.00000  Uiso   1.00
N738   N     0.61735   0.16669   0.75000   0.00000  Uiso   1.00
O739   O     0.46042   0.22678   0.75001   0.00000  Uiso   1.00
O740   O     0.58293   0.29093   0.69341   0.00000  Uiso   1.00
O741   O     0.53961   0.22679   0.75001   0.00000  Uiso   1.00
O742   O     0.44108   0.16665   0.82549   0.00000  Uiso   1.00
O743   O     0.52027   0.16666   0.82549   0.00000  Uiso   1.00
O744   O     0.46039   0.10654   0.75000   0.00000  Uiso   1.00
O745   O     0.53958   0.10655   0.75000   0.00000  Uiso   1.00
O746   O     0.47973   0.16667   0.67451   0.00000  Uiso   1.00
O747   O     0.55892   0.16668   0.67451   0.00000  Uiso   1.00
O748   O     0.35557   0.11921   0.50639   0.00000  Uiso   1.00
C749   C     0.83376   0.24590   0.74989   0.00000  Uiso   1.00
C750   C     0.79608   0.15238   0.90473   0.00000  Uiso   1.00
C751   C     0.87604   0.31231   0.72182   0.00000  Uiso   1.00
C752   C     0.80822   0.16230   0.84927   0.00000  Uiso   1.00
C753   C     0.87496   0.02212   0.72219   0.00000  Uiso   1.00
C754   C     0.83329   0.04292   0.75018   0.00000  Uiso   1.00
C755   C     0.79289   0.02117   0.77914   0.00000  Uiso   1.00
C756   C     0.79329   0.31171   0.77855   0.00000  Uiso   1.00
C757   C     0.83457   0.29061   0.74997   0.00000  Uiso   1.00
C758   C     0.97004   0.19838   0.77270   0.00000  Uiso   1.00
C759   C     0.68622   0.19848   0.77247   0.00000  Uiso   1.00
C760   C     0.81689   0.15325   0.98674   0.00000  Uiso   1.00
C761   C     0.69532   0.13420   0.72831   0.00000  Uiso   1.00
C762   C     0.97965   0.13504   0.72776   0.00000  Uiso   1.00
C763   C     0.83307   0.08748   0.75014   0.00000  Uiso   1.00
C764   C     0.85907   0.16853   0.65046   0.00000  Uiso   1.00
C765   C     0.93641   0.17326   0.51327   0.00000  Uiso   1.00
C766   C     0.87394   0.17076   0.59421   0.00000  Uiso   1.00
C767   C     0.74785   0.14265   0.93100   0.00000  Uiso   1.00
C768   C     0.73463   0.13491   0.98362   0.00000  Uiso   1.00
C769   C     0.76817   0.14283   0.51180   0.00000  Uiso   1.00
C770   C     0.72100   0.09613   0.70594   0.00000  Uiso   1.00
C771   C     0.83207   0.15196   0.93221   0.00000  Uiso   1.00
C772   C     0.75208   0.09577   0.65586   0.00000  Uiso   1.00
C773   C     0.77174   0.05877   0.63194   0.00000  Uiso   1.00
C774   C     0.75846   0.02136   0.65716   0.00000  Uiso   1.00
C775   C     0.72526   0.02103   0.70605   0.00000  Uiso   1.00
C776   C     0.70680   0.05824   0.73055   0.00000  Uiso   1.00
C777   C     0.85181   0.16193   0.51405   0.00000  Uiso   1.00
C778   C     0.90167   0.16458   0.98699   0.00000  Uiso   1.00
C779   C     0.91657   0.15663   0.93435   0.00000  Uiso   1.00
C780   C     0.88253   0.14880   0.90777   0.00000  Uiso   1.00
C781   C     0.83873   0.16840   0.56750   0.00000  Uiso   1.00
C782   C     0.92293   0.17464   0.56681   0.00000  Uiso   1.00
Cu783  Cu    0.78645   0.16666   0.75000   0.00000  Uiso   1.00
Cu784  Cu    0.88022   0.16667   0.75000   0.00000  Uiso   1.00
H785   H     0.95074   0.17870   0.58662   0.00000  Uiso   1.00
H786   H     0.80138   0.17220   0.58876   0.00000  Uiso   1.00
H787   H     0.72060   0.13948   0.91032   0.00000  Uiso   1.00
H788   H     0.75610   0.13813   0.55271   0.00000  Uiso   1.00
H789   H     0.89739   0.13757   0.86886   0.00000  Uiso   1.00
H790   H     0.75930   0.12392   0.63489   0.00000  Uiso   1.00
H791   H     0.79620   0.05903   0.59336   0.00000  Uiso   1.00
H792   H     0.77315   0.32593   0.63849   0.00000  Uiso   1.00
H793   H     0.71404   0.32531   0.72513   0.00000  Uiso   1.00
H794   H     0.68077   0.05753   0.76827   0.00000  Uiso   1.00
H795   H     0.68515   0.11517   0.54358   0.00000  Uiso   1.00
H796   H     0.90625   0.03945   0.70013   0.00000  Uiso   1.00
H797   H     0.94201   0.31098   0.67648   0.00000  Uiso   1.00
H798   H     0.76114   0.03727   0.80207   0.00000  Uiso   1.00
H799   H     0.76154   0.29505   0.80081   0.00000  Uiso   1.00
H800   H     0.94729   0.22379   0.79116   0.00000  Uiso   1.00
H801   H     0.70033   0.22396   0.79078   0.00000  Uiso   1.00
H802   H     0.96459   0.10988   0.70974   0.00000  Uiso   1.00
H803   H     0.95481   0.15530   0.91379   0.00000  Uiso   1.00
H804   H     0.97411   0.17770   0.99229   0.00000  Uiso   1.00
N805   N     0.71598   0.16666   0.74999   0.00000  Uiso   1.00
N806   N     0.95069   0.16669   0.75000   0.00000  Uiso   1.00
O807   O     0.79375   0.22678   0.75001   0.00000  Uiso   1.00
O808   O     0.91627   0.29093   0.69341   0.00000  Uiso   1.00
O809   O     0.87294   0.22679   0.75001   0.00000  Uiso   1.00
O810   O     0.77441   0.16665   0.82549   0.00000  Uiso   1.00
O811   O     0.85360   0.16666   0.82549   0.00000  Uiso   1.00
O812   O     0.79373   0.10654   0.75000   0.00000  Uiso   1.00
O813   O     0.87292   0.10655   0.75000   0.00000  Uiso   1.00
O814   O     0.81306   0.16667   0.67451   0.00000  Uiso   1.00
O815   O     0.89225   0.16668   0.67451   0.00000  Uiso   1.00
O816   O     0.68891   0.11921   0.50639   0.00000  Uiso   1.00
C817   C     0.16709   0.57923   0.74989   0.00000  Uiso   1.00
C818   C     0.12941   0.48571   0.90473   0.00000  Uiso   1.00
C819   C     0.20937   0.64564   0.72182   0.00000  Uiso   1.00
C820   C     0.14155   0.49563   0.84927   0.00000  Uiso   1.00
C821   C     0.20830   0.35545   0.72219   0.00000  Uiso   1.00
C822   C     0.16662   0.37626   0.75018   0.00000  Uiso   1.00
C823   C     0.12623   0.35450   0.77914   0.00000  Uiso   1.00
C824   C     0.12662   0.64504   0.77855   0.00000  Uiso   1.00
C825   C     0.16790   0.62394   0.74997   0.00000  Uiso   1.00
C826   C     0.30337   0.53171   0.77270   0.00000  Uiso   1.00
C827   C     0.01955   0.53181   0.77247   0.00000  Uiso   1.00
C828   C     0.15022   0.48658   0.98674   0.00000  Uiso   1.00
C829   C     0.02865   0.46753   0.72831   0.00000  Uiso   1.00
C830   C     0.31298   0.46838   0.72776   0.00000  Uiso   1.00
C831   C     0.16640   0.42081   0.75014   0.00000  Uiso   1.00
C832   C     0.19241   0.50187   0.65046   0.00000  Uiso   1.00
C833   C     0.26974   0.50659   0.51327   0.00000  Uiso   1.00
C834   C     0.20728   0.50409   0.59421   0.00000  Uiso   1.00
C835   C     0.08119   0.47599   0.93100   0.00000  Uiso   1.00
C836   C     0.06796   0.46825   0.98362   0.00000  Uiso   1.00
C837   C     0.10150   0.47616   0.51180   0.00000  Uiso   1.00
C838   C     0.05433   0.42946   0.70594   0.00000  Uiso   1.00
C839   C     0.16540   0.48529   0.93221   0.00000  Uiso   1.00
C840   C     0.08541   0.42911   0.65586   0.00000  Uiso   1.00
C841   C     0.10508   0.39210   0.63194   0.00000  Uiso   1.00
C842   C     0.09179   0.35469   0.65716   0.00000  Uiso   1.00
C843   C     0.05859   0.35436   0.70605   0.00000  Uiso   1.00
C844   C     0.04013   0.39158   0.73055   0.00000  Uiso   1.00
C845   C     0.18515   0.49527   0.51405   0.00000  Uiso   1.00
C846   C     0.23501   0.49791   0.98699   0.00000  Uiso   1.00
C847   C     0.24991   0.48996   0.93435   0.00000  Uiso   1.00
C848   C     0.21586   0.48213   0.90777   0.00000  Uiso   1.00
C849   C     0.17206   0.50173   0.56750   0.00000  Uiso   1.00
C850   C     0.25627   0.50797   0.56681   0.00000  Uiso   1.00
Cu851  Cu    0.11978   0.49999   0.75000   0.00000  Uiso   1.00
Cu852  Cu    0.21355   0.50001   0.75000   0.00000  Uiso   1.00
H853   H     0.28408   0.51204   0.58662   0.00000  Uiso   1.00
H854   H     0.13472   0.50553   0.58876   0.00000  Uiso   1.00
H855   H     0.05393   0.47282   0.91032   0.00000  Uiso   1.00
H856   H     0.08943   0.47146   0.55271   0.00000  Uiso   1.00
H857   H     0.23073   0.47090   0.86886   0.00000  Uiso   1.00
H858   H     0.09263   0.45725   0.63489   0.00000  Uiso   1.00
H859   H     0.12953   0.39236   0.59336   0.00000  Uiso   1.00
H860   H     0.10649   0.65927   0.63849   0.00000  Uiso   1.00
H861   H     0.04738   0.65864   0.72513   0.00000  Uiso   1.00
H862   H     0.01410   0.39086   0.76827   0.00000  Uiso   1.00
H863   H     0.01848   0.44850   0.54358   0.00000  Uiso   1.00
H864   H     0.23959   0.37278   0.70013   0.00000  Uiso   1.00
H865   H     0.27535   0.64432   0.67648   0.00000  Uiso   1.00
H866   H     0.09447   0.37060   0.80207   0.00000  Uiso   1.00
H867   H     0.09487   0.62838   0.80081   0.00000  Uiso   1.00
H868   H     0.28063   0.55712   0.79116   0.00000  Uiso   1.00
H869   H     0.03367   0.55729   0.79078   0.00000  Uiso   1.00
H870   H     0.29792   0.44322   0.70974   0.00000  Uiso   1.00
H871   H     0.28815   0.48864   0.91379   0.00000  Uiso   1.00
H872   H     0.30744   0.51104   0.99229   0.00000  Uiso   1.00
N873   N     0.04931   0.49999   0.74999   0.00000  Uiso   1.00
N874   N     0.28402   0.50002   0.75000   0.00000  Uiso   1.00
O875   O     0.12708   0.56011   0.75001   0.00000  Uiso   1.00
O876   O     0.24960   0.62426   0.69341   0.00000  Uiso   1.00
O877   O     0.20627   0.56012   0.75001   0.00000  Uiso   1.00
O878   O     0.10775   0.49998   0.82549   0.00000  Uiso   1.00
O879   O     0.18694   0.49999   0.82549   0.00000  Uiso   1.00
O880   O     0.12706   0.43988   0.75000   0.00000  Uiso   1.00
O881   O     0.20625   0.43989   0.75000   0.00000  Uiso   1.00
O882   O     0.14640   0.50001   0.67451   0.00000  Uiso   1.00
O883   O     0.22559   0.50002   0.67451   0.00000  Uiso   1.00
O884   O     0.02224   0.45255   0.50639   0.00000  Uiso   1.00
C885   C     0.50042   0.57923   0.74989   0.00000  Uiso   1.00
C886   C     0.46275   0.48571   0.90473   0.00000  Uiso   1.00
C887   C     0.54271   0.64564   0.72182   0.00000  Uiso   1.00
C888   C     0.47489   0.49563   0.84927   0.00000  Uiso   1.00
C889   C     0.54163   0.35545   0.72219   0.00000  Uiso   1.00
C890   C     0.49996   0.37626   0.75018   0.00000  Uiso   1.00
C891   C     0.45956   0.35450   0.77914   0.00000  Uiso   1.00
C892   C     0.45995   0.64504   0.77855   0.00000  Uiso   1.00
C893   C     0.50123   0.62394   0.74997   0.00000  Uiso   1.00
C894   C     0.63670   0.53171   0.77270   0.00000  Uiso   1.00
C895   C     0.35288   0.53181   0.77247   0.00000  Uiso   1.00
C896   C     0.48356   0.48658   0.98674   0.00000  Uiso   1.00
C897   C     0.36199   0.46753   0.72831   0.00000  Uiso   1.00
C898   C     0.64632   0.46838   0.72776   0.00000  Uiso   1.00
C899   C     0.49974   0.42081   0.75014   0.00000  Uiso   1.00
C900   C     0.52574   0.50187   0.65046   0.00000  Uiso   1.00
C901   C     0.60308   0.50659   0.51327   0.00000  Uiso   1.00
C902   C     0.54061   0.50409   0.59421   0.00000  Uiso   1.00
C903   C     0.41452   0.47599   0.93100   0.00000  Uiso   1.00
C904   C     0.40130   0.46825   0.98362   0.00000  Uiso   1.00
C905   C     0.43483   0.47616   0.51180   0.00000  Uiso   1.00
C906   C     0.38766   0.42946   0.70594   0.00000  Uiso   1.00
C907   C     0.49873   0.48529   0.93221   0.00000  Uiso   1.00
C908   C     0.41874   0.42911   0.65586   0.00000  Uiso   1.00
C909   C     0.43841   0.39210   0.63194   0.00000  Uiso   1.00
C910   C     0.42512   0.35469   0.65716   0.00000  Uiso   1.00
C911   C     0.39192   0.35436   0.70605   0.00000  Uiso   1.00
C912   C     0.37346   0.39158   0.73055   0.00000  Uiso   1.00
C913   C     0.51848   0.49527   0.51405   0.00000  Uiso   1.00
C914   C     0.56834   0.49791   0.98699   0.00000  Uiso   1.00
C915   C     0.58324   0.48996   0.93435   0.00000  Uiso   1.00
C916   C     0.54920   0.48213   0.90777   0.00000  Uiso   1.00
C917   C     0.50540   0.50173   0.56750   0.00000  Uiso   1.00
C918   C     0.58960   0.50797   0.56681   0.00000  Uiso   1.00
Cu919  Cu    0.45311   0.49999   0.75000   0.00000  Uiso   1.00
Cu920  Cu    0.54689   0.50001   0.75000   0.00000  Uiso   1.00
H921   H     0.61741   0.51204   0.58662   0.00000  Uiso   1.00
H922   H     0.46805   0.50553   0.58876   0.00000  Uiso   1.00
H923   H     0.38726   0.47282   0.91032   0.00000  Uiso   1.00
H924   H     0.42277   0.47146   0.55271   0.00000  Uiso   1.00
H925   H     0.56406   0.47090   0.86886   0.00000  Uiso   1.00
H926   H     0.42596   0.45725   0.63489   0.00000  Uiso   1.00
H927   H     0.46286   0.39236   0.59336   0.00000  Uiso   1.00
H928   H     0.43982   0.65927   0.63849   0.00000  Uiso   1.00
H929   H     0.38071   0.65864   0.72513   0.00000  Uiso   1.00
H930   H     0.34743   0.39086   0.76827   0.00000  Uiso   1.00
H931   H     0.35182   0.44850   0.54358   0.00000  Uiso   1.00
H932   H     0.57292   0.37278   0.70013   0.00000  Uiso   1.00
H933   H     0.60868   0.64432   0.67648   0.00000  Uiso   1.00
H934   H     0.42780   0.37060   0.80207   0.00000  Uiso   1.00
H935   H     0.42821   0.62838   0.80081   0.00000  Uiso   1.00
H936   H     0.61396   0.55712   0.79116   0.00000  Uiso   1.00
H937   H     0.36700   0.55729   0.79078   0.00000  Uiso   1.00
H938   H     0.63125   0.44322   0.70974   0.00000  Uiso   1.00
H939   H     0.62148   0.48864   0.91379   0.00000  Uiso   1.00
H940   H     0.64077   0.51104   0.99229   0.00000  Uiso   1.00
N941   N     0.38265   0.49999   0.74999   0.00000  Uiso   1.00
N942   N     0.61735   0.50002   0.75000   0.00000  Uiso   1.00
O943   O     0.46042   0.56011   0.75001   0.00000  Uiso   1.00
O944   O     0.58293   0.62426   0.69341   0.00000  Uiso   1.00
O945   O     0.53961   0.56012   0.75001   0.00000  Uiso   1.00
O946   O     0.44108   0.49998   0.82549   0.00000  Uiso   1.00
O947   O     0.52027   0.49999   0.82549   0.00000  Uiso   1.00
O948   O     0.46039   0.43988   0.75000   0.00000  Uiso   1.00
O949   O     0.53958   0.43989   0.75000   0.00000  Uiso   1.00
O950   O     0.47973   0.50001   0.67451   0.00000  Uiso   1.00
O951   O     0.55892   0.50002   0.67451   0.00000  Uiso   1.00
O952   O     0.35557   0.45255   0.50639   0.00000  Uiso   1.00
C953   C     0.83376   0.57923   0.74989   0.00000  Uiso   1.00
C954   C     0.79608   0.48571   0.90473   0.00000  Uiso   1.00
C955   C     0.87604   0.64564   0.72182   0.00000  Uiso   1.00
C956   C     0.80822   0.49563   0.84927   0.00000  Uiso   1.00
C957   C     0.87496   0.35545   0.72219   0.00000  Uiso   1.00
C958   C     0.83329   0.37626   0.75018   0.00000  Uiso   1.00
C959   C     0.79289   0.35450   0.77914   0.00000  Uiso   1.00
C960   C     0.79329   0.64504   0.77855   0.00000  Uiso   1.00
C961   C     0.83457   0.62394   0.74997   0.00000  Uiso   1.00
C962   C     0.97004   0.53171   0.77270   0.00000  Uiso   1.00
C963   C     0.68622   0.53181   0.77247   0.00000  Uiso   1.00
C964   C     0.81689   0.48658   0.98674   0.00000  Uiso   1.00
C965   C     0.69532   0.46753   0.72831   0.00000  Uiso   1.00
C966   C     0.97965   0.46838   0.72776   0.00000  Uiso   1.00
C967   C     0.83307   0.42081   0.75014   0.00000  Uiso   1.00
C968   C     0.85907   0.50187   0.65046   0.00000  Uiso   1.00
C969   C     0.93641   0.50659   0.51327   0.00000  Uiso   1.00
C970   C     0.87394   0.50409   0.59421   0.00000  Uiso   1.00
C971   C     0.74785   0.47599   0.93100   0.00000  Uiso   1.00
C972   C     0.73463   0.46825   0.98362   0.00000  Uiso   1.00
C973   C     0.76817   0.47616   0.51180   0.00000  Uiso   1.00
C974   C     0.72100   0.42946   0.70594   0.00000  Uiso   1.00
C975   C     0.83207   0.48529   0.93221   0.00000  Uiso   1.00
C976   C     0.75208   0.42911   0.65586   0.00000  Uiso   1.00
C977   C     0.77174   0.39210   0.63194   0.00000  Uiso   1.00
C978   C     0.75846   0.35469   0.65716   0.00000  Uiso   1.00
C979   C     0.72526   0.35436   0.70605   0.00000  Uiso   1.00
C980   C     0.70680   0.39158   0.73055   0.00000  Uiso   1.00
C981   C     0.85181   0.49527   0.51405   0.00000  Uiso   1.00
C982   C     0.90167   0.49791   0.98699   0.00000  Uiso   1.00
C983   C     0.91657   0.48996   0.93435   0.00000  Uiso   1.00
C984   C     0.88253   0.48213   0.90777   0.00000  Uiso   1.00
C985   C     0.83873   0.50173   0.56750   0.00000  Uiso   1.00
C986   C     0.92293   0.50797   0.56681   0.00000  Uiso   1.00
Cu987  Cu    0.78645   0.49999   0.75000   0.00000  Uiso   1.00
Cu988  Cu    0.88022   0.50001   0.75000   0.00000  Uiso   1.00
H989   H     0.95074   0.51204   0.58662   0.00000  Uiso   1.00
H990   H     0.80138   0.50553   0.58876   0.00000  Uiso   1.00
H991   H     0.72060   0.47282   0.91032   0.00000  Uiso   1.00
H992   H     0.75610   0.47146   0.55271   0.00000  Uiso   1.00
H993   H     0.89739   0.47090   0.86886   0.00000  Uiso   1.00
H994   H     0.75930   0.45725   0.63489   0.00000  Uiso   1.00
H995   H     0.79620   0.39236   0.59336   0.00000  Uiso   1.00
H996   H     0.77315   0.65927   0.63849   0.00000  Uiso   1.00
H997   H     0.71404   0.65864   0.72513   0.00000  Uiso   1.00
H998   H     0.68077   0.39086   0.76827   0.00000  Uiso   1.00
H999   H     0.68515   0.44850   0.54358   0.00000  Uiso   1.00
H1000  H     0.90625   0.37278   0.70013   0.00000  Uiso   1.00
H1001  H     0.94201   0.64432   0.67648   0.00000  Uiso   1.00
H1002  H     0.76114   0.37060   0.80207   0.00000  Uiso   1.00
H1003  H     0.76154   0.62838   0.80081   0.00000  Uiso   1.00
H1004  H     0.94729   0.55712   0.79116   0.00000  Uiso   1.00
H1005  H     0.70033   0.55729   0.79078   0.00000  Uiso   1.00
H1006  H     0.96459   0.44322   0.70974   0.00000  Uiso   1.00
H1007  H     0.95481   0.48864   0.91379   0.00000  Uiso   1.00
H1008  H     0.97411   0.51104   0.99229   0.00000  Uiso   1.00
N1009  N     0.71598   0.49999   0.74999   0.00000  Uiso   1.00
N1010  N     0.95069   0.50002   0.75000   0.00000  Uiso   1.00
O1011  O     0.79375   0.56011   0.75001   0.00000  Uiso   1.00
O1012  O     0.91627   0.62426   0.69341   0.00000  Uiso   1.00
O1013  O     0.87294   0.56012   0.75001   0.00000  Uiso   1.00
O1014  O     0.77441   0.49998   0.82549   0.00000  Uiso   1.00
O1015  O     0.85360   0.49999   0.82549   0.00000  Uiso   1.00
O1016  O     0.79373   0.43988   0.75000   0.00000  Uiso   1.00
O1017  O     0.87292   0.43989   0.75000   0.00000  Uiso   1.00
O1018  O     0.81306   0.50001   0.67451   0.00000  Uiso   1.00
O1019  O     0.89225   0.50002   0.67451   0.00000  Uiso   1.00
O1020  O     0.68891   0.45255   0.50639   0.00000  Uiso   1.00
C1021  C     0.16709   0.91256   0.74989   0.00000  Uiso   1.00
C1022  C     0.12941   0.81905   0.90473   0.00000  Uiso   1.00
C1023  C     0.20937   0.97898   0.72182   0.00000  Uiso   1.00
C1024  C     0.14155   0.82897   0.84927   0.00000  Uiso   1.00
C1025  C     0.20830   0.68879   0.72219   0.00000  Uiso   1.00
C1026  C     0.16662   0.70959   0.75018   0.00000  Uiso   1.00
C1027  C     0.12623   0.68783   0.77914   0.00000  Uiso   1.00
C1028  C     0.12662   0.97837   0.77855   0.00000  Uiso   1.00
C1029  C     0.16790   0.95727   0.74997   0.00000  Uiso   1.00
C1030  C     0.30337   0.86504   0.77270   0.00000  Uiso   1.00
C1031  C     0.01955   0.86514   0.77247   0.00000  Uiso   1.00
C1032  C     0.15022   0.81992   0.98674   0.00000  Uiso   1.00
C1033  C     0.02865   0.80086   0.72831   0.00000  Uiso   1.00
C1034  C     0.31298   0.80171   0.72776   0.00000  Uiso   1.00
C1035  C     0.16640   0.75415   0.75014   0.00000  Uiso   1.00
C1036  C     0.19241   0.83520   0.65046   0.00000  Uiso   1.00
C1037  C     0.26974   0.83992   0.51327   0.00000  Uiso   1.00
C1038  C     0.20728   0.83742   0.59421   0.00000  Uiso   1.00
C1039  C     0.08119   0.80932   0.93100   0.00000  Uiso   1.00
C1040  C     0.06796   0.80158   0.98362   0.00000  Uiso   1.00
C1041  C     0.10150   0.80950   0.51180   0.00000  Uiso   1.00
C1042  C     0.05433   0.76279   0.70594   0.00000  Uiso   1.00
C1043  C     0.16540   0.81862   0.93221   0.00000  Uiso   1.00
C1044  C     0.08541   0.76244   0.65586   0.00000  Uiso   1.00
C1045  C     0.10508   0.72544   0.63194   0.00000  Uiso   1.00
C1046  C     0.09179   0.68802   0.65716   0.00000  Uiso   1.00
C1047  C     0.05859   0.68770   0.70605   0.00000  Uiso   1.00
C1048  C     0.04013   0.72491   0.73055   0.00000  Uiso   1.00
C1049  C     0.18515   0.82860   0.51405   0.00000  Uiso   1.00
C1050  C     0.23501   0.83124   0.98699   0.00000  Uiso   1.00
C1051  C     0.24991   0.82330   0.93435   0.00000  Uiso   1.00
C1052  C     0.21586   0.81547   0.90777   0.00000  Uiso   1.00
C1053  C     0.17206   0.83506   0.56750   0.00000  Uiso   1.00
C1054  C     0.25627   0.84130   0.56681   0.00000  Uiso   1.00
Cu1055 Cu    0.11978   0.83333   0.75000   0.00000  Uiso   1.00
Cu1056 Cu    0.21355   0.83334   0.75000   0.00000  Uiso   1.00
H1057  H     0.28408   0.84537   0.58662   0.00000  Uiso   1.00
H1058  H     0.13472   0.83886   0.58876   0.00000  Uiso   1.00
H1059  H     0.05393   0.80615   0.91032   0.00000  Uiso   1.00
H1060  H     0.08943   0.80479   0.55271   0.00000  Uiso   1.00
H1061  H     0.23073   0.80423   0.86886   0.00000  Uiso   1.00
H1062  H     0.09263   0.79059   0.63489   0.00000  Uiso   1.00
H1063  H     0.12953   0.72569   0.59336   0.00000  Uiso   1.00
H1064  H     0.10649   0.99260   0.63849   0.00000  Uiso   1.00
H1065  H     0.04738   0.99198   0.72513   0.00000  Uiso   1.00
H1066  H     0.01410   0.72419   0.76827   0.00000  Uiso   1.00
H1067  H     0.01848   0.78183   0.54358   0.00000  Uiso   1.00
H1068  H     0.23959   0.70611   0.70013   0.00000  Uiso   1.00
H1069  H     0.27535   0.97765   0.67648   0.00000  Uiso   1.00
H1070  H     0.09447   0.70393   0.80207   0.00000  Uiso   1.00
H1071  H     0.09487   0.96171   0.80081   0.00000  Uiso   1.00
H1072  H     0.28063   0.89045   0.79116   0.00000  Uiso   1.00
H1073  H     0.03367   0.89063   0.79078   0.00000  Uiso   1.00
H1074  H     0.29792   0.77655   0.70974   0.00000  Uiso   1.00
H1075  H     0.28815   0.82197   0.91379   0.00000  Uiso   1.00
H1076  H     0.30744   0.84437   0.99229   0.00000  Uiso   1.00
N1077  N     0.04931   0.83332   0.74999   0.00000  Uiso   1.00
N1078  N     0.28402   0.83335   0.75000   0.00000  Uiso   1.00
O1079  O     0.12708   0.89345   0.75001   0.00000  Uiso   1.00
O1080  O     0.24960   0.95760   0.69341   0.00000  Uiso   1.00
O1081  O     0.20627   0.89346   0.75001   0.00000  Uiso   1.00
O1082  O     0.10775   0.83332   0.82549   0.00000  Uiso   1.00
O1083  O     0.18694   0.83333   0.82549   0.00000  Uiso   1.00
O1084  O     0.12706   0.77321   0.75000   0.00000  Uiso   1.00
O1085  O     0.20625   0.77322   0.75000   0.00000  Uiso   1.00
O1086  O     0.14640   0.83334   0.67451   0.00000  Uiso   1.00
O1087  O     0.22559   0.83335   0.67451   0.00000  Uiso   1.00
O1088  O     0.02224   0.78588   0.50639   0.00000  Uiso   1.00
C1089  C     0.50042   0.91256   0.74989   0.00000  Uiso   1.00
C1090  C     0.46275   0.81905   0.90473   0.00000  Uiso   1.00
C1091  C     0.54271   0.97898   0.72182   0.00000  Uiso   1.00
C1092  C     0.47489   0.82897   0.84927   0.00000  Uiso   1.00
C1093  C     0.54163   0.68879   0.72219   0.00000  Uiso   1.00
C1094  C     0.49996   0.70959   0.75018   0.00000  Uiso   1.00
C1095  C     0.45956   0.68783   0.77914   0.00000  Uiso   1.00
C1096  C     0.45995   0.97837   0.77855   0.00000  Uiso   1.00
C1097  C     0.50123   0.95727   0.74997   0.00000  Uiso   1.00
C1098  C     0.63670   0.86504   0.77270   0.00000  Uiso   1.00
C1099  C     0.35288   0.86514   0.77247   0.00000  Uiso   1.00
C1100  C     0.48356   0.81992   0.98674   0.00000  Uiso   1.00
C1101  C     0.36199   0.80086   0.72831   0.00000  Uiso   1.00
C1102  C     0.64632   0.80171   0.72776   0.00000  Uiso   1.00
C1103  C     0.49974   0.75415   0.75014   0.00000  Uiso   1.00
C1104  C     0.52574   0.83520   0.65046   0.00000  Uiso   1.00
C1105  C     0.60308   0.83992   0.51327   0.00000  Uiso   1.00
C1106  C     0.54061   0.83742   0.59421   0.00000  Uiso   1.00
C1107  C     0.41452   0.80932   0.93100   0.00000  Uiso   1.00
C1108  C     0.40130   0.80158   0.98362   0.00000  Uiso   1.00
C1109  C     0.43483   0.80950   0.51180   0.00000  Uiso   1.00
C1110  C     0.38766   0.76279   0.70594   0.00000  Uiso   1.00
C1111  C     0.49873   0.81862   0.93221   0.00000  Uiso   1.00
C1112  C     0.41874   0.76244   0.65586   0.00000  Uiso   1.00
C1113  C     0.43841   0.72544   0.63194   0.00000  Uiso   1.00
C1114  C     0.42512   0.68802   0.65716   0.00000  Uiso   1.00
C1115  C     0.39192   0.68770   0.70605   0.00000  Uiso   1.00
C1116  C     0.37346   0.72491   0.73055   0.00000  Uiso   1.00
C1117  C     0.51848   0.82860   0.51405   0.00000  Uiso   1.00
C1118  C     0.56834   0.83124   0.98699   0.00000  Uiso   1.00
C1119  C     0.58324   0.82330   0.93435   0.00000  Uiso   1.00
C1120  C     0.54920   0.81547   0.90777   0.00000  Uiso   1.00
C1121  C     0.50540   0.83506   0.56750   0.00000  Uiso   1.00
C1122  C     0.58960   0.84130   0.56681   0.00000  Uiso   1.00
Cu1123 Cu    0.45311   0.83333   0.75000   0.00000  Uiso   1.00
Cu1124 Cu    0.54689   0.83334   0.75000   0.00000  Uiso   1.00
H1125  H     0.61741   0.84537   0.58662   0.00000  Uiso   1.00
H1126  H     0.46805   0.83886   0.58876   0.00000  Uiso   1.00
H1127  H     0.38726   0.80615   0.91032   0.00000  Uiso   1.00
H1128  H     0.42277   0.80479   0.55271   0.00000  Uiso   1.00
H1129  H     0.56406   0.80423   0.86886   0.00000  Uiso   1.00
H1130  H     0.42596   0.79059   0.63489   0.00000  Uiso   1.00
H1131  H     0.46286   0.72569   0.59336   0.00000  Uiso   1.00
H1132  H     0.43982   0.99260   0.63849   0.00000  Uiso   1.00
H1133  H     0.38071   0.99198   0.72513   0.00000  Uiso   1.00
H1134  H     0.34743   0.72419   0.76827   0.00000  Uiso   1.00
H1135  H     0.35182   0.78183   0.54358   0.00000  Uiso   1.00
H1136  H     0.57292   0.70611   0.70013   0.00000  Uiso   1.00
H1137  H     0.60868   0.97765   0.67648   0.00000  Uiso   1.00
H1138  H     0.42780   0.70393   0.80207   0.00000  Uiso   1.00
H1139  H     0.42821   0.96171   0.80081   0.00000  Uiso   1.00
H1140  H     0.61396   0.89045   0.79116   0.00000  Uiso   1.00
H1141  H     0.36700   0.89063   0.79078   0.00000  Uiso   1.00
H1142  H     0.63125   0.77655   0.70974   0.00000  Uiso   1.00
H1143  H     0.62148   0.82197   0.91379   0.00000  Uiso   1.00
H1144  H     0.64077   0.84437   0.99229   0.00000  Uiso   1.00
N1145  N     0.38265   0.83332   0.74999   0.00000  Uiso   1.00
N1146  N     0.61735   0.83335   0.75000   0.00000  Uiso   1.00
O1147  O     0.46042   0.89345   0.75001   0.00000  Uiso   1.00
O1148  O     0.58293   0.95760   0.69341   0.00000  Uiso   1.00
O1149  O     0.53961   0.89346   0.75001   0.00000  Uiso   1.00
O1150  O     0.44108   0.83332   0.82549   0.00000  Uiso   1.00
O1151  O     0.52027   0.83333   0.82549   0.00000  Uiso   1.00
O1152  O     0.46039   0.77321   0.75000   0.00000  Uiso   1.00
O1153  O     0.53958   0.77322   0.75000   0.00000  Uiso   1.00
O1154  O     0.47973   0.83334   0.67451   0.00000  Uiso   1.00
O1155  O     0.55892   0.83335   0.67451   0.00000  Uiso   1.00
O1156  O     0.35557   0.78588   0.50639   0.00000  Uiso   1.00
C1157  C     0.83376   0.91256   0.74989   0.00000  Uiso   1.00
C1158  C     0.79608   0.81905   0.90473   0.00000  Uiso   1.00
C1159  C     0.87604   0.97898   0.72182   0.00000  Uiso   1.00
C1160  C     0.80822   0.82897   0.84927   0.00000  Uiso   1.00
C1161  C     0.87496   0.68879   0.72219   0.00000  Uiso   1.00
C1162  C     0.83329   0.70959   0.75018   0.00000  Uiso   1.00
C1163  C     0.79289   0.68783   0.77914   0.00000  Uiso   1.00
C1164  C     0.79329   0.97837   0.77855   0.00000  Uiso   1.00
C1165  C     0.83457   0.95727   0.74997   0.00000  Uiso   1.00
C1166  C     0.97004   0.86504   0.77270   0.00000  Uiso   1.00
C1167  C     0.68622   0.86514   0.77247   0.00000  Uiso   1.00
C1168  C     0.81689   0.81992   0.98674   0.00000  Uiso   1.00
C1169  C     0.69532   0.80086   0.72831   0.00000  Uiso   1.00
C1170  C     0.97965   0.80171   0.72776   0.00000  Uiso   1.00
C1171  C     0.83307   0.75415   0.75014   0.00000  Uiso   1.00
C1172  C     0.85907   0.83520   0.65046   0.00000  Uiso   1.00
C1173  C     0.93641   0.83992   0.51327   0.00000  Uiso   1.00
C1174  C     0.87394   0.83742   0.59421   0.00000  Uiso   1.00
C1175  C     0.74785   0.80932   0.93100   0.00000  Uiso   1.00
C1176  C     0.73463   0.80158   0.98362   0.00000  Uiso   1.00
C1177  C     0.76817   0.80950   0.51180   0.00000  Uiso   1.00
C1178  C     0.72100   0.76279   0.70594   0.00000  Uiso   1.00
C1179  C     0.83207   0.81862   0.93221   0.00000  Uiso   1.00
C1180  C     0.75208   0.76244   0.65586   0.00000  Uiso   1.00
C1181  C     0.77174   0.72544   0.63194   0.00000  Uiso   1.00
C1182  C     0.75846   0.68802   0.65716   0.00000  Uiso   1.00
C1183  C     0.72526   0.68770   0.70605   0.00000  Uiso   1.00
C1184  C     0.70680   0.72491   0.73055   0.00000  Uiso   1.00
C1185  C     0.85181   0.82860   0.51405   0.00000  Uiso   1.00
C1186  C     0.90167   0.83124   0.98699   0.00000  Uiso   1.00
C1187  C     0.91657   0.82330   0.93435   0.00000  Uiso   1.00
C1188  C     0.88253   0.81547   0.90777   0.00000  Uiso   1.00
C1189  C     0.83873   0.83506   0.56750   0.00000  Uiso   1.00
C1190  C     0.92293   0.84130   0.56681   0.00000  Uiso   1.00
Cu1191 Cu    0.78645   0.83333   0.75000   0.00000  Uiso   1.00
Cu1192 Cu    0.88022   0.83334   0.75000   0.00000  Uiso   1.00
H1193  H     0.95074   0.84537   0.58662   0.00000  Uiso   1.00
H1194  H     0.80138   0.83886   0.58876   0.00000  Uiso   1.00
H1195  H     0.72060   0.80615   0.91032   0.00000  Uiso   1.00
H1196  H     0.75610   0.80479   0.55271   0.00000  Uiso   1.00
H1197  H     0.89739   0.80423   0.86886   0.00000  Uiso   1.00
H1198  H     0.75930   0.79059   0.63489   0.00000  Uiso   1.00
H1199  H     0.79620   0.72569   0.59336   0.00000  Uiso   1.00
H1200  H     0.77315   0.99260   0.63849   0.00000  Uiso   1.00
H1201  H     0.71404   0.99198   0.72513   0.00000  Uiso   1.00
H1202  H     0.68077   0.72419   0.76827   0.00000  Uiso   1.00
H1203  H     0.68515   0.78183   0.54358   0.00000  Uiso   1.00
H1204  H     0.90625   0.70611   0.70013   0.00000  Uiso   1.00
H1205  H     0.94201   0.97765   0.67648   0.00000  Uiso   1.00
H1206  H     0.76114   0.70393   0.80207   0.00000  Uiso   1.00
H1207  H     0.76154   0.96171   0.80081   0.00000  Uiso   1.00
H1208  H     0.94729   0.89045   0.79116   0.00000  Uiso   1.00
H1209  H     0.70033   0.89063   0.79078   0.00000  Uiso   1.00
H1210  H     0.96459   0.77655   0.70974   0.00000  Uiso   1.00
H1211  H     0.95481   0.82197   0.91379   0.00000  Uiso   1.00
H1212  H     0.97411   0.84437   0.99229   0.00000  Uiso   1.00
N1213  N     0.71598   0.83332   0.74999   0.00000  Uiso   1.00
N1214  N     0.95069   0.83335   0.75000   0.00000  Uiso   1.00
O1215  O     0.79375   0.89345   0.75001   0.00000  Uiso   1.00
O1216  O     0.91627   0.95760   0.69341   0.00000  Uiso   1.00
O1217  O     0.87294   0.89346   0.75001   0.00000  Uiso   1.00
O1218  O     0.77441   0.83332   0.82549   0.00000  Uiso   1.00
O1219  O     0.85360   0.83333   0.82549   0.00000  Uiso   1.00
O1220  O     0.79373   0.77321   0.75000   0.00000  Uiso   1.00
O1221  O     0.87292   0.77322   0.75000   0.00000  Uiso   1.00
O1222  O     0.81306   0.83334   0.67451   0.00000  Uiso   1.00
O1223  O     0.89225   0.83335   0.67451   0.00000  Uiso   1.00
O1224  O     0.68891   0.78588   0.50639   0.00000  Uiso   1.00
loop_
_geom_bond_atom_site_label_1
_geom_bond_atom_site_label_2
_geom_bond_distance
_geom_bond_site_symmetry_2
_ccdc_geom_bond_type
C1     O61     1.294   .     A
C1     O59     1.294   .     A
C1     C9      1.446   .     S
C2     C4      1.482   .     S
C2     C23     1.431   .     A
C2     C19     1.403   .     A
C3     C9      1.407   .     A
C3     O60     1.383   .     S
C3     C209    1.396   .     S
C4     O62     1.316   .     A
C4     O63     1.289   .     A
C5     C6      1.399   .     A
C5     H48     1.084   .     S
C5     C411    1.396   1_545 S
C6     C7      1.394   .     A
C6     C15     1.441   .     S
C7     H50     1.083   .     S
C7     C416    1.384   1_545 S
C8     H51     1.084   .     S
C8     C9      1.401   .     A
C8     C211    1.384   .     S
C10    H52     1.081   .     S
C10    N58     1.370   .     A
C10    C79     1.420   .     S
C11    N57     1.368   .     A
C11    H53     1.081   .     S
C11    C146    1.420   1_455 S
C12    C23     1.415   .     A
C12    C633    1.413   .     S
C12    C641    1.422   .     S
C13    C22     1.475   .     S
C13    N57     1.393   .     A
C13    C150    1.412   1_455 S
C14    H54     1.083   .     S
C14    N58     1.350   .     A
C14    C81     1.412   .     S
C15    O64     1.298   .     A
C15    O65     1.289   .     A
C16    O67     1.297   .     A
C16    O66     1.301   .     A
C16    C18     1.462   .     S
C17    C34     1.389   .     A
C17    C642    1.398   1_554 S
C17    H668    1.082   1_554 S
C18    C34     1.400   .     A
C18    C33     1.397   .     A
C19    C20     1.393   .     A
C19    H39     1.084   .     S
C20    C633    1.402   .     S
C20    O680    1.379   .     S
C21    H40     1.076   .     S
C21    C624    1.413   1_554 S
C21    C632    1.402   1_554 S
C22    C28     1.407   .     A
C22    C24     1.398   .     A
C23    C32     1.420   .     A
C24    C25     1.398   .     A
C24    H42     1.070   .     S
C25    C26     1.397   .     A
C25    H43     1.082   .     S
C26    C27     1.397   .     A
C26    H452    1.082   1_545 S
C27    C28     1.399   .     A
C27    H453    1.082   1_545 S
C28    H46     1.083   .     S
C29    C33     1.399   .     A
C29    C624    1.422   1_554 S
C29    C642    1.417   1_554 S
C30    C31     1.385   .     A
C30    C629    1.398   .     S
C30    C641    1.417   .     S
C31    C32     1.382   .     A
C31    H55     1.085   .     S
C32    H41     1.075   .     S
C33    H38     1.074   .     S
C34    H37     1.083   .     S
Cu35   N57     2.024   .     S
Cu35   O64     1.959   .     S
Cu35   O62     1.971   .     S
Cu35   O59     1.952   .     S
Cu35   O66     1.968   .     S
Cu35   Cu36    2.693   .     S
Cu36   O67     1.971   .     S
Cu36   N58     2.024   .     S
Cu36   O61     1.959   .     S
Cu36   O63     1.968   .     S
Cu36   O65     1.952   .     S
H44    C230    1.082   .     S
H45    C231    1.082   .     S
H47    O68     0.992   .     S
H49    O60     0.992   .     S
H56    C629    1.082   .     S
O68    C632    1.379   1_554 S
C69    O129    1.294   .     A
C69    O127    1.294   .     A
C69    C77     1.446   .     S
C70    C72     1.482   .     S
C70    C91     1.431   .     A
C70    C87     1.403   .     A
C71    C77     1.407   .     A
C71    O128    1.383   .     S
C71    C277    1.396   .     S
C72    O130    1.316   .     A
C72    O131    1.289   .     A
C73    C74     1.399   .     A
C73    H116    1.084   .     S
C73    C479    1.396   1_545 S
C74    C75     1.394   .     A
C74    C83     1.441   .     S
C75    H118    1.083   .     S
C75    C484    1.384   1_545 S
C76    H119    1.084   .     S
C76    C77     1.401   .     A
C76    C279    1.384   .     S
C78    H120    1.081   .     S
C78    N126    1.370   .     A
C78    C147    1.420   .     S
C79    N125    1.368   .     A
C79    H121    1.081   .     S
C80    C91     1.415   .     A
C80    C701    1.413   .     S
C80    C709    1.422   .     S
C81    C90     1.475   .     S
C81    N125    1.393   .     A
C82    H122    1.083   .     S
C82    N126    1.350   .     A
C82    C149    1.412   .     S
C83    O132    1.298   .     A
C83    O133    1.289   .     A
C84    O135    1.297   .     A
C84    O134    1.301   .     A
C84    C86     1.462   .     S
C85    C102    1.389   .     A
C85    C710    1.398   1_554 S
C85    H736    1.082   1_554 S
C86    C102    1.400   .     A
C86    C101    1.397   .     A
C87    C88     1.393   .     A
C87    H107    1.084   .     S
C88    C701    1.402   .     S
C88    O748    1.379   .     S
C89    H108    1.076   .     S
C89    C692    1.413   1_554 S
C89    C700    1.402   1_554 S
C90    C96     1.407   .     A
C90    C92     1.398   .     A
C91    C100    1.420   .     A
C92    C93     1.398   .     A
C92    H110    1.070   .     S
C93    C94     1.397   .     A
C93    H111    1.082   .     S
C94    C95     1.397   .     A
C94    H520    1.082   1_545 S
C95    C96     1.399   .     A
C95    H521    1.082   1_545 S
C96    H114    1.083   .     S
C97    C101    1.399   .     A
C97    C692    1.422   1_554 S
C97    C710    1.417   1_554 S
C98    C99     1.385   .     A
C98    C697    1.398   .     S
C98    C709    1.417   .     S
C99    C100    1.382   .     A
C99    H123    1.085   .     S
C100   H109    1.075   .     S
C101   H106    1.074   .     S
C102   H105    1.083   .     S
Cu103  N125    2.024   .     S
Cu103  O132    1.959   .     S
Cu103  O130    1.971   .     S
Cu103  O127    1.952   .     S
Cu103  O134    1.968   .     S
Cu103  Cu104   2.693   .     S
Cu104  O135    1.971   .     S
Cu104  N126    2.024   .     S
Cu104  O129    1.959   .     S
Cu104  O131    1.968   .     S
Cu104  O133    1.952   .     S
H112   C298    1.082   .     S
H113   C299    1.082   .     S
H115   O136    0.992   .     S
H117   O128    0.992   .     S
H124   C697    1.082   .     S
O136   C700    1.379   1_554 S
C137   O197    1.294   .     A
C137   O195    1.294   .     A
C137   C145    1.446   .     S
C138   C140    1.482   .     S
C138   C159    1.431   .     A
C138   C155    1.403   .     A
C139   C145    1.407   .     A
C139   O196    1.383   .     S
C139   C345    1.396   .     S
C140   O198    1.316   .     A
C140   O199    1.289   .     A
C141   C142    1.399   .     A
C141   H184    1.084   .     S
C141   C547    1.396   1_545 S
C142   C143    1.394   .     A
C142   C151    1.441   .     S
C143   H186    1.083   .     S
C143   C552    1.384   1_545 S
C144   H187    1.084   .     S
C144   C145    1.401   .     A
C144   C347    1.384   .     S
C146   H188    1.081   .     S
C146   N194    1.370   .     A
C146   C11     1.420   1_655 S
C147   N193    1.368   .     A
C147   H189    1.081   .     S
C148   C159    1.415   .     A
C148   C769    1.413   .     S
C148   C777    1.422   .     S
C149   C158    1.475   .     S
C149   N193    1.393   .     A
C150   H190    1.083   .     S
C150   N194    1.350   .     A
C150   C13     1.412   1_655 S
C151   O200    1.298   .     A
C151   O201    1.289   .     A
C152   O203    1.297   .     A
C152   O202    1.301   .     A
C152   C154    1.462   .     S
C153   C170    1.389   .     A
C153   C778    1.398   1_554 S
C153   H804    1.082   1_554 S
C154   C170    1.400   .     A
C154   C169    1.397   .     A
C155   C156    1.393   .     A
C155   H175    1.084   .     S
C156   C769    1.402   .     S
C156   O816    1.379   .     S
C157   H176    1.076   .     S
C157   C760    1.413   1_554 S
C157   C768    1.402   1_554 S
C158   C164    1.407   .     A
C158   C160    1.398   .     A
C159   C168    1.420   .     A
C160   C161    1.398   .     A
C160   H178    1.070   .     S
C161   C162    1.397   .     A
C161   H179    1.082   .     S
C162   C163    1.397   .     A
C162   H588    1.082   1_545 S
C163   C164    1.399   .     A
C163   H589    1.082   1_545 S
C164   H182    1.083   .     S
C165   C169    1.399   .     A
C165   C760    1.422   1_554 S
C165   C778    1.417   1_554 S
C166   C167    1.385   .     A
C166   C765    1.398   .     S
C166   C777    1.417   .     S
C167   C168    1.382   .     A
C167   H191    1.085   .     S
C168   H177    1.075   .     S
C169   H174    1.074   .     S
C170   H173    1.083   .     S
Cu171  N193    2.024   .     S
Cu171  O200    1.959   .     S
Cu171  O198    1.971   .     S
Cu171  O195    1.952   .     S
Cu171  O202    1.968   .     S
Cu171  Cu172   2.693   .     S
Cu172  O203    1.971   .     S
Cu172  N194    2.024   .     S
Cu172  O197    1.959   .     S
Cu172  O199    1.968   .     S
Cu172  O201    1.952   .     S
H180   C366    1.082   .     S
H181   C367    1.082   .     S
H183   O204    0.992   .     S
H185   O196    0.992   .     S
H192   C765    1.082   .     S
O204   C768    1.379   1_554 S
C205   O265    1.294   .     A
C205   O263    1.294   .     A
C205   C213    1.446   .     S
C206   C208    1.482   .     S
C206   C227    1.431   .     A
C206   C223    1.403   .     A
C207   C213    1.407   .     A
C207   O264    1.383   .     S
C207   C413    1.396   .     S
C208   O266    1.316   .     A
C208   O267    1.289   .     A
C209   C210    1.399   .     A
C209   H252    1.084   .     S
C210   C211    1.394   .     A
C210   C219    1.441   .     S
C211   H254    1.083   .     S
C212   H255    1.084   .     S
C212   C213    1.401   .     A
C212   C415    1.384   .     S
C214   H256    1.081   .     S
C214   N262    1.370   .     A
C214   C283    1.420   .     S
C215   N261    1.368   .     A
C215   H257    1.081   .     S
C215   C350    1.420   1_455 S
C216   C227    1.415   .     A
C216   C837    1.413   .     S
C216   C845    1.422   .     S
C217   C226    1.475   .     S
C217   N261    1.393   .     A
C217   C354    1.412   1_455 S
C218   H258    1.083   .     S
C218   N262    1.350   .     A
C218   C285    1.412   .     S
C219   O268    1.298   .     A
C219   O269    1.289   .     A
C220   O271    1.297   .     A
C220   O270    1.301   .     A
C220   C222    1.462   .     S
C221   C238    1.389   .     A
C221   C846    1.398   1_554 S
C221   H872    1.082   1_554 S
C222   C238    1.400   .     A
C222   C237    1.397   .     A
C223   C224    1.393   .     A
C223   H243    1.084   .     S
C224   C837    1.402   .     S
C224   O884    1.379   .     S
C225   H244    1.076   .     S
C225   C828    1.413   1_554 S
C225   C836    1.402   1_554 S
C226   C232    1.407   .     A
C226   C228    1.398   .     A
C227   C236    1.420   .     A
C228   C229    1.398   .     A
C228   H246    1.070   .     S
C229   C230    1.397   .     A
C229   H247    1.082   .     S
C230   C231    1.397   .     A
C231   C232    1.399   .     A
C232   H250    1.083   .     S
C233   C237    1.399   .     A
C233   C828    1.422   1_554 S
C233   C846    1.417   1_554 S
C234   C235    1.385   .     A
C234   C833    1.398   .     S
C234   C845    1.417   .     S
C235   C236    1.382   .     A
C235   H259    1.085   .     S
C236   H245    1.075   .     S
C237   H242    1.074   .     S
C238   H241    1.083   .     S
Cu239  N261    2.024   .     S
Cu239  O268    1.959   .     S
Cu239  O266    1.971   .     S
Cu239  O263    1.952   .     S
Cu239  O270    1.968   .     S
Cu239  Cu240   2.693   .     S
Cu240  O271    1.971   .     S
Cu240  N262    2.024   .     S
Cu240  O265    1.959   .     S
Cu240  O267    1.968   .     S
Cu240  O269    1.952   .     S
H248   C434    1.082   .     S
H249   C435    1.082   .     S
H251   O272    0.992   .     S
H253   O264    0.992   .     S
H260   C833    1.082   .     S
O272   C836    1.379   1_554 S
C273   O333    1.294   .     A
C273   O331    1.294   .     A
C273   C281    1.446   .     S
C274   C276    1.482   .     S
C274   C295    1.431   .     A
C274   C291    1.403   .     A
C275   C281    1.407   .     A
C275   O332    1.383   .     S
C275   C481    1.396   .     S
C276   O334    1.316   .     A
C276   O335    1.289   .     A
C277   C278    1.399   .     A
C277   H320    1.084   .     S
C278   C279    1.394   .     A
C278   C287    1.441   .     S
C279   H322    1.083   .     S
C280   H323    1.084   .     S
C280   C281    1.401   .     A
C280   C483    1.384   .     S
C282   H324    1.081   .     S
C282   N330    1.370   .     A
C282   C351    1.420   .     S
C283   N329    1.368   .     A
C283   H325    1.081   .     S
C284   C295    1.415   .     A
C284   C905    1.413   .     S
C284   C913    1.422   .     S
C285   C294    1.475   .     S
C285   N329    1.393   .     A
C286   H326    1.083   .     S
C286   N330    1.350   .     A
C286   C353    1.412   .     S
C287   O336    1.298   .     A
C287   O337    1.289   .     A
C288   O339    1.297   .     A
C288   O338    1.301   .     A
C288   C290    1.462   .     S
C289   C306    1.389   .     A
C289   C914    1.398   1_554 S
C289   H940    1.082   1_554 S
C290   C306    1.400   .     A
C290   C305    1.397   .     A
C291   C292    1.393   .     A
C291   H311    1.084   .     S
C292   C905    1.402   .     S
C292   O952    1.379   .     S
C293   H312    1.076   .     S
C293   C896    1.413   1_554 S
C293   C904    1.402   1_554 S
C294   C300    1.407   .     A
C294   C296    1.398   .     A
C295   C304    1.420   .     A
C296   C297    1.398   .     A
C296   H314    1.070   .     S
C297   C298    1.397   .     A
C297   H315    1.082   .     S
C298   C299    1.397   .     A
C299   C300    1.399   .     A
C300   H318    1.083   .     S
C301   C305    1.399   .     A
C301   C896    1.422   1_554 S
C301   C914    1.417   1_554 S
C302   C303    1.385   .     A
C302   C901    1.398   .     S
C302   C913    1.417   .     S
C303   C304    1.382   .     A
C303   H327    1.085   .     S
C304   H313    1.075   .     S
C305   H310    1.074   .     S
C306   H309    1.083   .     S
Cu307  N329    2.024   .     S
Cu307  O336    1.959   .     S
Cu307  O334    1.971   .     S
Cu307  O331    1.952   .     S
Cu307  O338    1.968   .     S
Cu307  Cu308   2.693   .     S
Cu308  O339    1.971   .     S
Cu308  N330    2.024   .     S
Cu308  O333    1.959   .     S
Cu308  O335    1.968   .     S
Cu308  O337    1.952   .     S
H316   C502    1.082   .     S
H317   C503    1.082   .     S
H319   O340    0.992   .     S
H321   O332    0.992   .     S
H328   C901    1.082   .     S
O340   C904    1.379   1_554 S
C341   O401    1.294   .     A
C341   O399    1.294   .     A
C341   C349    1.446   .     S
C342   C344    1.482   .     S
C342   C363    1.431   .     A
C342   C359    1.403   .     A
C343   C349    1.407   .     A
C343   O400    1.383   .     S
C343   C549    1.396   .     S
C344   O402    1.316   .     A
C344   O403    1.289   .     A
C345   C346    1.399   .     A
C345   H388    1.084   .     S
C346   C347    1.394   .     A
C346   C355    1.441   .     S
C347   H390    1.083   .     S
C348   H391    1.084   .     S
C348   C349    1.401   .     A
C348   C551    1.384   .     S
C350   H392    1.081   .     S
C350   N398    1.370   .     A
C350   C215    1.420   1_655 S
C351   N397    1.368   .     A
C351   H393    1.081   .     S
C352   C363    1.415   .     A
C352   C973    1.413   .     S
C352   C981    1.422   .     S
C353   C362    1.475   .     S
C353   N397    1.393   .     A
C354   H394    1.083   .     S
C354   N398    1.350   .     A
C354   C217    1.412   1_655 S
C355   O404    1.298   .     A
C355   O405    1.289   .     A
C356   O407    1.297   .     A
C356   O406    1.301   .     A
C356   C358    1.462   .     S
C357   C374    1.389   .     A
C357   C982    1.398   1_554 S
C357   H1008   1.082   1_554 S
C358   C374    1.400   .     A
C358   C373    1.397   .     A
C359   C360    1.393   .     A
C359   H379    1.084   .     S
C360   C973    1.402   .     S
C360   O1020   1.379   .     S
C361   H380    1.076   .     S
C361   C964    1.413   1_554 S
C361   C972    1.402   1_554 S
C362   C368    1.407   .     A
C362   C364    1.398   .     A
C363   C372    1.420   .     A
C364   C365    1.398   .     A
C364   H382    1.070   .     S
C365   C366    1.397   .     A
C365   H383    1.082   .     S
C366   C367    1.397   .     A
C367   C368    1.399   .     A
C368   H386    1.083   .     S
C369   C373    1.399   .     A
C369   C964    1.422   1_554 S
C369   C982    1.417   1_554 S
C370   C371    1.385   .     A
C370   C969    1.398   .     S
C370   C981    1.417   .     S
C371   C372    1.382   .     A
C371   H395    1.085   .     S
C372   H381    1.075   .     S
C373   H378    1.074   .     S
C374   H377    1.083   .     S
Cu375  N397    2.024   .     S
Cu375  O404    1.959   .     S
Cu375  O402    1.971   .     S
Cu375  O399    1.952   .     S
Cu375  O406    1.968   .     S
Cu375  Cu376   2.693   .     S
Cu376  O407    1.971   .     S
Cu376  N398    2.024   .     S
Cu376  O401    1.959   .     S
Cu376  O403    1.968   .     S
Cu376  O405    1.952   .     S
H384   C570    1.082   .     S
H385   C571    1.082   .     S
H387   O408    0.992   .     S
H389   O400    0.992   .     S
H396   C969    1.082   .     S
O408   C972    1.379   1_554 S
C409   O469    1.294   .     A
C409   O467    1.294   .     A
C409   C417    1.446   .     S
C410   C412    1.482   .     S
C410   C431    1.431   .     A
C410   C427    1.403   .     A
C411   C417    1.407   .     A
C411   O468    1.383   .     S
C411   C5      1.396   1_565 S
C412   O470    1.316   .     A
C412   O471    1.289   .     A
C413   C414    1.399   .     A
C413   H456    1.084   .     S
C414   C415    1.394   .     A
C414   C423    1.441   .     S
C415   H458    1.083   .     S
C416   H459    1.084   .     S
C416   C417    1.401   .     A
C416   C7      1.384   1_565 S
C418   H460    1.081   .     S
C418   N466    1.370   .     A
C418   C487    1.420   .     S
C419   N465    1.368   .     A
C419   H461    1.081   .     S
C419   C554    1.420   1_455 S
C420   C431    1.415   .     A
C420   C1041   1.413   .     S
C420   C1049   1.422   .     S
C421   C430    1.475   .     S
C421   N465    1.393   .     A
C421   C558    1.412   1_455 S
C422   H462    1.083   .     S
C422   N466    1.350   .     A
C422   C489    1.412   .     S
C423   O472    1.298   .     A
C423   O473    1.289   .     A
C424   O475    1.297   .     A
C424   O474    1.301   .     A
C424   C426    1.462   .     S
C425   C442    1.389   .     A
C425   C1050   1.398   1_554 S
C425   H1076   1.082   1_554 S
C426   C442    1.400   .     A
C426   C441    1.397   .     A
C427   C428    1.393   .     A
C427   H447    1.084   .     S
C428   C1041   1.402   .     S
C428   O1088   1.379   .     S
C429   H448    1.076   .     S
C429   C1032   1.413   1_554 S
C429   C1040   1.402   1_554 S
C430   C436    1.407   .     A
C430   C432    1.398   .     A
C431   C440    1.420   .     A
C432   C433    1.398   .     A
C432   H450    1.070   .     S
C433   C434    1.397   .     A
C433   H451    1.082   .     S
C434   C435    1.397   .     A
C435   C436    1.399   .     A
C436   H454    1.083   .     S
C437   C441    1.399   .     A
C437   C1032   1.422   1_554 S
C437   C1050   1.417   1_554 S
C438   C439    1.385   .     A
C438   C1037   1.398   .     S
C438   C1049   1.417   .     S
C439   C440    1.382   .     A
C439   H463    1.085   .     S
C440   H449    1.075   .     S
C441   H446    1.074   .     S
C442   H445    1.083   .     S
Cu443  N465    2.024   .     S
Cu443  O472    1.959   .     S
Cu443  O470    1.971   .     S
Cu443  O467    1.952   .     S
Cu443  O474    1.968   .     S
Cu443  Cu444   2.693   .     S
Cu444  O475    1.971   .     S
Cu444  N466    2.024   .     S
Cu444  O469    1.959   .     S
Cu444  O471    1.968   .     S
Cu444  O473    1.952   .     S
H452   C26     1.082   1_565 S
H453   C27     1.082   1_565 S
H455   O476    0.992   .     S
H457   O468    0.992   .     S
H464   C1037   1.082   .     S
O476   C1040   1.379   1_554 S
C477   O537    1.294   .     A
C477   O535    1.294   .     A
C477   C485    1.446   .     S
C478   C480    1.482   .     S
C478   C499    1.431   .     A
C478   C495    1.403   .     A
C479   C485    1.407   .     A
C479   O536    1.383   .     S
C479   C73     1.396   1_565 S
C480   O538    1.316   .     A
C480   O539    1.289   .     A
C481   C482    1.399   .     A
C481   H524    1.084   .     S
C482   C483    1.394   .     A
C482   C491    1.441   .     S
C483   H526    1.083   .     S
C484   H527    1.084   .     S
C484   C485    1.401   .     A
C484   C75     1.384   1_565 S
C486   H528    1.081   .     S
C486   N534    1.370   .     A
C486   C555    1.420   .     S
C487   N533    1.368   .     A
C487   H529    1.081   .     S
C488   C499    1.415   .     A
C488   C1109   1.413   .     S
C488   C1117   1.422   .     S
C489   C498    1.475   .     S
C489   N533    1.393   .     A
C490   H530    1.083   .     S
C490   N534    1.350   .     A
C490   C557    1.412   .     S
C491   O540    1.298   .     A
C491   O541    1.289   .     A
C492   O543    1.297   .     A
C492   O542    1.301   .     A
C492   C494    1.462   .     S
C493   C510    1.389   .     A
C493   C1118   1.398   1_554 S
C493   H1144   1.082   1_554 S
C494   C510    1.400   .     A
C494   C509    1.397   .     A
C495   C496    1.393   .     A
C495   H515    1.084   .     S
C496   C1109   1.402   .     S
C496   O1156   1.379   .     S
C497   H516    1.076   .     S
C497   C1100   1.413   1_554 S
C497   C1108   1.402   1_554 S
C498   C504    1.407   .     A
C498   C500    1.398   .     A
C499   C508    1.420   .     A
C500   C501    1.398   .     A
C500   H518    1.070   .     S
C501   C502    1.397   .     A
C501   H519    1.082   .     S
C502   C503    1.397   .     A
C503   C504    1.399   .     A
C504   H522    1.083   .     S
C505   C509    1.399   .     A
C505   C1100   1.422   1_554 S
C505   C1118   1.417   1_554 S
C506   C507    1.385   .     A
C506   C1105   1.398   .     S
C506   C1117   1.417   .     S
C507   C508    1.382   .     A
C507   H531    1.085   .     S
C508   H517    1.075   .     S
C509   H514    1.074   .     S
C510   H513    1.083   .     S
Cu511  N533    2.024   .     S
Cu511  O540    1.959   .     S
Cu511  O538    1.971   .     S
Cu511  O535    1.952   .     S
Cu511  O542    1.968   .     S
Cu511  Cu512   2.693   .     S
Cu512  O543    1.971   .     S
Cu512  N534    2.024   .     S
Cu512  O537    1.959   .     S
Cu512  O539    1.968   .     S
Cu512  O541    1.952   .     S
H520   C94     1.082   1_565 S
H521   C95     1.082   1_565 S
H523   O544    0.992   .     S
H525   O536    0.992   .     S
H532   C1105   1.082   .     S
O544   C1108   1.379   1_554 S
C545   O605    1.294   .     A
C545   O603    1.294   .     A
C545   C553    1.446   .     S
C546   C548    1.482   .     S
C546   C567    1.431   .     A
C546   C563    1.403   .     A
C547   C553    1.407   .     A
C547   O604    1.383   .     S
C547   C141    1.396   1_565 S
C548   O606    1.316   .     A
C548   O607    1.289   .     A
C549   C550    1.399   .     A
C549   H592    1.084   .     S
C550   C551    1.394   .     A
C550   C559    1.441   .     S
C551   H594    1.083   .     S
C552   H595    1.084   .     S
C552   C553    1.401   .     A
C552   C143    1.384   1_565 S
C554   H596    1.081   .     S
C554   N602    1.370   .     A
C554   C419    1.420   1_655 S
C555   N601    1.368   .     A
C555   H597    1.081   .     S
C556   C567    1.415   .     A
C556   C1177   1.413   .     S
C556   C1185   1.422   .     S
C557   C566    1.475   .     S
C557   N601    1.393   .     A
C558   H598    1.083   .     S
C558   N602    1.350   .     A
C558   C421    1.412   1_655 S
C559   O608    1.298   .     A
C559   O609    1.289   .     A
C560   O611    1.297   .     A
C560   O610    1.301   .     A
C560   C562    1.462   .     S
C561   C578    1.389   .     A
C561   C1186   1.398   1_554 S
C561   H1212   1.082   1_554 S
C562   C578    1.400   .     A
C562   C577    1.397   .     A
C563   C564    1.393   .     A
C563   H583    1.084   .     S
C564   C1177   1.402   .     S
C564   O1224   1.379   .     S
C565   H584    1.076   .     S
C565   C1168   1.413   1_554 S
C565   C1176   1.402   1_554 S
C566   C572    1.407   .     A
C566   C568    1.398   .     A
C567   C576    1.420   .     A
C568   C569    1.398   .     A
C568   H586    1.070   .     S
C569   C570    1.397   .     A
C569   H587    1.082   .     S
C570   C571    1.397   .     A
C571   C572    1.399   .     A
C572   H590    1.083   .     S
C573   C577    1.399   .     A
C573   C1168   1.422   1_554 S
C573   C1186   1.417   1_554 S
C574   C575    1.385   .     A
C574   C1173   1.398   .     S
C574   C1185   1.417   .     S
C575   C576    1.382   .     A
C575   H599    1.085   .     S
C576   H585    1.075   .     S
C577   H582    1.074   .     S
C578   H581    1.083   .     S
Cu579  N601    2.024   .     S
Cu579  O608    1.959   .     S
Cu579  O606    1.971   .     S
Cu579  O603    1.952   .     S
Cu579  O610    1.968   .     S
Cu579  Cu580   2.693   .     S
Cu580  O611    1.971   .     S
Cu580  N602    2.024   .     S
Cu580  O605    1.959   .     S
Cu580  O607    1.968   .     S
Cu580  O609    1.952   .     S
H588   C162    1.082   1_565 S
H589   C163    1.082   1_565 S
H591   O612    0.992   .     S
H593   O604    0.992   .     S
H600   C1173   1.082   .     S
O612   C1176   1.379   1_554 S
C613   O673    1.294   .     A
C613   O671    1.294   .     A
C613   C621    1.446   .     S
C614   C616    1.482   .     S
C614   C635    1.431   .     A
C614   C631    1.403   .     A
C615   C621    1.407   .     A
C615   O672    1.383   .     S
C615   C821    1.396   .     S
C616   O674    1.316   .     A
C616   O675    1.289   .     A
C617   C618    1.399   .     A
C617   H660    1.084   .     S
C617   C1023   1.396   1_545 S
C618   C619    1.394   .     A
C618   C627    1.441   .     S
C619   H662    1.083   .     S
C619   C1028   1.384   1_545 S
C620   H663    1.084   .     S
C620   C621    1.401   .     A
C620   C823    1.384   .     S
C622   H664    1.081   .     S
C622   N670    1.370   .     A
C622   C691    1.420   .     S
C623   N669    1.368   .     A
C623   H665    1.081   .     S
C623   C758    1.420   1_455 S
C624   C635    1.415   .     A
C624   C21     1.413   1_556 S
C624   C29     1.422   1_556 S
C625   C634    1.475   .     S
C625   N669    1.393   .     A
C625   C762    1.412   1_455 S
C626   H666    1.083   .     S
C626   N670    1.350   .     A
C626   C693    1.412   .     S
C627   O676    1.298   .     A
C627   O677    1.289   .     A
C628   O679    1.297   .     A
C628   O678    1.301   .     A
C628   C630    1.462   .     S
C629   C646    1.389   .     A
C630   C646    1.400   .     A
C630   C645    1.397   .     A
C631   C632    1.393   .     A
C631   H651    1.084   .     S
C632   C21     1.402   1_556 S
C632   O68     1.379   1_556 S
C633   H652    1.076   .     S
C634   C640    1.407   .     A
C634   C636    1.398   .     A
C635   C644    1.420   .     A
C636   C637    1.398   .     A
C636   H654    1.070   .     S
C637   C638    1.397   .     A
C637   H655    1.082   .     S
C638   C639    1.397   .     A
C638   H1064   1.082   1_545 S
C639   C640    1.399   .     A
C639   H1065   1.082   1_545 S
C640   H658    1.083   .     S
C641   C645    1.399   .     A
C642   C643    1.385   .     A
C642   C17     1.398   1_556 S
C642   C29     1.417   1_556 S
C643   C644    1.382   .     A
C643   H667    1.085   .     S
C644   H653    1.075   .     S
C645   H650    1.074   .     S
C646   H649    1.083   .     S
Cu647  N669    2.024   .     S
Cu647  O676    1.959   .     S
Cu647  O674    1.971   .     S
Cu647  O671    1.952   .     S
Cu647  O678    1.968   .     S
Cu647  Cu648   2.693   .     S
Cu648  O679    1.971   .     S
Cu648  N670    2.024   .     S
Cu648  O673    1.959   .     S
Cu648  O675    1.968   .     S
Cu648  O677    1.952   .     S
H656   C842    1.082   .     S
H657   C843    1.082   .     S
H659   O680    0.992   .     S
H661   O672    0.992   .     S
H668   C17     1.082   1_556 S
C681   O741    1.294   .     A
C681   O739    1.294   .     A
C681   C689    1.446   .     S
C682   C684    1.482   .     S
C682   C703    1.431   .     A
C682   C699    1.403   .     A
C683   C689    1.407   .     A
C683   O740    1.383   .     S
C683   C889    1.396   .     S
C684   O742    1.316   .     A
C684   O743    1.289   .     A
C685   C686    1.399   .     A
C685   H728    1.084   .     S
C685   C1091   1.396   1_545 S
C686   C687    1.394   .     A
C686   C695    1.441   .     S
C687   H730    1.083   .     S
C687   C1096   1.384   1_545 S
C688   H731    1.084   .     S
C688   C689    1.401   .     A
C688   C891    1.384   .     S
C690   H732    1.081   .     S
C690   N738    1.370   .     A
C690   C759    1.420   .     S
C691   N737    1.368   .     A
C691   H733    1.081   .     S
C692   C703    1.415   .     A
C692   C89     1.413   1_556 S
C692   C97     1.422   1_556 S
C693   C702    1.475   .     S
C693   N737    1.393   .     A
C694   H734    1.083   .     S
C694   N738    1.350   .     A
C694   C761    1.412   .     S
C695   O744    1.298   .     A
C695   O745    1.289   .     A
C696   O747    1.297   .     A
C696   O746    1.301   .     A
C696   C698    1.462   .     S
C697   C714    1.389   .     A
C698   C714    1.400   .     A
C698   C713    1.397   .     A
C699   C700    1.393   .     A
C699   H719    1.084   .     S
C700   C89     1.402   1_556 S
C700   O136    1.379   1_556 S
C701   H720    1.076   .     S
C702   C708    1.407   .     A
C702   C704    1.398   .     A
C703   C712    1.420   .     A
C704   C705    1.398   .     A
C704   H722    1.070   .     S
C705   C706    1.397   .     A
C705   H723    1.082   .     S
C706   C707    1.397   .     A
C706   H1132   1.082   1_545 S
C707   C708    1.399   .     A
C707   H1133   1.082   1_545 S
C708   H726    1.083   .     S
C709   C713    1.399   .     A
C710   C711    1.385   .     A
C710   C85     1.398   1_556 S
C710   C97     1.417   1_556 S
C711   C712    1.382   .     A
C711   H735    1.085   .     S
C712   H721    1.075   .     S
C713   H718    1.074   .     S
C714   H717    1.083   .     S
Cu715  N737    2.024   .     S
Cu715  O744    1.959   .     S
Cu715  O742    1.971   .     S
Cu715  O739    1.952   .     S
Cu715  O746    1.968   .     S
Cu715  Cu716   2.693   .     S
Cu716  O747    1.971   .     S
Cu716  N738    2.024   .     S
Cu716  O741    1.959   .     S
Cu716  O743    1.968   .     S
Cu716  O745    1.952   .     S
H724   C910    1.082   .     S
H725   C911    1.082   .     S
H727   O748    0.992   .     S
H729   O740    0.992   .     S
H736   C85     1.082   1_556 S
C749   O809    1.294   .     A
C749   O807    1.294   .     A
C749   C757    1.446   .     S
C750   C752    1.482   .     S
C750   C771    1.431   .     A
C750   C767    1.403   .     A
C751   C757    1.407   .     A
C751   O808    1.383   .     S
C751   C957    1.396   .     S
C752   O810    1.316   .     A
C752   O811    1.289   .     A
C753   C754    1.399   .     A
C753   H796    1.084   .     S
C753   C1159   1.396   1_545 S
C754   C755    1.394   .     A
C754   C763    1.441   .     S
C755   H798    1.083   .     S
C755   C1164   1.384   1_545 S
C756   H799    1.084   .     S
C756   C757    1.401   .     A
C756   C959    1.384   .     S
C758   H800    1.081   .     S
C758   N806    1.370   .     A
C758   C623    1.420   1_655 S
C759   N805    1.368   .     A
C759   H801    1.081   .     S
C760   C771    1.415   .     A
C760   C157    1.413   1_556 S
C760   C165    1.422   1_556 S
C761   C770    1.475   .     S
C761   N805    1.393   .     A
C762   H802    1.083   .     S
C762   N806    1.350   .     A
C762   C625    1.412   1_655 S
C763   O812    1.298   .     A
C763   O813    1.289   .     A
C764   O815    1.297   .     A
C764   O814    1.301   .     A
C764   C766    1.462   .     S
C765   C782    1.389   .     A
C766   C782    1.400   .     A
C766   C781    1.397   .     A
C767   C768    1.393   .     A
C767   H787    1.084   .     S
C768   C157    1.402   1_556 S
C768   O204    1.379   1_556 S
C769   H788    1.076   .     S
C770   C776    1.407   .     A
C770   C772    1.398   .     A
C771   C780    1.420   .     A
C772   C773    1.398   .     A
C772   H790    1.070   .     S
C773   C774    1.397   .     A
C773   H791    1.082   .     S
C774   C775    1.397   .     A
C774   H1200   1.082   1_545 S
C775   C776    1.399   .     A
C775   H1201   1.082   1_545 S
C776   H794    1.083   .     S
C777   C781    1.399   .     A
C778   C779    1.385   .     A
C778   C153    1.398   1_556 S
C778   C165    1.417   1_556 S
C779   C780    1.382   .     A
C779   H803    1.085   .     S
C780   H789    1.075   .     S
C781   H786    1.074   .     S
C782   H785    1.083   .     S
Cu783  N805    2.024   .     S
Cu783  O812    1.959   .     S
Cu783  O810    1.971   .     S
Cu783  O807    1.952   .     S
Cu783  O814    1.968   .     S
Cu783  Cu784   2.693   .     S
Cu784  O815    1.971   .     S
Cu784  N806    2.024   .     S
Cu784  O809    1.959   .     S
Cu784  O811    1.968   .     S
Cu784  O813    1.952   .     S
H792   C978    1.082   .     S
H793   C979    1.082   .     S
H795   O816    0.992   .     S
H797   O808    0.992   .     S
H804   C153    1.082   1_556 S
C817   O877    1.294   .     A
C817   O875    1.294   .     A
C817   C825    1.446   .     S
C818   C820    1.482   .     S
C818   C839    1.431   .     A
C818   C835    1.403   .     A
C819   C825    1.407   .     A
C819   O876    1.383   .     S
C819   C1025   1.396   .     S
C820   O878    1.316   .     A
C820   O879    1.289   .     A
C821   C822    1.399   .     A
C821   H864    1.084   .     S
C822   C823    1.394   .     A
C822   C831    1.441   .     S
C823   H866    1.083   .     S
C824   H867    1.084   .     S
C824   C825    1.401   .     A
C824   C1027   1.384   .     S
C826   H868    1.081   .     S
C826   N874    1.370   .     A
C826   C895    1.420   .     S
C827   N873    1.368   .     A
C827   H869    1.081   .     S
C827   C962    1.420   1_455 S
C828   C839    1.415   .     A
C828   C225    1.413   1_556 S
C828   C233    1.422   1_556 S
C829   C838    1.475   .     S
C829   N873    1.393   .     A
C829   C966    1.412   1_455 S
C830   H870    1.083   .     S
C830   N874    1.350   .     A
C830   C897    1.412   .     S
C831   O880    1.298   .     A
C831   O881    1.289   .     A
C832   O883    1.297   .     A
C832   O882    1.301   .     A
C832   C834    1.462   .     S
C833   C850    1.389   .     A
C834   C850    1.400   .     A
C834   C849    1.397   .     A
C835   C836    1.393   .     A
C835   H855    1.084   .     S
C836   C225    1.402   1_556 S
C836   O272    1.379   1_556 S
C837   H856    1.076   .     S
C838   C844    1.407   .     A
C838   C840    1.398   .     A
C839   C848    1.420   .     A
C840   C841    1.398   .     A
C840   H858    1.070   .     S
C841   C842    1.397   .     A
C841   H859    1.082   .     S
C842   C843    1.397   .     A
C843   C844    1.399   .     A
C844   H862    1.083   .     S
C845   C849    1.399   .     A
C846   C847    1.385   .     A
C846   C221    1.398   1_556 S
C846   C233    1.417   1_556 S
C847   C848    1.382   .     A
C847   H871    1.085   .     S
C848   H857    1.075   .     S
C849   H854    1.074   .     S
C850   H853    1.083   .     S
Cu851  N873    2.024   .     S
Cu851  O880    1.959   .     S
Cu851  O878    1.971   .     S
Cu851  O875    1.952   .     S
Cu851  O882    1.968   .     S
Cu851  Cu852   2.693   .     S
Cu852  O883    1.971   .     S
Cu852  N874    2.024   .     S
Cu852  O877    1.959   .     S
Cu852  O879    1.968   .     S
Cu852  O881    1.952   .     S
H860   C1046   1.082   .     S
H861   C1047   1.082   .     S
H863   O884    0.992   .     S
H865   O876    0.992   .     S
H872   C221    1.082   1_556 S
C885   O945    1.294   .     A
C885   O943    1.294   .     A
C885   C893    1.446   .     S
C886   C888    1.482   .     S
C886   C907    1.431   .     A
C886   C903    1.403   .     A
C887   C893    1.407   .     A
C887   O944    1.383   .     S
C887   C1093   1.396   .     S
C888   O946    1.316   .     A
C888   O947    1.289   .     A
C889   C890    1.399   .     A
C889   H932    1.084   .     S
C890   C891    1.394   .     A
C890   C899    1.441   .     S
C891   H934    1.083   .     S
C892   H935    1.084   .     S
C892   C893    1.401   .     A
C892   C1095   1.384   .     S
C894   H936    1.081   .     S
C894   N942    1.370   .     A
C894   C963    1.420   .     S
C895   N941    1.368   .     A
C895   H937    1.081   .     S
C896   C907    1.415   .     A
C896   C293    1.413   1_556 S
C896   C301    1.422   1_556 S
C897   C906    1.475   .     S
C897   N941    1.393   .     A
C898   H938    1.083   .     S
C898   N942    1.350   .     A
C898   C965    1.412   .     S
C899   O948    1.298   .     A
C899   O949    1.289   .     A
C900   O951    1.297   .     A
C900   O950    1.301   .     A
C900   C902    1.462   .     S
C901   C918    1.389   .     A
C902   C918    1.400   .     A
C902   C917    1.397   .     A
C903   C904    1.393   .     A
C903   H923    1.084   .     S
C904   C293    1.402   1_556 S
C904   O340    1.379   1_556 S
C905   H924    1.076   .     S
C906   C912    1.407   .     A
C906   C908    1.398   .     A
C907   C916    1.420   .     A
C908   C909    1.398   .     A
C908   H926    1.070   .     S
C909   C910    1.397   .     A
C909   H927    1.082   .     S
C910   C911    1.397   .     A
C911   C912    1.399   .     A
C912   H930    1.083   .     S
C913   C917    1.399   .     A
C914   C915    1.385   .     A
C914   C289    1.398   1_556 S
C914   C301    1.417   1_556 S
C915   C916    1.382   .     A
C915   H939    1.085   .     S
C916   H925    1.075   .     S
C917   H922    1.074   .     S
C918   H921    1.083   .     S
Cu919  N941    2.024   .     S
Cu919  O948    1.959   .     S
Cu919  O946    1.971   .     S
Cu919  O943    1.952   .     S
Cu919  O950    1.968   .     S
Cu919  Cu920   2.693   .     S
Cu920  O951    1.971   .     S
Cu920  N942    2.024   .     S
Cu920  O945    1.959   .     S
Cu920  O947    1.968   .     S
Cu920  O949    1.952   .     S
H928   C1114   1.082   .     S
H929   C1115   1.082   .     S
H931   O952    0.992   .     S
H933   O944    0.992   .     S
H940   C289    1.082   1_556 S
C953   O1013   1.294   .     A
C953   O1011   1.294   .     A
C953   C961    1.446   .     S
C954   C956    1.482   .     S
C954   C975    1.431   .     A
C954   C971    1.403   .     A
C955   C961    1.407   .     A
C955   O1012   1.383   .     S
C955   C1161   1.396   .     S
C956   O1014   1.316   .     A
C956   O1015   1.289   .     A
C957   C958    1.399   .     A
C957   H1000   1.084   .     S
C958   C959    1.394   .     A
C958   C967    1.441   .     S
C959   H1002   1.083   .     S
C960   H1003   1.084   .     S
C960   C961    1.401   .     A
C960   C1163   1.384   .     S
C962   H1004   1.081   .     S
C962   N1010   1.370   .     A
C962   C827    1.420   1_655 S
C963   N1009   1.368   .     A
C963   H1005   1.081   .     S
C964   C975    1.415   .     A
C964   C361    1.413   1_556 S
C964   C369    1.422   1_556 S
C965   C974    1.475   .     S
C965   N1009   1.393   .     A
C966   H1006   1.083   .     S
C966   N1010   1.350   .     A
C966   C829    1.412   1_655 S
C967   O1016   1.298   .     A
C967   O1017   1.289   .     A
C968   O1019   1.297   .     A
C968   O1018   1.301   .     A
C968   C970    1.462   .     S
C969   C986    1.389   .     A
C970   C986    1.400   .     A
C970   C985    1.397   .     A
C971   C972    1.393   .     A
C971   H991    1.084   .     S
C972   C361    1.402   1_556 S
C972   O408    1.379   1_556 S
C973   H992    1.076   .     S
C974   C980    1.407   .     A
C974   C976    1.398   .     A
C975   C984    1.420   .     A
C976   C977    1.398   .     A
C976   H994    1.070   .     S
C977   C978    1.397   .     A
C977   H995    1.082   .     S
C978   C979    1.397   .     A
C979   C980    1.399   .     A
C980   H998    1.083   .     S
C981   C985    1.399   .     A
C982   C983    1.385   .     A
C982   C357    1.398   1_556 S
C982   C369    1.417   1_556 S
C983   C984    1.382   .     A
C983   H1007   1.085   .     S
C984   H993    1.075   .     S
C985   H990    1.074   .     S
C986   H989    1.083   .     S
Cu987  N1009   2.024   .     S
Cu987  O1016   1.959   .     S
Cu987  O1014   1.971   .     S
Cu987  O1011   1.952   .     S
Cu987  O1018   1.968   .     S
Cu987  Cu988   2.693   .     S
Cu988  O1019   1.971   .     S
Cu988  N1010   2.024   .     S
Cu988  O1013   1.959   .     S
Cu988  O1015   1.968   .     S
Cu988  O1017   1.952   .     S
H996   C1182   1.082   .     S
H997   C1183   1.082   .     S
H999   O1020   0.992   .     S
H1001  O1012   0.992   .     S
H1008  C357    1.082   1_556 S
C1021  O1081   1.294   .     A
C1021  O1079   1.294   .     A
C1021  C1029   1.446   .     S
C1022  C1024   1.482   .     S
C1022  C1043   1.431   .     A
C1022  C1039   1.403   .     A
C1023  C1029   1.407   .     A
C1023  O1080   1.383   .     S
C1023  C617    1.396   1_565 S
C1024  O1082   1.316   .     A
C1024  O1083   1.289   .     A
C1025  C1026   1.399   .     A
C1025  H1068   1.084   .     S
C1026  C1027   1.394   .     A
C1026  C1035   1.441   .     S
C1027  H1070   1.083   .     S
C1028  H1071   1.084   .     S
C1028  C1029   1.401   .     A
C1028  C619    1.384   1_565 S
C1030  H1072   1.081   .     S
C1030  N1078   1.370   .     A
C1030  C1099   1.420   .     S
C1031  N1077   1.368   .     A
C1031  H1073   1.081   .     S
C1031  C1166   1.420   1_455 S
C1032  C1043   1.415   .     A
C1032  C429    1.413   1_556 S
C1032  C437    1.422   1_556 S
C1033  C1042   1.475   .     S
C1033  N1077   1.393   .     A
C1033  C1170   1.412   1_455 S
C1034  H1074   1.083   .     S
C1034  N1078   1.350   .     A
C1034  C1101   1.412   .     S
C1035  O1084   1.298   .     A
C1035  O1085   1.289   .     A
C1036  O1087   1.297   .     A
C1036  O1086   1.301   .     A
C1036  C1038   1.462   .     S
C1037  C1054   1.389   .     A
C1038  C1054   1.400   .     A
C1038  C1053   1.397   .     A
C1039  C1040   1.393   .     A
C1039  H1059   1.084   .     S
C1040  C429    1.402   1_556 S
C1040  O476    1.379   1_556 S
C1041  H1060   1.076   .     S
C1042  C1048   1.407   .     A
C1042  C1044   1.398   .     A
C1043  C1052   1.420   .     A
C1044  C1045   1.398   .     A
C1044  H1062   1.070   .     S
C1045  C1046   1.397   .     A
C1045  H1063   1.082   .     S
C1046  C1047   1.397   .     A
C1047  C1048   1.399   .     A
C1048  H1066   1.083   .     S
C1049  C1053   1.399   .     A
C1050  C1051   1.385   .     A
C1050  C425    1.398   1_556 S
C1050  C437    1.417   1_556 S
C1051  C1052   1.382   .     A
C1051  H1075   1.085   .     S
C1052  H1061   1.075   .     S
C1053  H1058   1.074   .     S
C1054  H1057   1.083   .     S
Cu1055 N1077   2.024   .     S
Cu1055 O1084   1.959   .     S
Cu1055 O1082   1.971   .     S
Cu1055 O1079   1.952   .     S
Cu1055 O1086   1.968   .     S
Cu1055 Cu1056  2.693   .     S
Cu1056 O1087   1.971   .     S
Cu1056 N1078   2.024   .     S
Cu1056 O1081   1.959   .     S
Cu1056 O1083   1.968   .     S
Cu1056 O1085   1.952   .     S
H1064  C638    1.082   1_565 S
H1065  C639    1.082   1_565 S
H1067  O1088   0.992   .     S
H1069  O1080   0.992   .     S
H1076  C425    1.082   1_556 S
C1089  O1149   1.294   .     A
C1089  O1147   1.294   .     A
C1089  C1097   1.446   .     S
C1090  C1092   1.482   .     S
C1090  C1111   1.431   .     A
C1090  C1107   1.403   .     A
C1091  C1097   1.407   .     A
C1091  O1148   1.383   .     S
C1091  C685    1.396   1_565 S
C1092  O1150   1.316   .     A
C1092  O1151   1.289   .     A
C1093  C1094   1.399   .     A
C1093  H1136   1.084   .     S
C1094  C1095   1.394   .     A
C1094  C1103   1.441   .     S
C1095  H1138   1.083   .     S
C1096  H1139   1.084   .     S
C1096  C1097   1.401   .     A
C1096  C687    1.384   1_565 S
C1098  H1140   1.081   .     S
C1098  N1146   1.370   .     A
C1098  C1167   1.420   .     S
C1099  N1145   1.368   .     A
C1099  H1141   1.081   .     S
C1100  C1111   1.415   .     A
C1100  C497    1.413   1_556 S
C1100  C505    1.422   1_556 S
C1101  C1110   1.475   .     S
C1101  N1145   1.393   .     A
C1102  H1142   1.083   .     S
C1102  N1146   1.350   .     A
C1102  C1169   1.412   .     S
C1103  O1152   1.298   .     A
C1103  O1153   1.289   .     A
C1104  O1155   1.297   .     A
C1104  O1154   1.301   .     A
C1104  C1106   1.462   .     S
C1105  C1122   1.389   .     A
C1106  C1122   1.400   .     A
C1106  C1121   1.397   .     A
C1107  C1108   1.393   .     A
C1107  H1127   1.084   .     S
C1108  C497    1.402   1_556 S
C1108  O544    1.379   1_556 S
C1109  H1128   1.076   .     S
C1110  C1116   1.407   .     A
C1110  C1112   1.398   .     A
C1111  C1120   1.420   .     A
C1112  C1113   1.398   .     A
C1112  H1130   1.070   .     S
C1113  C1114   1.397   .     A
C1113  H1131   1.082   .     S
C1114  C1115   1.397   .     A
C1115  C1116   1.399   .     A
C1116  H1134   1.083   .     S
C1117  C1121   1.399   .     A
C1118  C1119   1.385   .     A
C1118  C493    1.398   1_556 S
C1118  C505    1.417   1_556 S
C1119  C1120   1.382   .     A
C1119  H1143   1.085   .     S
C1120  H1129   1.075   .     S
C1121  H1126   1.074   .     S
C1122  H1125   1.083   .     S
Cu1123 N1145   2.024   .     S
Cu1123 O1152   1.959   .     S
Cu1123 O1150   1.971   .     S
Cu1123 O1147   1.952   .     S
Cu1123 O1154   1.968   .     S
Cu1123 Cu1124  2.693   .     S
Cu1124 O1155   1.971   .     S
Cu1124 N1146   2.024   .     S
Cu1124 O1149   1.959   .     S
Cu1124 O1151   1.968   .     S
Cu1124 O1153   1.952   .     S
H1132  C706    1.082   1_565 S
H1133  C707    1.082   1_565 S
H1135  O1156   0.992   .     S
H1137  O1148   0.992   .     S
H1144  C493    1.082   1_556 S
C1157  O1217   1.294   .     A
C1157  O1215   1.294   .     A
C1157  C1165   1.446   .     S
C1158  C1160   1.482   .     S
C1158  C1179   1.431   .     A
C1158  C1175   1.403   .     A
C1159  C1165   1.407   .     A
C1159  O1216   1.383   .     S
C1159  C753    1.396   1_565 S
C1160  O1218   1.316   .     A
C1160  O1219   1.289   .     A
C1161  C1162   1.399   .     A
C1161  H1204   1.084   .     S
C1162  C1163   1.394   .     A
C1162  C1171   1.441   .     S
C1163  H1206   1.083   .     S
C1164  H1207   1.084   .     S
C1164  C1165   1.401   .     A
C1164  C755    1.384   1_565 S
C1166  H1208   1.081   .     S
C1166  N1214   1.370   .     A
C1166  C1031   1.420   1_655 S
C1167  N1213   1.368   .     A
C1167  H1209   1.081   .     S
C1168  C1179   1.415   .     A
C1168  C565    1.413   1_556 S
C1168  C573    1.422   1_556 S
C1169  C1178   1.475   .     S
C1169  N1213   1.393   .     A
C1170  H1210   1.083   .     S
C1170  N1214   1.350   .     A
C1170  C1033   1.412   1_655 S
C1171  O1220   1.298   .     A
C1171  O1221   1.289   .     A
C1172  O1223   1.297   .     A
C1172  O1222   1.301   .     A
C1172  C1174   1.462   .     S
C1173  C1190   1.389   .     A
C1174  C1190   1.400   .     A
C1174  C1189   1.397   .     A
C1175  C1176   1.393   .     A
C1175  H1195   1.084   .     S
C1176  C565    1.402   1_556 S
C1176  O612    1.379   1_556 S
C1177  H1196   1.076   .     S
C1178  C1184   1.407   .     A
C1178  C1180   1.398   .     A
C1179  C1188   1.420   .     A
C1180  C1181   1.398   .     A
C1180  H1198   1.070   .     S
C1181  C1182   1.397   .     A
C1181  H1199   1.082   .     S
C1182  C1183   1.397   .     A
C1183  C1184   1.399   .     A
C1184  H1202   1.083   .     S
C1185  C1189   1.399   .     A
C1186  C1187   1.385   .     A
C1186  C561    1.398   1_556 S
C1186  C573    1.417   1_556 S
C1187  C1188   1.382   .     A
C1187  H1211   1.085   .     S
C1188  H1197   1.075   .     S
C1189  H1194   1.074   .     S
C1190  H1193   1.083   .     S
Cu1191 N1213   2.024   .     S
Cu1191 O1220   1.959   .     S
Cu1191 O1218   1.971   .     S
Cu1191 O1215   1.952   .     S
Cu1191 O1222   1.968   .     S
Cu1191 Cu1192  2.693   .     S
Cu1192 O1223   1.971   .     S
Cu1192 N1214   2.024   .     S
Cu1192 O1217   1.959   .     S
Cu1192 O1219   1.968   .     S
Cu1192 O1221   1.952   .     S
H1200  C774    1.082   1_565 S
H1201  C775    1.082   1_565 S
H1203  O1224   0.992   .     S
H1205  O1216   0.992   .     S
H1212  C561    1.082   1_556 S
