data_str_m2_o1_o18_pcu_sym.202
_audit_creation_date              2020-01-03
_audit_creation_method            'Materials Studio'
_symmetry_space_group_name_H-M    'P1'
_symmetry_Int_Tables_number       1
_symmetry_cell_setting            triclinic
loop_
_symmetry_equiv_pos_as_xyz
  x,y,z
_cell_length_a                    28.9832
_cell_length_b                    32.7053
_cell_length_c                    31.7768
_cell_angle_alpha                 88.9994
_cell_angle_beta                  70.2842
_cell_angle_gamma                 89.1984
loop_
_atom_site_label
_atom_site_type_symbol
_atom_site_fract_x
_atom_site_fract_y
_atom_site_fract_z
_atom_site_U_iso_or_equiv
_atom_site_adp_type
_atom_site_occupancy
O1     O     0.03958   0.10655   0.25000   0.00000  Uiso   1.00
O2     O     0.29375   0.22678   0.25000   0.00000  Uiso   1.00
O3     O     0.29372   0.10654   0.25000   0.00000  Uiso   1.00
O4     O     0.03961   0.22679   0.24999   0.00000  Uiso   1.00
C5     C     0.00055   0.08748   0.25028   0.00000  Uiso   1.00
C6     C     0.33227   0.24579   0.25131   0.00000  Uiso   1.00
O7     O     0.01852   0.16668   0.31491   0.00000  Uiso   1.00
O8     O     0.31481   0.16666   0.18508   0.00000  Uiso   1.00
O9     O     0.27267   0.16667   0.31492   0.00000  Uiso   1.00
O10    O     0.06067   0.16667   0.18508   0.00000  Uiso   1.00
C11    C     0.30449   0.17027   0.33579   0.00000  Uiso   1.00
C12    C     0.02882   0.16539   0.16431   0.00000  Uiso   1.00
Cu13   Cu    0.04689   0.16667   0.25000   0.00000  Uiso   1.00
Cu14   Cu    0.28645   0.16666   0.25000   0.00000  Uiso   1.00
C15    C     0.28581   0.17597   0.38514   0.00000  Uiso   1.00
C16    C     0.04746   0.16011   0.11563   0.00000  Uiso   1.00
C17    C     0.29897   0.18475   0.45570   0.00000  Uiso   1.00
C18    C     0.04022   0.17208   0.04275   0.00000  Uiso   1.00
C19    C     0.31677   0.18751   0.40897   0.00000  Uiso   1.00
C20    C     0.02882   0.18410   0.08751   0.00000  Uiso   1.00
C21    C     0.23545   0.17059   0.40959   0.00000  Uiso   1.00
C22    C     0.08690   0.13268   0.09568   0.00000  Uiso   1.00
C23    C     0.22195   0.15692   0.45485   0.00000  Uiso   1.00
C24    C     0.10794   0.13331   0.04888   0.00000  Uiso   1.00
C25    C     0.25317   0.16729   0.47903   0.00000  Uiso   1.00
C26    C     0.07721   0.14311   0.02444   0.00000  Uiso   1.00
C27    C     0.17555   0.13944   0.47839   0.00000  Uiso   1.00
C28    C     0.15894   0.13630   0.02569   0.00000  Uiso   1.00
C29    C     0.19085   0.14568   0.04847   0.00000  Uiso   1.00
C30    C     0.14286   0.12759   0.45684   0.00000  Uiso   1.00
C31    C     0.23654   0.16240   0.02617   0.00000  Uiso   1.00
C32    C     0.09241   0.13205   0.47933   0.00000  Uiso   1.00
H33    H     0.32179   0.19585   0.47337   0.00000  Uiso   1.00
H34    H     0.02588   0.18904   0.02071   0.00000  Uiso   1.00
H35    H     0.17801   0.14556   0.08459   0.00000  Uiso   1.00
H36    H     0.15645   0.11987   0.42204   0.00000  Uiso   1.00
C37    C     0.29061   0.02295   0.25762   0.00000  Uiso   1.00
C38    C     0.04160   0.31017   0.24689   0.00000  Uiso   1.00
H39    H     0.25752   0.04064   0.26176   0.00000  Uiso   1.00
H40    H     0.07456   0.29236   0.24294   0.00000  Uiso   1.00
C41    C     0.28709   0.31396   0.25981   0.00000  Uiso   1.00
C42    C     0.04490   0.01914   0.24634   0.00000  Uiso   1.00
C43    C     0.33060   0.29046   0.25286   0.00000  Uiso   1.00
C44    C     0.00175   0.04271   0.25109   0.00000  Uiso   1.00
C45    C     0.17803   0.14847   0.28412   0.00000  Uiso   1.00
C46    C     0.15524   0.18451   0.21552   0.00000  Uiso   1.00
C47    C     0.12902   0.14939   0.28418   0.00000  Uiso   1.00
C48    C     0.20425   0.18401   0.21570   0.00000  Uiso   1.00
H49    H     0.10026   0.13531   0.31155   0.00000  Uiso   1.00
H50    H     0.23286   0.19829   0.18837   0.00000  Uiso   1.00
N51    N     0.11736   0.16668   0.24999   0.00000  Uiso   1.00
N52    N     0.21597   0.16666   0.25001   0.00000  Uiso   1.00
C53    C     0.26134   0.18088   0.05447   0.00000  Uiso   1.00
H54    H     0.27955   0.20981   0.04456   0.00000  Uiso   1.00
O55    O     0.25925   0.16504   0.09017   0.00000  Uiso   1.00
C56    C     0.05630   0.12389   0.45709   0.00000  Uiso   1.00
H57    H     0.01761   0.12312   0.47668   0.00000  Uiso   1.00
O58    O     0.06924   0.11665   0.41720   0.00000  Uiso   1.00
C59    C     0.10205   0.09927   0.12063   0.00000  Uiso   1.00
H60    H     0.13680   0.08348   0.10574   0.00000  Uiso   1.00
O61    O     0.07432   0.08662   0.15636   0.00000  Uiso   1.00
C62    C     0.19868   0.19444   0.39514   0.00000  Uiso   1.00
H63    H     0.15985   0.19282   0.41349   0.00000  Uiso   1.00
O64    O     0.21152   0.21952   0.36460   0.00000  Uiso   1.00
C65    C     0.00164   0.22294   0.10328   0.00000  Uiso   1.00
H66    H     0.32006   0.22979   0.13856   0.00000  Uiso   1.00
O67    O     0.33106   0.24900   0.07668   0.00000  Uiso   1.00
C68    C     0.03176   0.20713   0.38663   0.00000  Uiso   1.00
H69    H     0.04052   0.22085   0.35360   0.00000  Uiso   1.00
O70    O     0.06200   0.20944   0.40551   0.00000  Uiso   1.00
C71    C     0.23593   0.29662   0.27071   0.00000  Uiso   1.00
C72    C     0.22356   0.28986   0.22830   0.00000  Uiso   1.00
H73    H     0.25124   0.26975   0.20485   0.00000  Uiso   1.00
H74    H     0.18697   0.27549   0.23713   0.00000  Uiso   1.00
H75    H     0.22252   0.31962   0.21122   0.00000  Uiso   1.00
H76    H     0.23055   0.26850   0.29162   0.00000  Uiso   1.00
H77    H     0.20828   0.31834   0.29196   0.00000  Uiso   1.00
C78    C     0.09503   0.03612   0.24184   0.00000  Uiso   1.00
C79    C     0.09870   0.04470   0.28767   0.00000  Uiso   1.00
H80    H     0.13511   0.05788   0.28351   0.00000  Uiso   1.00
H81    H     0.06962   0.06642   0.30652   0.00000  Uiso   1.00
H82    H     0.09481   0.01579   0.30740   0.00000  Uiso   1.00
H83    H     0.12437   0.01357   0.22527   0.00000  Uiso   1.00
H84    H     0.10497   0.06320   0.21943   0.00000  Uiso   1.00
C85    C     0.18465   0.12725   0.32277   0.00000  Uiso   1.00
H86    H     0.15709   0.13179   0.35506   0.00000  Uiso   1.00
O87    O     0.21685   0.10188   0.31892   0.00000  Uiso   1.00
C88    C     0.14776   0.20499   0.17668   0.00000  Uiso   1.00
H89    H     0.17128   0.19711   0.14327   0.00000  Uiso   1.00
O90    O     0.11853   0.23308   0.18126   0.00000  Uiso   1.00
O91    O     0.37291   0.10655   0.25000   0.00000  Uiso   1.00
O92    O     0.62709   0.22678   0.25000   0.00000  Uiso   1.00
O93    O     0.62706   0.10654   0.25000   0.00000  Uiso   1.00
O94    O     0.37294   0.22679   0.24999   0.00000  Uiso   1.00
C95    C     0.33388   0.08748   0.25028   0.00000  Uiso   1.00
C96    C     0.66560   0.24579   0.25131   0.00000  Uiso   1.00
O97    O     0.35186   0.16668   0.31491   0.00000  Uiso   1.00
O98    O     0.64814   0.16666   0.18508   0.00000  Uiso   1.00
O99    O     0.60600   0.16667   0.31492   0.00000  Uiso   1.00
O100   O     0.39400   0.16667   0.18508   0.00000  Uiso   1.00
C101   C     0.63782   0.17027   0.33579   0.00000  Uiso   1.00
C102   C     0.36216   0.16539   0.16431   0.00000  Uiso   1.00
Cu103  Cu    0.38022   0.16667   0.25000   0.00000  Uiso   1.00
Cu104  Cu    0.61978   0.16666   0.25000   0.00000  Uiso   1.00
C105   C     0.61914   0.17597   0.38514   0.00000  Uiso   1.00
C106   C     0.38079   0.16011   0.11563   0.00000  Uiso   1.00
C107   C     0.63231   0.18475   0.45570   0.00000  Uiso   1.00
C108   C     0.37355   0.17208   0.04275   0.00000  Uiso   1.00
C109   C     0.65010   0.18751   0.40897   0.00000  Uiso   1.00
C110   C     0.36215   0.18410   0.08751   0.00000  Uiso   1.00
C111   C     0.56878   0.17059   0.40959   0.00000  Uiso   1.00
C112   C     0.42023   0.13268   0.09568   0.00000  Uiso   1.00
C113   C     0.55529   0.15692   0.45485   0.00000  Uiso   1.00
C114   C     0.44128   0.13331   0.04888   0.00000  Uiso   1.00
C115   C     0.58650   0.16729   0.47903   0.00000  Uiso   1.00
C116   C     0.41054   0.14311   0.02444   0.00000  Uiso   1.00
C117   C     0.50888   0.13944   0.47839   0.00000  Uiso   1.00
C118   C     0.49227   0.13630   0.02569   0.00000  Uiso   1.00
C119   C     0.52418   0.14568   0.04847   0.00000  Uiso   1.00
C120   C     0.47620   0.12759   0.45684   0.00000  Uiso   1.00
C121   C     0.56988   0.16240   0.02617   0.00000  Uiso   1.00
C122   C     0.42575   0.13205   0.47933   0.00000  Uiso   1.00
H123   H     0.65512   0.19585   0.47337   0.00000  Uiso   1.00
H124   H     0.35922   0.18904   0.02071   0.00000  Uiso   1.00
H125   H     0.51134   0.14556   0.08459   0.00000  Uiso   1.00
H126   H     0.48979   0.11987   0.42204   0.00000  Uiso   1.00
C127   C     0.62395   0.02295   0.25762   0.00000  Uiso   1.00
C128   C     0.37493   0.31017   0.24689   0.00000  Uiso   1.00
H129   H     0.59085   0.04064   0.26176   0.00000  Uiso   1.00
H130   H     0.40790   0.29236   0.24294   0.00000  Uiso   1.00
C131   C     0.62042   0.31396   0.25981   0.00000  Uiso   1.00
C132   C     0.37823   0.01914   0.24634   0.00000  Uiso   1.00
C133   C     0.66393   0.29046   0.25286   0.00000  Uiso   1.00
C134   C     0.33508   0.04271   0.25109   0.00000  Uiso   1.00
C135   C     0.51136   0.14847   0.28412   0.00000  Uiso   1.00
C136   C     0.48858   0.18451   0.21552   0.00000  Uiso   1.00
C137   C     0.46235   0.14939   0.28418   0.00000  Uiso   1.00
C138   C     0.53759   0.18401   0.21570   0.00000  Uiso   1.00
H139   H     0.43360   0.13531   0.31155   0.00000  Uiso   1.00
H140   H     0.56619   0.19829   0.18837   0.00000  Uiso   1.00
N141   N     0.45069   0.16668   0.24999   0.00000  Uiso   1.00
N142   N     0.54931   0.16666   0.25001   0.00000  Uiso   1.00
C143   C     0.59467   0.18088   0.05447   0.00000  Uiso   1.00
H144   H     0.61289   0.20981   0.04456   0.00000  Uiso   1.00
O145   O     0.59258   0.16504   0.09017   0.00000  Uiso   1.00
C146   C     0.38963   0.12389   0.45709   0.00000  Uiso   1.00
H147   H     0.35095   0.12312   0.47668   0.00000  Uiso   1.00
O148   O     0.40257   0.11665   0.41720   0.00000  Uiso   1.00
C149   C     0.43538   0.09927   0.12063   0.00000  Uiso   1.00
H150   H     0.47014   0.08348   0.10574   0.00000  Uiso   1.00
O151   O     0.40765   0.08662   0.15636   0.00000  Uiso   1.00
C152   C     0.53201   0.19444   0.39514   0.00000  Uiso   1.00
H153   H     0.49318   0.19282   0.41349   0.00000  Uiso   1.00
O154   O     0.54485   0.21952   0.36460   0.00000  Uiso   1.00
C155   C     0.33497   0.22294   0.10328   0.00000  Uiso   1.00
H156   H     0.65340   0.22979   0.13856   0.00000  Uiso   1.00
O157   O     0.66439   0.24900   0.07668   0.00000  Uiso   1.00
C158   C     0.36510   0.20713   0.38663   0.00000  Uiso   1.00
H159   H     0.37386   0.22085   0.35360   0.00000  Uiso   1.00
O160   O     0.39533   0.20944   0.40551   0.00000  Uiso   1.00
C161   C     0.56926   0.29662   0.27071   0.00000  Uiso   1.00
C162   C     0.55690   0.28986   0.22830   0.00000  Uiso   1.00
H163   H     0.58457   0.26975   0.20485   0.00000  Uiso   1.00
H164   H     0.52030   0.27549   0.23713   0.00000  Uiso   1.00
H165   H     0.55585   0.31962   0.21122   0.00000  Uiso   1.00
H166   H     0.56388   0.26850   0.29162   0.00000  Uiso   1.00
H167   H     0.54162   0.31834   0.29196   0.00000  Uiso   1.00
C168   C     0.42837   0.03612   0.24184   0.00000  Uiso   1.00
C169   C     0.43204   0.04470   0.28767   0.00000  Uiso   1.00
H170   H     0.46844   0.05788   0.28351   0.00000  Uiso   1.00
H171   H     0.40296   0.06642   0.30652   0.00000  Uiso   1.00
H172   H     0.42814   0.01579   0.30740   0.00000  Uiso   1.00
H173   H     0.45770   0.01357   0.22527   0.00000  Uiso   1.00
H174   H     0.43830   0.06320   0.21943   0.00000  Uiso   1.00
C175   C     0.51798   0.12725   0.32277   0.00000  Uiso   1.00
H176   H     0.49043   0.13179   0.35506   0.00000  Uiso   1.00
O177   O     0.55018   0.10188   0.31892   0.00000  Uiso   1.00
C178   C     0.48110   0.20499   0.17668   0.00000  Uiso   1.00
H179   H     0.50461   0.19711   0.14327   0.00000  Uiso   1.00
O180   O     0.45186   0.23308   0.18126   0.00000  Uiso   1.00
O181   O     0.70625   0.10655   0.25000   0.00000  Uiso   1.00
O182   O     0.96042   0.22678   0.25000   0.00000  Uiso   1.00
O183   O     0.96039   0.10654   0.25000   0.00000  Uiso   1.00
O184   O     0.70628   0.22679   0.24999   0.00000  Uiso   1.00
C185   C     0.66722   0.08748   0.25028   0.00000  Uiso   1.00
C186   C     0.99893   0.24579   0.25131   0.00000  Uiso   1.00
O187   O     0.68519   0.16668   0.31491   0.00000  Uiso   1.00
O188   O     0.98148   0.16666   0.18508   0.00000  Uiso   1.00
O189   O     0.93933   0.16667   0.31492   0.00000  Uiso   1.00
O190   O     0.72733   0.16667   0.18508   0.00000  Uiso   1.00
C191   C     0.97116   0.17027   0.33579   0.00000  Uiso   1.00
C192   C     0.69549   0.16539   0.16431   0.00000  Uiso   1.00
Cu193  Cu    0.71355   0.16667   0.25000   0.00000  Uiso   1.00
Cu194  Cu    0.95311   0.16666   0.25000   0.00000  Uiso   1.00
C195   C     0.95248   0.17597   0.38514   0.00000  Uiso   1.00
C196   C     0.71413   0.16011   0.11563   0.00000  Uiso   1.00
C197   C     0.96564   0.18475   0.45570   0.00000  Uiso   1.00
C198   C     0.70688   0.17208   0.04275   0.00000  Uiso   1.00
C199   C     0.98343   0.18751   0.40897   0.00000  Uiso   1.00
C200   C     0.69548   0.18410   0.08751   0.00000  Uiso   1.00
C201   C     0.90211   0.17059   0.40959   0.00000  Uiso   1.00
C202   C     0.75356   0.13268   0.09568   0.00000  Uiso   1.00
C203   C     0.88862   0.15692   0.45485   0.00000  Uiso   1.00
C204   C     0.77461   0.13331   0.04888   0.00000  Uiso   1.00
C205   C     0.91983   0.16729   0.47903   0.00000  Uiso   1.00
C206   C     0.74388   0.14311   0.02444   0.00000  Uiso   1.00
C207   C     0.84221   0.13944   0.47839   0.00000  Uiso   1.00
C208   C     0.82560   0.13630   0.02569   0.00000  Uiso   1.00
C209   C     0.85751   0.14568   0.04847   0.00000  Uiso   1.00
C210   C     0.80953   0.12759   0.45684   0.00000  Uiso   1.00
C211   C     0.90321   0.16240   0.02617   0.00000  Uiso   1.00
C212   C     0.75908   0.13205   0.47933   0.00000  Uiso   1.00
H213   H     0.98845   0.19585   0.47337   0.00000  Uiso   1.00
H214   H     0.69255   0.18904   0.02071   0.00000  Uiso   1.00
H215   H     0.84468   0.14556   0.08459   0.00000  Uiso   1.00
H216   H     0.82312   0.11987   0.42204   0.00000  Uiso   1.00
C217   C     0.95728   0.02295   0.25762   0.00000  Uiso   1.00
C218   C     0.70827   0.31017   0.24689   0.00000  Uiso   1.00
H219   H     0.92418   0.04064   0.26176   0.00000  Uiso   1.00
H220   H     0.74123   0.29236   0.24294   0.00000  Uiso   1.00
C221   C     0.95376   0.31396   0.25981   0.00000  Uiso   1.00
C222   C     0.71157   0.01914   0.24634   0.00000  Uiso   1.00
C223   C     0.99727   0.29046   0.25286   0.00000  Uiso   1.00
C224   C     0.66842   0.04271   0.25109   0.00000  Uiso   1.00
C225   C     0.84470   0.14847   0.28412   0.00000  Uiso   1.00
C226   C     0.82191   0.18451   0.21552   0.00000  Uiso   1.00
C227   C     0.79569   0.14939   0.28418   0.00000  Uiso   1.00
C228   C     0.87092   0.18401   0.21570   0.00000  Uiso   1.00
H229   H     0.76693   0.13531   0.31155   0.00000  Uiso   1.00
H230   H     0.89953   0.19829   0.18837   0.00000  Uiso   1.00
N231   N     0.78403   0.16668   0.24999   0.00000  Uiso   1.00
N232   N     0.88264   0.16666   0.25001   0.00000  Uiso   1.00
C233   C     0.92801   0.18088   0.05447   0.00000  Uiso   1.00
H234   H     0.94622   0.20981   0.04456   0.00000  Uiso   1.00
O235   O     0.92591   0.16504   0.09017   0.00000  Uiso   1.00
C236   C     0.72297   0.12389   0.45709   0.00000  Uiso   1.00
H237   H     0.68428   0.12312   0.47668   0.00000  Uiso   1.00
O238   O     0.73591   0.11665   0.41720   0.00000  Uiso   1.00
C239   C     0.76872   0.09927   0.12063   0.00000  Uiso   1.00
H240   H     0.80347   0.08348   0.10574   0.00000  Uiso   1.00
O241   O     0.74099   0.08662   0.15636   0.00000  Uiso   1.00
C242   C     0.86534   0.19444   0.39514   0.00000  Uiso   1.00
H243   H     0.82652   0.19282   0.41349   0.00000  Uiso   1.00
O244   O     0.87819   0.21952   0.36460   0.00000  Uiso   1.00
C245   C     0.66830   0.22294   0.10328   0.00000  Uiso   1.00
H246   H     0.98673   0.22979   0.13856   0.00000  Uiso   1.00
O247   O     0.99772   0.24900   0.07668   0.00000  Uiso   1.00
C248   C     0.69843   0.20713   0.38663   0.00000  Uiso   1.00
H249   H     0.70719   0.22085   0.35360   0.00000  Uiso   1.00
O250   O     0.72866   0.20944   0.40551   0.00000  Uiso   1.00
C251   C     0.90259   0.29662   0.27071   0.00000  Uiso   1.00
C252   C     0.89023   0.28986   0.22830   0.00000  Uiso   1.00
H253   H     0.91791   0.26975   0.20485   0.00000  Uiso   1.00
H254   H     0.85363   0.27549   0.23713   0.00000  Uiso   1.00
H255   H     0.88919   0.31962   0.21122   0.00000  Uiso   1.00
H256   H     0.89722   0.26850   0.29162   0.00000  Uiso   1.00
H257   H     0.87495   0.31834   0.29196   0.00000  Uiso   1.00
C258   C     0.76170   0.03612   0.24184   0.00000  Uiso   1.00
C259   C     0.76537   0.04470   0.28767   0.00000  Uiso   1.00
H260   H     0.80177   0.05788   0.28351   0.00000  Uiso   1.00
H261   H     0.73629   0.06642   0.30652   0.00000  Uiso   1.00
H262   H     0.76148   0.01579   0.30740   0.00000  Uiso   1.00
H263   H     0.79103   0.01357   0.22527   0.00000  Uiso   1.00
H264   H     0.77163   0.06320   0.21943   0.00000  Uiso   1.00
C265   C     0.85131   0.12725   0.32277   0.00000  Uiso   1.00
H266   H     0.82376   0.13179   0.35506   0.00000  Uiso   1.00
O267   O     0.88352   0.10188   0.31892   0.00000  Uiso   1.00
C268   C     0.81443   0.20499   0.17668   0.00000  Uiso   1.00
H269   H     0.83794   0.19711   0.14327   0.00000  Uiso   1.00
O270   O     0.78519   0.23308   0.18126   0.00000  Uiso   1.00
O271   O     0.03958   0.43989   0.25000   0.00000  Uiso   1.00
O272   O     0.29375   0.56011   0.25000   0.00000  Uiso   1.00
O273   O     0.29372   0.43988   0.25000   0.00000  Uiso   1.00
O274   O     0.03961   0.56012   0.24999   0.00000  Uiso   1.00
C275   C     0.00055   0.42081   0.25028   0.00000  Uiso   1.00
C276   C     0.33227   0.57912   0.25131   0.00000  Uiso   1.00
O277   O     0.01852   0.50001   0.31491   0.00000  Uiso   1.00
O278   O     0.31481   0.49999   0.18508   0.00000  Uiso   1.00
O279   O     0.27267   0.50000   0.31492   0.00000  Uiso   1.00
O280   O     0.06067   0.50000   0.18508   0.00000  Uiso   1.00
C281   C     0.30449   0.50360   0.33579   0.00000  Uiso   1.00
C282   C     0.02882   0.49873   0.16431   0.00000  Uiso   1.00
Cu283  Cu    0.04689   0.50001   0.25000   0.00000  Uiso   1.00
Cu284  Cu    0.28645   0.49999   0.25000   0.00000  Uiso   1.00
C285   C     0.28581   0.50930   0.38514   0.00000  Uiso   1.00
C286   C     0.04746   0.49344   0.11563   0.00000  Uiso   1.00
C287   C     0.29897   0.51808   0.45570   0.00000  Uiso   1.00
C288   C     0.04022   0.50541   0.04275   0.00000  Uiso   1.00
C289   C     0.31677   0.52084   0.40897   0.00000  Uiso   1.00
C290   C     0.02882   0.51743   0.08751   0.00000  Uiso   1.00
C291   C     0.23545   0.50392   0.40959   0.00000  Uiso   1.00
C292   C     0.08690   0.46601   0.09568   0.00000  Uiso   1.00
C293   C     0.22195   0.49025   0.45485   0.00000  Uiso   1.00
C294   C     0.10794   0.46664   0.04888   0.00000  Uiso   1.00
C295   C     0.25317   0.50063   0.47903   0.00000  Uiso   1.00
C296   C     0.07721   0.47645   0.02444   0.00000  Uiso   1.00
C297   C     0.17555   0.47277   0.47839   0.00000  Uiso   1.00
C298   C     0.15894   0.46963   0.02569   0.00000  Uiso   1.00
C299   C     0.19085   0.47902   0.04847   0.00000  Uiso   1.00
C300   C     0.14286   0.46093   0.45684   0.00000  Uiso   1.00
C301   C     0.23654   0.49573   0.02617   0.00000  Uiso   1.00
C302   C     0.09241   0.46538   0.47933   0.00000  Uiso   1.00
H303   H     0.32179   0.52918   0.47337   0.00000  Uiso   1.00
H304   H     0.02588   0.52238   0.02071   0.00000  Uiso   1.00
H305   H     0.17801   0.47889   0.08459   0.00000  Uiso   1.00
H306   H     0.15645   0.45320   0.42204   0.00000  Uiso   1.00
C307   C     0.29061   0.35628   0.25762   0.00000  Uiso   1.00
C308   C     0.04160   0.64350   0.24689   0.00000  Uiso   1.00
H309   H     0.25752   0.37397   0.26176   0.00000  Uiso   1.00
H310   H     0.07456   0.62569   0.24294   0.00000  Uiso   1.00
C311   C     0.28709   0.64729   0.25981   0.00000  Uiso   1.00
C312   C     0.04490   0.35247   0.24634   0.00000  Uiso   1.00
C313   C     0.33060   0.62380   0.25286   0.00000  Uiso   1.00
C314   C     0.00175   0.37605   0.25109   0.00000  Uiso   1.00
C315   C     0.17803   0.48180   0.28412   0.00000  Uiso   1.00
C316   C     0.15524   0.51785   0.21552   0.00000  Uiso   1.00
C317   C     0.12902   0.48272   0.28418   0.00000  Uiso   1.00
C318   C     0.20425   0.51735   0.21570   0.00000  Uiso   1.00
H319   H     0.10026   0.46865   0.31155   0.00000  Uiso   1.00
H320   H     0.23286   0.53163   0.18837   0.00000  Uiso   1.00
N321   N     0.11736   0.50001   0.24999   0.00000  Uiso   1.00
N322   N     0.21597   0.49999   0.25001   0.00000  Uiso   1.00
C323   C     0.26134   0.51422   0.05447   0.00000  Uiso   1.00
H324   H     0.27955   0.54314   0.04456   0.00000  Uiso   1.00
O325   O     0.25925   0.49838   0.09017   0.00000  Uiso   1.00
C326   C     0.05630   0.45722   0.45709   0.00000  Uiso   1.00
H327   H     0.01761   0.45645   0.47668   0.00000  Uiso   1.00
O328   O     0.06924   0.44999   0.41720   0.00000  Uiso   1.00
C329   C     0.10205   0.43260   0.12063   0.00000  Uiso   1.00
H330   H     0.13680   0.41681   0.10574   0.00000  Uiso   1.00
O331   O     0.07432   0.41996   0.15636   0.00000  Uiso   1.00
C332   C     0.19868   0.52778   0.39514   0.00000  Uiso   1.00
H333   H     0.15985   0.52615   0.41349   0.00000  Uiso   1.00
O334   O     0.21152   0.55286   0.36460   0.00000  Uiso   1.00
C335   C     0.00164   0.55628   0.10328   0.00000  Uiso   1.00
H336   H     0.32006   0.56312   0.13856   0.00000  Uiso   1.00
O337   O     0.33106   0.58233   0.07668   0.00000  Uiso   1.00
C338   C     0.03176   0.54047   0.38663   0.00000  Uiso   1.00
H339   H     0.04052   0.55419   0.35360   0.00000  Uiso   1.00
O340   O     0.06200   0.54277   0.40551   0.00000  Uiso   1.00
C341   C     0.23593   0.62995   0.27071   0.00000  Uiso   1.00
C342   C     0.22356   0.62320   0.22830   0.00000  Uiso   1.00
H343   H     0.25124   0.60308   0.20485   0.00000  Uiso   1.00
H344   H     0.18697   0.60882   0.23713   0.00000  Uiso   1.00
H345   H     0.22252   0.65295   0.21122   0.00000  Uiso   1.00
H346   H     0.23055   0.60184   0.29162   0.00000  Uiso   1.00
H347   H     0.20828   0.65168   0.29196   0.00000  Uiso   1.00
C348   C     0.09503   0.36946   0.24184   0.00000  Uiso   1.00
C349   C     0.09870   0.37804   0.28767   0.00000  Uiso   1.00
H350   H     0.13511   0.39121   0.28351   0.00000  Uiso   1.00
H351   H     0.06962   0.39975   0.30652   0.00000  Uiso   1.00
H352   H     0.09481   0.34912   0.30740   0.00000  Uiso   1.00
H353   H     0.12437   0.34690   0.22527   0.00000  Uiso   1.00
H354   H     0.10497   0.39653   0.21943   0.00000  Uiso   1.00
C355   C     0.18465   0.46059   0.32277   0.00000  Uiso   1.00
H356   H     0.15709   0.46512   0.35506   0.00000  Uiso   1.00
O357   O     0.21685   0.43521   0.31892   0.00000  Uiso   1.00
C358   C     0.14776   0.53833   0.17668   0.00000  Uiso   1.00
H359   H     0.17128   0.53044   0.14327   0.00000  Uiso   1.00
O360   O     0.11853   0.56641   0.18126   0.00000  Uiso   1.00
O361   O     0.37291   0.43989   0.25000   0.00000  Uiso   1.00
O362   O     0.62709   0.56011   0.25000   0.00000  Uiso   1.00
O363   O     0.62706   0.43988   0.25000   0.00000  Uiso   1.00
O364   O     0.37294   0.56012   0.24999   0.00000  Uiso   1.00
C365   C     0.33388   0.42081   0.25028   0.00000  Uiso   1.00
C366   C     0.66560   0.57912   0.25131   0.00000  Uiso   1.00
O367   O     0.35186   0.50001   0.31491   0.00000  Uiso   1.00
O368   O     0.64814   0.49999   0.18508   0.00000  Uiso   1.00
O369   O     0.60600   0.50000   0.31492   0.00000  Uiso   1.00
O370   O     0.39400   0.50000   0.18508   0.00000  Uiso   1.00
C371   C     0.63782   0.50360   0.33579   0.00000  Uiso   1.00
C372   C     0.36216   0.49873   0.16431   0.00000  Uiso   1.00
Cu373  Cu    0.38022   0.50001   0.25000   0.00000  Uiso   1.00
Cu374  Cu    0.61978   0.49999   0.25000   0.00000  Uiso   1.00
C375   C     0.61914   0.50930   0.38514   0.00000  Uiso   1.00
C376   C     0.38079   0.49344   0.11563   0.00000  Uiso   1.00
C377   C     0.63231   0.51808   0.45570   0.00000  Uiso   1.00
C378   C     0.37355   0.50541   0.04275   0.00000  Uiso   1.00
C379   C     0.65010   0.52084   0.40897   0.00000  Uiso   1.00
C380   C     0.36215   0.51743   0.08751   0.00000  Uiso   1.00
C381   C     0.56878   0.50392   0.40959   0.00000  Uiso   1.00
C382   C     0.42023   0.46601   0.09568   0.00000  Uiso   1.00
C383   C     0.55529   0.49025   0.45485   0.00000  Uiso   1.00
C384   C     0.44128   0.46664   0.04888   0.00000  Uiso   1.00
C385   C     0.58650   0.50063   0.47903   0.00000  Uiso   1.00
C386   C     0.41054   0.47645   0.02444   0.00000  Uiso   1.00
C387   C     0.50888   0.47277   0.47839   0.00000  Uiso   1.00
C388   C     0.49227   0.46963   0.02569   0.00000  Uiso   1.00
C389   C     0.52418   0.47902   0.04847   0.00000  Uiso   1.00
C390   C     0.47620   0.46093   0.45684   0.00000  Uiso   1.00
C391   C     0.56988   0.49573   0.02617   0.00000  Uiso   1.00
C392   C     0.42575   0.46538   0.47933   0.00000  Uiso   1.00
H393   H     0.65512   0.52918   0.47337   0.00000  Uiso   1.00
H394   H     0.35922   0.52238   0.02071   0.00000  Uiso   1.00
H395   H     0.51134   0.47889   0.08459   0.00000  Uiso   1.00
H396   H     0.48979   0.45320   0.42204   0.00000  Uiso   1.00
C397   C     0.62395   0.35628   0.25762   0.00000  Uiso   1.00
C398   C     0.37493   0.64350   0.24689   0.00000  Uiso   1.00
H399   H     0.59085   0.37397   0.26176   0.00000  Uiso   1.00
H400   H     0.40790   0.62569   0.24294   0.00000  Uiso   1.00
C401   C     0.62042   0.64729   0.25981   0.00000  Uiso   1.00
C402   C     0.37823   0.35247   0.24634   0.00000  Uiso   1.00
C403   C     0.66393   0.62380   0.25286   0.00000  Uiso   1.00
C404   C     0.33508   0.37605   0.25109   0.00000  Uiso   1.00
C405   C     0.51136   0.48180   0.28412   0.00000  Uiso   1.00
C406   C     0.48858   0.51785   0.21552   0.00000  Uiso   1.00
C407   C     0.46235   0.48272   0.28418   0.00000  Uiso   1.00
C408   C     0.53759   0.51735   0.21570   0.00000  Uiso   1.00
H409   H     0.43360   0.46865   0.31155   0.00000  Uiso   1.00
H410   H     0.56619   0.53163   0.18837   0.00000  Uiso   1.00
N411   N     0.45069   0.50001   0.24999   0.00000  Uiso   1.00
N412   N     0.54931   0.49999   0.25001   0.00000  Uiso   1.00
C413   C     0.59467   0.51422   0.05447   0.00000  Uiso   1.00
H414   H     0.61289   0.54314   0.04456   0.00000  Uiso   1.00
O415   O     0.59258   0.49838   0.09017   0.00000  Uiso   1.00
C416   C     0.38963   0.45722   0.45709   0.00000  Uiso   1.00
H417   H     0.35095   0.45645   0.47668   0.00000  Uiso   1.00
O418   O     0.40257   0.44999   0.41720   0.00000  Uiso   1.00
C419   C     0.43538   0.43260   0.12063   0.00000  Uiso   1.00
H420   H     0.47014   0.41681   0.10574   0.00000  Uiso   1.00
O421   O     0.40765   0.41996   0.15636   0.00000  Uiso   1.00
C422   C     0.53201   0.52778   0.39514   0.00000  Uiso   1.00
H423   H     0.49318   0.52615   0.41349   0.00000  Uiso   1.00
O424   O     0.54485   0.55286   0.36460   0.00000  Uiso   1.00
C425   C     0.33497   0.55628   0.10328   0.00000  Uiso   1.00
H426   H     0.65340   0.56312   0.13856   0.00000  Uiso   1.00
O427   O     0.66439   0.58233   0.07668   0.00000  Uiso   1.00
C428   C     0.36510   0.54047   0.38663   0.00000  Uiso   1.00
H429   H     0.37386   0.55419   0.35360   0.00000  Uiso   1.00
O430   O     0.39533   0.54277   0.40551   0.00000  Uiso   1.00
C431   C     0.56926   0.62995   0.27071   0.00000  Uiso   1.00
C432   C     0.55690   0.62320   0.22830   0.00000  Uiso   1.00
H433   H     0.58457   0.60308   0.20485   0.00000  Uiso   1.00
H434   H     0.52030   0.60882   0.23713   0.00000  Uiso   1.00
H435   H     0.55585   0.65295   0.21122   0.00000  Uiso   1.00
H436   H     0.56388   0.60184   0.29162   0.00000  Uiso   1.00
H437   H     0.54162   0.65168   0.29196   0.00000  Uiso   1.00
C438   C     0.42837   0.36946   0.24184   0.00000  Uiso   1.00
C439   C     0.43204   0.37804   0.28767   0.00000  Uiso   1.00
H440   H     0.46844   0.39121   0.28351   0.00000  Uiso   1.00
H441   H     0.40296   0.39975   0.30652   0.00000  Uiso   1.00
H442   H     0.42814   0.34912   0.30740   0.00000  Uiso   1.00
H443   H     0.45770   0.34690   0.22527   0.00000  Uiso   1.00
H444   H     0.43830   0.39653   0.21943   0.00000  Uiso   1.00
C445   C     0.51798   0.46059   0.32277   0.00000  Uiso   1.00
H446   H     0.49043   0.46512   0.35506   0.00000  Uiso   1.00
O447   O     0.55018   0.43521   0.31892   0.00000  Uiso   1.00
C448   C     0.48110   0.53833   0.17668   0.00000  Uiso   1.00
H449   H     0.50461   0.53044   0.14327   0.00000  Uiso   1.00
O450   O     0.45186   0.56641   0.18126   0.00000  Uiso   1.00
O451   O     0.70625   0.43989   0.25000   0.00000  Uiso   1.00
O452   O     0.96042   0.56011   0.25000   0.00000  Uiso   1.00
O453   O     0.96039   0.43988   0.25000   0.00000  Uiso   1.00
O454   O     0.70628   0.56012   0.24999   0.00000  Uiso   1.00
C455   C     0.66722   0.42081   0.25028   0.00000  Uiso   1.00
C456   C     0.99893   0.57912   0.25131   0.00000  Uiso   1.00
O457   O     0.68519   0.50001   0.31491   0.00000  Uiso   1.00
O458   O     0.98148   0.49999   0.18508   0.00000  Uiso   1.00
O459   O     0.93933   0.50000   0.31492   0.00000  Uiso   1.00
O460   O     0.72733   0.50000   0.18508   0.00000  Uiso   1.00
C461   C     0.97116   0.50360   0.33579   0.00000  Uiso   1.00
C462   C     0.69549   0.49873   0.16431   0.00000  Uiso   1.00
Cu463  Cu    0.71355   0.50001   0.25000   0.00000  Uiso   1.00
Cu464  Cu    0.95311   0.49999   0.25000   0.00000  Uiso   1.00
C465   C     0.95248   0.50930   0.38514   0.00000  Uiso   1.00
C466   C     0.71413   0.49344   0.11563   0.00000  Uiso   1.00
C467   C     0.96564   0.51808   0.45570   0.00000  Uiso   1.00
C468   C     0.70688   0.50541   0.04275   0.00000  Uiso   1.00
C469   C     0.98343   0.52084   0.40897   0.00000  Uiso   1.00
C470   C     0.69548   0.51743   0.08751   0.00000  Uiso   1.00
C471   C     0.90211   0.50392   0.40959   0.00000  Uiso   1.00
C472   C     0.75356   0.46601   0.09568   0.00000  Uiso   1.00
C473   C     0.88862   0.49025   0.45485   0.00000  Uiso   1.00
C474   C     0.77461   0.46664   0.04888   0.00000  Uiso   1.00
C475   C     0.91983   0.50063   0.47903   0.00000  Uiso   1.00
C476   C     0.74388   0.47645   0.02444   0.00000  Uiso   1.00
C477   C     0.84221   0.47277   0.47839   0.00000  Uiso   1.00
C478   C     0.82560   0.46963   0.02569   0.00000  Uiso   1.00
C479   C     0.85751   0.47902   0.04847   0.00000  Uiso   1.00
C480   C     0.80953   0.46093   0.45684   0.00000  Uiso   1.00
C481   C     0.90321   0.49573   0.02617   0.00000  Uiso   1.00
C482   C     0.75908   0.46538   0.47933   0.00000  Uiso   1.00
H483   H     0.98845   0.52918   0.47337   0.00000  Uiso   1.00
H484   H     0.69255   0.52238   0.02071   0.00000  Uiso   1.00
H485   H     0.84468   0.47889   0.08459   0.00000  Uiso   1.00
H486   H     0.82312   0.45320   0.42204   0.00000  Uiso   1.00
C487   C     0.95728   0.35628   0.25762   0.00000  Uiso   1.00
C488   C     0.70827   0.64350   0.24689   0.00000  Uiso   1.00
H489   H     0.92418   0.37397   0.26176   0.00000  Uiso   1.00
H490   H     0.74123   0.62569   0.24294   0.00000  Uiso   1.00
C491   C     0.95376   0.64729   0.25981   0.00000  Uiso   1.00
C492   C     0.71157   0.35247   0.24634   0.00000  Uiso   1.00
C493   C     0.99727   0.62380   0.25286   0.00000  Uiso   1.00
C494   C     0.66842   0.37605   0.25109   0.00000  Uiso   1.00
C495   C     0.84470   0.48180   0.28412   0.00000  Uiso   1.00
C496   C     0.82191   0.51785   0.21552   0.00000  Uiso   1.00
C497   C     0.79569   0.48272   0.28418   0.00000  Uiso   1.00
C498   C     0.87092   0.51735   0.21570   0.00000  Uiso   1.00
H499   H     0.76693   0.46865   0.31155   0.00000  Uiso   1.00
H500   H     0.89953   0.53163   0.18837   0.00000  Uiso   1.00
N501   N     0.78403   0.50001   0.24999   0.00000  Uiso   1.00
N502   N     0.88264   0.49999   0.25001   0.00000  Uiso   1.00
C503   C     0.92801   0.51422   0.05447   0.00000  Uiso   1.00
H504   H     0.94622   0.54314   0.04456   0.00000  Uiso   1.00
O505   O     0.92591   0.49838   0.09017   0.00000  Uiso   1.00
C506   C     0.72297   0.45722   0.45709   0.00000  Uiso   1.00
H507   H     0.68428   0.45645   0.47668   0.00000  Uiso   1.00
O508   O     0.73591   0.44999   0.41720   0.00000  Uiso   1.00
C509   C     0.76872   0.43260   0.12063   0.00000  Uiso   1.00
H510   H     0.80347   0.41681   0.10574   0.00000  Uiso   1.00
O511   O     0.74099   0.41996   0.15636   0.00000  Uiso   1.00
C512   C     0.86534   0.52778   0.39514   0.00000  Uiso   1.00
H513   H     0.82652   0.52615   0.41349   0.00000  Uiso   1.00
O514   O     0.87819   0.55286   0.36460   0.00000  Uiso   1.00
C515   C     0.66830   0.55628   0.10328   0.00000  Uiso   1.00
H516   H     0.98673   0.56312   0.13856   0.00000  Uiso   1.00
O517   O     0.99772   0.58233   0.07668   0.00000  Uiso   1.00
C518   C     0.69843   0.54047   0.38663   0.00000  Uiso   1.00
H519   H     0.70719   0.55419   0.35360   0.00000  Uiso   1.00
O520   O     0.72866   0.54277   0.40551   0.00000  Uiso   1.00
C521   C     0.90259   0.62995   0.27071   0.00000  Uiso   1.00
C522   C     0.89023   0.62320   0.22830   0.00000  Uiso   1.00
H523   H     0.91791   0.60308   0.20485   0.00000  Uiso   1.00
H524   H     0.85363   0.60882   0.23713   0.00000  Uiso   1.00
H525   H     0.88919   0.65295   0.21122   0.00000  Uiso   1.00
H526   H     0.89722   0.60184   0.29162   0.00000  Uiso   1.00
H527   H     0.87495   0.65168   0.29196   0.00000  Uiso   1.00
C528   C     0.76170   0.36946   0.24184   0.00000  Uiso   1.00
C529   C     0.76537   0.37804   0.28767   0.00000  Uiso   1.00
H530   H     0.80177   0.39121   0.28351   0.00000  Uiso   1.00
H531   H     0.73629   0.39975   0.30652   0.00000  Uiso   1.00
H532   H     0.76148   0.34912   0.30740   0.00000  Uiso   1.00
H533   H     0.79103   0.34690   0.22527   0.00000  Uiso   1.00
H534   H     0.77163   0.39653   0.21943   0.00000  Uiso   1.00
C535   C     0.85131   0.46059   0.32277   0.00000  Uiso   1.00
H536   H     0.82376   0.46512   0.35506   0.00000  Uiso   1.00
O537   O     0.88352   0.43521   0.31892   0.00000  Uiso   1.00
C538   C     0.81443   0.53833   0.17668   0.00000  Uiso   1.00
H539   H     0.83794   0.53044   0.14327   0.00000  Uiso   1.00
O540   O     0.78519   0.56641   0.18126   0.00000  Uiso   1.00
O541   O     0.03958   0.77322   0.25000   0.00000  Uiso   1.00
O542   O     0.29375   0.89345   0.25000   0.00000  Uiso   1.00
O543   O     0.29372   0.77321   0.25000   0.00000  Uiso   1.00
O544   O     0.03961   0.89346   0.24999   0.00000  Uiso   1.00
C545   C     0.00055   0.75414   0.25028   0.00000  Uiso   1.00
C546   C     0.33227   0.91245   0.25131   0.00000  Uiso   1.00
O547   O     0.01852   0.83334   0.31491   0.00000  Uiso   1.00
O548   O     0.31481   0.83332   0.18508   0.00000  Uiso   1.00
O549   O     0.27267   0.83333   0.31492   0.00000  Uiso   1.00
O550   O     0.06067   0.83333   0.18508   0.00000  Uiso   1.00
C551   C     0.30449   0.83694   0.33579   0.00000  Uiso   1.00
C552   C     0.02882   0.83206   0.16431   0.00000  Uiso   1.00
Cu553  Cu    0.04689   0.83334   0.25000   0.00000  Uiso   1.00
Cu554  Cu    0.28645   0.83333   0.25000   0.00000  Uiso   1.00
C555   C     0.28581   0.84264   0.38514   0.00000  Uiso   1.00
C556   C     0.04746   0.82678   0.11563   0.00000  Uiso   1.00
C557   C     0.29897   0.85141   0.45570   0.00000  Uiso   1.00
C558   C     0.04022   0.83875   0.04275   0.00000  Uiso   1.00
C559   C     0.31677   0.85418   0.40897   0.00000  Uiso   1.00
C560   C     0.02882   0.85077   0.08751   0.00000  Uiso   1.00
C561   C     0.23545   0.83725   0.40959   0.00000  Uiso   1.00
C562   C     0.08690   0.79935   0.09568   0.00000  Uiso   1.00
C563   C     0.22195   0.82358   0.45485   0.00000  Uiso   1.00
C564   C     0.10794   0.79997   0.04888   0.00000  Uiso   1.00
C565   C     0.25317   0.83396   0.47903   0.00000  Uiso   1.00
C566   C     0.07721   0.80978   0.02444   0.00000  Uiso   1.00
C567   C     0.17555   0.80611   0.47839   0.00000  Uiso   1.00
C568   C     0.15894   0.80297   0.02569   0.00000  Uiso   1.00
C569   C     0.19085   0.81235   0.04847   0.00000  Uiso   1.00
C570   C     0.14286   0.79426   0.45684   0.00000  Uiso   1.00
C571   C     0.23654   0.82907   0.02617   0.00000  Uiso   1.00
C572   C     0.09241   0.79871   0.47933   0.00000  Uiso   1.00
H573   H     0.32179   0.86252   0.47337   0.00000  Uiso   1.00
H574   H     0.02588   0.85571   0.02071   0.00000  Uiso   1.00
H575   H     0.17801   0.81223   0.08459   0.00000  Uiso   1.00
H576   H     0.15645   0.78654   0.42204   0.00000  Uiso   1.00
C577   C     0.29061   0.68962   0.25762   0.00000  Uiso   1.00
C578   C     0.04160   0.97683   0.24689   0.00000  Uiso   1.00
H579   H     0.25752   0.70730   0.26176   0.00000  Uiso   1.00
H580   H     0.07456   0.95902   0.24294   0.00000  Uiso   1.00
C581   C     0.28709   0.98063   0.25981   0.00000  Uiso   1.00
C582   C     0.04490   0.68580   0.24634   0.00000  Uiso   1.00
C583   C     0.33060   0.95713   0.25286   0.00000  Uiso   1.00
C584   C     0.00175   0.70938   0.25109   0.00000  Uiso   1.00
C585   C     0.17803   0.81513   0.28412   0.00000  Uiso   1.00
C586   C     0.15524   0.85118   0.21552   0.00000  Uiso   1.00
C587   C     0.12902   0.81605   0.28418   0.00000  Uiso   1.00
C588   C     0.20425   0.85068   0.21570   0.00000  Uiso   1.00
H589   H     0.10026   0.80198   0.31155   0.00000  Uiso   1.00
H590   H     0.23286   0.86496   0.18837   0.00000  Uiso   1.00
N591   N     0.11736   0.83334   0.24999   0.00000  Uiso   1.00
N592   N     0.21597   0.83332   0.25001   0.00000  Uiso   1.00
C593   C     0.26134   0.84755   0.05447   0.00000  Uiso   1.00
H594   H     0.27955   0.87648   0.04456   0.00000  Uiso   1.00
O595   O     0.25925   0.83171   0.09017   0.00000  Uiso   1.00
C596   C     0.05630   0.79055   0.45709   0.00000  Uiso   1.00
H597   H     0.01761   0.78979   0.47668   0.00000  Uiso   1.00
O598   O     0.06924   0.78332   0.41720   0.00000  Uiso   1.00
C599   C     0.10205   0.76594   0.12063   0.00000  Uiso   1.00
H600   H     0.13680   0.75014   0.10574   0.00000  Uiso   1.00
O601   O     0.07432   0.75329   0.15636   0.00000  Uiso   1.00
C602   C     0.19868   0.86111   0.39514   0.00000  Uiso   1.00
H603   H     0.15985   0.85948   0.41349   0.00000  Uiso   1.00
O604   O     0.21152   0.88619   0.36460   0.00000  Uiso   1.00
C605   C     0.00164   0.88961   0.10328   0.00000  Uiso   1.00
H606   H     0.32006   0.89646   0.13856   0.00000  Uiso   1.00
O607   O     0.33106   0.91566   0.07668   0.00000  Uiso   1.00
C608   C     0.03176   0.87380   0.38663   0.00000  Uiso   1.00
H609   H     0.04052   0.88752   0.35360   0.00000  Uiso   1.00
O610   O     0.06200   0.87611   0.40551   0.00000  Uiso   1.00
C611   C     0.23593   0.96328   0.27071   0.00000  Uiso   1.00
C612   C     0.22356   0.95653   0.22830   0.00000  Uiso   1.00
H613   H     0.25124   0.93642   0.20485   0.00000  Uiso   1.00
H614   H     0.18697   0.94215   0.23713   0.00000  Uiso   1.00
H615   H     0.22252   0.98629   0.21122   0.00000  Uiso   1.00
H616   H     0.23055   0.93517   0.29162   0.00000  Uiso   1.00
H617   H     0.20828   0.98501   0.29196   0.00000  Uiso   1.00
C618   C     0.09503   0.70279   0.24184   0.00000  Uiso   1.00
C619   C     0.09870   0.71137   0.28767   0.00000  Uiso   1.00
H620   H     0.13511   0.72454   0.28351   0.00000  Uiso   1.00
H621   H     0.06962   0.73308   0.30652   0.00000  Uiso   1.00
H622   H     0.09481   0.68245   0.30740   0.00000  Uiso   1.00
H623   H     0.12437   0.68023   0.22527   0.00000  Uiso   1.00
H624   H     0.10497   0.72987   0.21943   0.00000  Uiso   1.00
C625   C     0.18465   0.79392   0.32277   0.00000  Uiso   1.00
H626   H     0.15709   0.79846   0.35506   0.00000  Uiso   1.00
O627   O     0.21685   0.76854   0.31892   0.00000  Uiso   1.00
C628   C     0.14776   0.87166   0.17668   0.00000  Uiso   1.00
H629   H     0.17128   0.86377   0.14327   0.00000  Uiso   1.00
O630   O     0.11853   0.89975   0.18126   0.00000  Uiso   1.00
O631   O     0.37291   0.77322   0.25000   0.00000  Uiso   1.00
O632   O     0.62709   0.89345   0.25000   0.00000  Uiso   1.00
O633   O     0.62706   0.77321   0.25000   0.00000  Uiso   1.00
O634   O     0.37294   0.89346   0.24999   0.00000  Uiso   1.00
C635   C     0.33388   0.75414   0.25028   0.00000  Uiso   1.00
C636   C     0.66560   0.91245   0.25131   0.00000  Uiso   1.00
O637   O     0.35186   0.83334   0.31491   0.00000  Uiso   1.00
O638   O     0.64814   0.83332   0.18508   0.00000  Uiso   1.00
O639   O     0.60600   0.83333   0.31492   0.00000  Uiso   1.00
O640   O     0.39400   0.83333   0.18508   0.00000  Uiso   1.00
C641   C     0.63782   0.83694   0.33579   0.00000  Uiso   1.00
C642   C     0.36216   0.83206   0.16431   0.00000  Uiso   1.00
Cu643  Cu    0.38022   0.83334   0.25000   0.00000  Uiso   1.00
Cu644  Cu    0.61978   0.83333   0.25000   0.00000  Uiso   1.00
C645   C     0.61914   0.84264   0.38514   0.00000  Uiso   1.00
C646   C     0.38079   0.82678   0.11563   0.00000  Uiso   1.00
C647   C     0.63231   0.85141   0.45570   0.00000  Uiso   1.00
C648   C     0.37355   0.83875   0.04275   0.00000  Uiso   1.00
C649   C     0.65010   0.85418   0.40897   0.00000  Uiso   1.00
C650   C     0.36215   0.85077   0.08751   0.00000  Uiso   1.00
C651   C     0.56878   0.83725   0.40959   0.00000  Uiso   1.00
C652   C     0.42023   0.79935   0.09568   0.00000  Uiso   1.00
C653   C     0.55529   0.82358   0.45485   0.00000  Uiso   1.00
C654   C     0.44128   0.79997   0.04888   0.00000  Uiso   1.00
C655   C     0.58650   0.83396   0.47903   0.00000  Uiso   1.00
C656   C     0.41054   0.80978   0.02444   0.00000  Uiso   1.00
C657   C     0.50888   0.80611   0.47839   0.00000  Uiso   1.00
C658   C     0.49227   0.80297   0.02569   0.00000  Uiso   1.00
C659   C     0.52418   0.81235   0.04847   0.00000  Uiso   1.00
C660   C     0.47620   0.79426   0.45684   0.00000  Uiso   1.00
C661   C     0.56988   0.82907   0.02617   0.00000  Uiso   1.00
C662   C     0.42575   0.79871   0.47933   0.00000  Uiso   1.00
H663   H     0.65512   0.86252   0.47337   0.00000  Uiso   1.00
H664   H     0.35922   0.85571   0.02071   0.00000  Uiso   1.00
H665   H     0.51134   0.81223   0.08459   0.00000  Uiso   1.00
H666   H     0.48979   0.78654   0.42204   0.00000  Uiso   1.00
C667   C     0.62395   0.68962   0.25762   0.00000  Uiso   1.00
C668   C     0.37493   0.97683   0.24689   0.00000  Uiso   1.00
H669   H     0.59085   0.70730   0.26176   0.00000  Uiso   1.00
H670   H     0.40790   0.95902   0.24294   0.00000  Uiso   1.00
C671   C     0.62042   0.98063   0.25981   0.00000  Uiso   1.00
C672   C     0.37823   0.68580   0.24634   0.00000  Uiso   1.00
C673   C     0.66393   0.95713   0.25286   0.00000  Uiso   1.00
C674   C     0.33508   0.70938   0.25109   0.00000  Uiso   1.00
C675   C     0.51136   0.81513   0.28412   0.00000  Uiso   1.00
C676   C     0.48858   0.85118   0.21552   0.00000  Uiso   1.00
C677   C     0.46235   0.81605   0.28418   0.00000  Uiso   1.00
C678   C     0.53759   0.85068   0.21570   0.00000  Uiso   1.00
H679   H     0.43360   0.80198   0.31155   0.00000  Uiso   1.00
H680   H     0.56619   0.86496   0.18837   0.00000  Uiso   1.00
N681   N     0.45069   0.83334   0.24999   0.00000  Uiso   1.00
N682   N     0.54931   0.83332   0.25001   0.00000  Uiso   1.00
C683   C     0.59467   0.84755   0.05447   0.00000  Uiso   1.00
H684   H     0.61289   0.87648   0.04456   0.00000  Uiso   1.00
O685   O     0.59258   0.83171   0.09017   0.00000  Uiso   1.00
C686   C     0.38963   0.79055   0.45709   0.00000  Uiso   1.00
H687   H     0.35095   0.78979   0.47668   0.00000  Uiso   1.00
O688   O     0.40257   0.78332   0.41720   0.00000  Uiso   1.00
C689   C     0.43538   0.76594   0.12063   0.00000  Uiso   1.00
H690   H     0.47014   0.75014   0.10574   0.00000  Uiso   1.00
O691   O     0.40765   0.75329   0.15636   0.00000  Uiso   1.00
C692   C     0.53201   0.86111   0.39514   0.00000  Uiso   1.00
H693   H     0.49318   0.85948   0.41349   0.00000  Uiso   1.00
O694   O     0.54485   0.88619   0.36460   0.00000  Uiso   1.00
C695   C     0.33497   0.88961   0.10328   0.00000  Uiso   1.00
H696   H     0.65340   0.89646   0.13856   0.00000  Uiso   1.00
O697   O     0.66439   0.91566   0.07668   0.00000  Uiso   1.00
C698   C     0.36510   0.87380   0.38663   0.00000  Uiso   1.00
H699   H     0.37386   0.88752   0.35360   0.00000  Uiso   1.00
O700   O     0.39533   0.87611   0.40551   0.00000  Uiso   1.00
C701   C     0.56926   0.96328   0.27071   0.00000  Uiso   1.00
C702   C     0.55690   0.95653   0.22830   0.00000  Uiso   1.00
H703   H     0.58457   0.93642   0.20485   0.00000  Uiso   1.00
H704   H     0.52030   0.94215   0.23713   0.00000  Uiso   1.00
H705   H     0.55585   0.98629   0.21122   0.00000  Uiso   1.00
H706   H     0.56388   0.93517   0.29162   0.00000  Uiso   1.00
H707   H     0.54162   0.98501   0.29196   0.00000  Uiso   1.00
C708   C     0.42837   0.70279   0.24184   0.00000  Uiso   1.00
C709   C     0.43204   0.71137   0.28767   0.00000  Uiso   1.00
H710   H     0.46844   0.72454   0.28351   0.00000  Uiso   1.00
H711   H     0.40296   0.73308   0.30652   0.00000  Uiso   1.00
H712   H     0.42814   0.68245   0.30740   0.00000  Uiso   1.00
H713   H     0.45770   0.68023   0.22527   0.00000  Uiso   1.00
H714   H     0.43830   0.72987   0.21943   0.00000  Uiso   1.00
C715   C     0.51798   0.79392   0.32277   0.00000  Uiso   1.00
H716   H     0.49043   0.79846   0.35506   0.00000  Uiso   1.00
O717   O     0.55018   0.76854   0.31892   0.00000  Uiso   1.00
C718   C     0.48110   0.87166   0.17668   0.00000  Uiso   1.00
H719   H     0.50461   0.86377   0.14327   0.00000  Uiso   1.00
O720   O     0.45186   0.89975   0.18126   0.00000  Uiso   1.00
O721   O     0.70625   0.77322   0.25000   0.00000  Uiso   1.00
O722   O     0.96042   0.89345   0.25000   0.00000  Uiso   1.00
O723   O     0.96039   0.77321   0.25000   0.00000  Uiso   1.00
O724   O     0.70628   0.89346   0.24999   0.00000  Uiso   1.00
C725   C     0.66722   0.75414   0.25028   0.00000  Uiso   1.00
C726   C     0.99893   0.91245   0.25131   0.00000  Uiso   1.00
O727   O     0.68519   0.83334   0.31491   0.00000  Uiso   1.00
O728   O     0.98148   0.83332   0.18508   0.00000  Uiso   1.00
O729   O     0.93933   0.83333   0.31492   0.00000  Uiso   1.00
O730   O     0.72733   0.83333   0.18508   0.00000  Uiso   1.00
C731   C     0.97116   0.83694   0.33579   0.00000  Uiso   1.00
C732   C     0.69549   0.83206   0.16431   0.00000  Uiso   1.00
Cu733  Cu    0.71355   0.83334   0.25000   0.00000  Uiso   1.00
Cu734  Cu    0.95311   0.83333   0.25000   0.00000  Uiso   1.00
C735   C     0.95248   0.84264   0.38514   0.00000  Uiso   1.00
C736   C     0.71413   0.82678   0.11563   0.00000  Uiso   1.00
C737   C     0.96564   0.85141   0.45570   0.00000  Uiso   1.00
C738   C     0.70688   0.83875   0.04275   0.00000  Uiso   1.00
C739   C     0.98343   0.85418   0.40897   0.00000  Uiso   1.00
C740   C     0.69548   0.85077   0.08751   0.00000  Uiso   1.00
C741   C     0.90211   0.83725   0.40959   0.00000  Uiso   1.00
C742   C     0.75356   0.79935   0.09568   0.00000  Uiso   1.00
C743   C     0.88862   0.82358   0.45485   0.00000  Uiso   1.00
C744   C     0.77461   0.79997   0.04888   0.00000  Uiso   1.00
C745   C     0.91983   0.83396   0.47903   0.00000  Uiso   1.00
C746   C     0.74388   0.80978   0.02444   0.00000  Uiso   1.00
C747   C     0.84221   0.80611   0.47839   0.00000  Uiso   1.00
C748   C     0.82560   0.80297   0.02569   0.00000  Uiso   1.00
C749   C     0.85751   0.81235   0.04847   0.00000  Uiso   1.00
C750   C     0.80953   0.79426   0.45684   0.00000  Uiso   1.00
C751   C     0.90321   0.82907   0.02617   0.00000  Uiso   1.00
C752   C     0.75908   0.79871   0.47933   0.00000  Uiso   1.00
H753   H     0.98845   0.86252   0.47337   0.00000  Uiso   1.00
H754   H     0.69255   0.85571   0.02071   0.00000  Uiso   1.00
H755   H     0.84468   0.81223   0.08459   0.00000  Uiso   1.00
H756   H     0.82312   0.78654   0.42204   0.00000  Uiso   1.00
C757   C     0.95728   0.68962   0.25762   0.00000  Uiso   1.00
C758   C     0.70827   0.97683   0.24689   0.00000  Uiso   1.00
H759   H     0.92418   0.70730   0.26176   0.00000  Uiso   1.00
H760   H     0.74123   0.95902   0.24294   0.00000  Uiso   1.00
C761   C     0.95376   0.98063   0.25981   0.00000  Uiso   1.00
C762   C     0.71157   0.68580   0.24634   0.00000  Uiso   1.00
C763   C     0.99727   0.95713   0.25286   0.00000  Uiso   1.00
C764   C     0.66842   0.70938   0.25109   0.00000  Uiso   1.00
C765   C     0.84470   0.81513   0.28412   0.00000  Uiso   1.00
C766   C     0.82191   0.85118   0.21552   0.00000  Uiso   1.00
C767   C     0.79569   0.81605   0.28418   0.00000  Uiso   1.00
C768   C     0.87092   0.85068   0.21570   0.00000  Uiso   1.00
H769   H     0.76693   0.80198   0.31155   0.00000  Uiso   1.00
H770   H     0.89953   0.86496   0.18837   0.00000  Uiso   1.00
N771   N     0.78403   0.83334   0.24999   0.00000  Uiso   1.00
N772   N     0.88264   0.83332   0.25001   0.00000  Uiso   1.00
C773   C     0.92801   0.84755   0.05447   0.00000  Uiso   1.00
H774   H     0.94622   0.87648   0.04456   0.00000  Uiso   1.00
O775   O     0.92591   0.83171   0.09017   0.00000  Uiso   1.00
C776   C     0.72297   0.79055   0.45709   0.00000  Uiso   1.00
H777   H     0.68428   0.78979   0.47668   0.00000  Uiso   1.00
O778   O     0.73591   0.78332   0.41720   0.00000  Uiso   1.00
C779   C     0.76872   0.76594   0.12063   0.00000  Uiso   1.00
H780   H     0.80347   0.75014   0.10574   0.00000  Uiso   1.00
O781   O     0.74099   0.75329   0.15636   0.00000  Uiso   1.00
C782   C     0.86534   0.86111   0.39514   0.00000  Uiso   1.00
H783   H     0.82652   0.85948   0.41349   0.00000  Uiso   1.00
O784   O     0.87819   0.88619   0.36460   0.00000  Uiso   1.00
C785   C     0.66830   0.88961   0.10328   0.00000  Uiso   1.00
H786   H     0.98673   0.89646   0.13856   0.00000  Uiso   1.00
O787   O     0.99772   0.91566   0.07668   0.00000  Uiso   1.00
C788   C     0.69843   0.87380   0.38663   0.00000  Uiso   1.00
H789   H     0.70719   0.88752   0.35360   0.00000  Uiso   1.00
O790   O     0.72866   0.87611   0.40551   0.00000  Uiso   1.00
C791   C     0.90259   0.96328   0.27071   0.00000  Uiso   1.00
C792   C     0.89023   0.95653   0.22830   0.00000  Uiso   1.00
H793   H     0.91791   0.93642   0.20485   0.00000  Uiso   1.00
H794   H     0.85363   0.94215   0.23713   0.00000  Uiso   1.00
H795   H     0.88919   0.98629   0.21122   0.00000  Uiso   1.00
H796   H     0.89722   0.93517   0.29162   0.00000  Uiso   1.00
H797   H     0.87495   0.98501   0.29196   0.00000  Uiso   1.00
C798   C     0.76170   0.70279   0.24184   0.00000  Uiso   1.00
C799   C     0.76537   0.71137   0.28767   0.00000  Uiso   1.00
H800   H     0.80177   0.72454   0.28351   0.00000  Uiso   1.00
H801   H     0.73629   0.73308   0.30652   0.00000  Uiso   1.00
H802   H     0.76148   0.68245   0.30740   0.00000  Uiso   1.00
H803   H     0.79103   0.68023   0.22527   0.00000  Uiso   1.00
H804   H     0.77163   0.72987   0.21943   0.00000  Uiso   1.00
C805   C     0.85131   0.79392   0.32277   0.00000  Uiso   1.00
H806   H     0.82376   0.79846   0.35506   0.00000  Uiso   1.00
O807   O     0.88352   0.76854   0.31892   0.00000  Uiso   1.00
C808   C     0.81443   0.87166   0.17668   0.00000  Uiso   1.00
H809   H     0.83794   0.86377   0.14327   0.00000  Uiso   1.00
O810   O     0.78519   0.89975   0.18126   0.00000  Uiso   1.00
O811   O     0.03958   0.10655   0.75000   0.00000  Uiso   1.00
O812   O     0.29375   0.22678   0.75000   0.00000  Uiso   1.00
O813   O     0.29372   0.10654   0.75000   0.00000  Uiso   1.00
O814   O     0.03961   0.22679   0.74999   0.00000  Uiso   1.00
C815   C     0.00055   0.08748   0.75028   0.00000  Uiso   1.00
C816   C     0.33227   0.24579   0.75131   0.00000  Uiso   1.00
O817   O     0.01852   0.16668   0.81491   0.00000  Uiso   1.00
O818   O     0.31481   0.16666   0.68508   0.00000  Uiso   1.00
O819   O     0.27267   0.16667   0.81492   0.00000  Uiso   1.00
O820   O     0.06067   0.16667   0.68508   0.00000  Uiso   1.00
C821   C     0.30449   0.17027   0.83579   0.00000  Uiso   1.00
C822   C     0.02882   0.16539   0.66431   0.00000  Uiso   1.00
Cu823  Cu    0.04689   0.16667   0.75000   0.00000  Uiso   1.00
Cu824  Cu    0.28645   0.16666   0.75000   0.00000  Uiso   1.00
C825   C     0.28581   0.17597   0.88514   0.00000  Uiso   1.00
C826   C     0.04746   0.16011   0.61563   0.00000  Uiso   1.00
C827   C     0.29897   0.18475   0.95570   0.00000  Uiso   1.00
C828   C     0.04022   0.17208   0.54275   0.00000  Uiso   1.00
C829   C     0.31677   0.18751   0.90897   0.00000  Uiso   1.00
C830   C     0.02882   0.18410   0.58751   0.00000  Uiso   1.00
C831   C     0.23545   0.17059   0.90959   0.00000  Uiso   1.00
C832   C     0.08690   0.13268   0.59568   0.00000  Uiso   1.00
C833   C     0.22195   0.15692   0.95485   0.00000  Uiso   1.00
C834   C     0.10794   0.13331   0.54888   0.00000  Uiso   1.00
C835   C     0.25317   0.16729   0.97903   0.00000  Uiso   1.00
C836   C     0.07721   0.14311   0.52444   0.00000  Uiso   1.00
C837   C     0.17555   0.13944   0.97839   0.00000  Uiso   1.00
C838   C     0.15894   0.13630   0.52569   0.00000  Uiso   1.00
C839   C     0.19085   0.14568   0.54847   0.00000  Uiso   1.00
C840   C     0.14286   0.12759   0.95684   0.00000  Uiso   1.00
C841   C     0.23654   0.16240   0.52617   0.00000  Uiso   1.00
C842   C     0.09241   0.13205   0.97933   0.00000  Uiso   1.00
H843   H     0.32179   0.19585   0.97337   0.00000  Uiso   1.00
H844   H     0.02588   0.18904   0.52071   0.00000  Uiso   1.00
H845   H     0.17801   0.14556   0.58459   0.00000  Uiso   1.00
H846   H     0.15645   0.11987   0.92204   0.00000  Uiso   1.00
C847   C     0.29061   0.02295   0.75762   0.00000  Uiso   1.00
C848   C     0.04160   0.31017   0.74689   0.00000  Uiso   1.00
H849   H     0.25752   0.04064   0.76176   0.00000  Uiso   1.00
H850   H     0.07456   0.29236   0.74294   0.00000  Uiso   1.00
C851   C     0.28709   0.31396   0.75981   0.00000  Uiso   1.00
C852   C     0.04490   0.01914   0.74634   0.00000  Uiso   1.00
C853   C     0.33060   0.29046   0.75286   0.00000  Uiso   1.00
C854   C     0.00175   0.04271   0.75109   0.00000  Uiso   1.00
C855   C     0.17803   0.14847   0.78412   0.00000  Uiso   1.00
C856   C     0.15524   0.18451   0.71552   0.00000  Uiso   1.00
C857   C     0.12902   0.14939   0.78418   0.00000  Uiso   1.00
C858   C     0.20425   0.18401   0.71570   0.00000  Uiso   1.00
H859   H     0.10026   0.13531   0.81155   0.00000  Uiso   1.00
H860   H     0.23286   0.19829   0.68837   0.00000  Uiso   1.00
N861   N     0.11736   0.16668   0.74999   0.00000  Uiso   1.00
N862   N     0.21597   0.16666   0.75001   0.00000  Uiso   1.00
C863   C     0.26134   0.18088   0.55447   0.00000  Uiso   1.00
H864   H     0.27955   0.20981   0.54456   0.00000  Uiso   1.00
O865   O     0.25925   0.16504   0.59017   0.00000  Uiso   1.00
C866   C     0.05630   0.12389   0.95709   0.00000  Uiso   1.00
H867   H     0.01761   0.12312   0.97668   0.00000  Uiso   1.00
O868   O     0.06924   0.11665   0.91720   0.00000  Uiso   1.00
C869   C     0.10205   0.09927   0.62063   0.00000  Uiso   1.00
H870   H     0.13680   0.08348   0.60574   0.00000  Uiso   1.00
O871   O     0.07432   0.08662   0.65636   0.00000  Uiso   1.00
C872   C     0.19868   0.19444   0.89514   0.00000  Uiso   1.00
H873   H     0.15985   0.19282   0.91349   0.00000  Uiso   1.00
O874   O     0.21152   0.21952   0.86460   0.00000  Uiso   1.00
C875   C     0.00164   0.22294   0.60328   0.00000  Uiso   1.00
H876   H     0.32006   0.22979   0.63856   0.00000  Uiso   1.00
O877   O     0.33106   0.24900   0.57668   0.00000  Uiso   1.00
C878   C     0.03176   0.20713   0.88663   0.00000  Uiso   1.00
H879   H     0.04052   0.22085   0.85360   0.00000  Uiso   1.00
O880   O     0.06200   0.20944   0.90551   0.00000  Uiso   1.00
C881   C     0.23593   0.29662   0.77071   0.00000  Uiso   1.00
C882   C     0.22356   0.28986   0.72830   0.00000  Uiso   1.00
H883   H     0.25124   0.26975   0.70485   0.00000  Uiso   1.00
H884   H     0.18697   0.27549   0.73713   0.00000  Uiso   1.00
H885   H     0.22252   0.31962   0.71122   0.00000  Uiso   1.00
H886   H     0.23055   0.26850   0.79162   0.00000  Uiso   1.00
H887   H     0.20828   0.31834   0.79196   0.00000  Uiso   1.00
C888   C     0.09503   0.03612   0.74184   0.00000  Uiso   1.00
C889   C     0.09870   0.04470   0.78767   0.00000  Uiso   1.00
H890   H     0.13511   0.05788   0.78351   0.00000  Uiso   1.00
H891   H     0.06962   0.06642   0.80652   0.00000  Uiso   1.00
H892   H     0.09481   0.01579   0.80740   0.00000  Uiso   1.00
H893   H     0.12437   0.01357   0.72527   0.00000  Uiso   1.00
H894   H     0.10497   0.06320   0.71943   0.00000  Uiso   1.00
C895   C     0.18465   0.12725   0.82277   0.00000  Uiso   1.00
H896   H     0.15709   0.13179   0.85506   0.00000  Uiso   1.00
O897   O     0.21685   0.10188   0.81892   0.00000  Uiso   1.00
C898   C     0.14776   0.20499   0.67668   0.00000  Uiso   1.00
H899   H     0.17128   0.19711   0.64327   0.00000  Uiso   1.00
O900   O     0.11853   0.23308   0.68126   0.00000  Uiso   1.00
O901   O     0.37291   0.10655   0.75000   0.00000  Uiso   1.00
O902   O     0.62709   0.22678   0.75000   0.00000  Uiso   1.00
O903   O     0.62706   0.10654   0.75000   0.00000  Uiso   1.00
O904   O     0.37294   0.22679   0.74999   0.00000  Uiso   1.00
C905   C     0.33388   0.08748   0.75028   0.00000  Uiso   1.00
C906   C     0.66560   0.24579   0.75131   0.00000  Uiso   1.00
O907   O     0.35186   0.16668   0.81491   0.00000  Uiso   1.00
O908   O     0.64814   0.16666   0.68508   0.00000  Uiso   1.00
O909   O     0.60600   0.16667   0.81492   0.00000  Uiso   1.00
O910   O     0.39400   0.16667   0.68508   0.00000  Uiso   1.00
C911   C     0.63782   0.17027   0.83579   0.00000  Uiso   1.00
C912   C     0.36216   0.16539   0.66431   0.00000  Uiso   1.00
Cu913  Cu    0.38022   0.16667   0.75000   0.00000  Uiso   1.00
Cu914  Cu    0.61978   0.16666   0.75000   0.00000  Uiso   1.00
C915   C     0.61914   0.17597   0.88514   0.00000  Uiso   1.00
C916   C     0.38079   0.16011   0.61563   0.00000  Uiso   1.00
C917   C     0.63231   0.18475   0.95570   0.00000  Uiso   1.00
C918   C     0.37355   0.17208   0.54275   0.00000  Uiso   1.00
C919   C     0.65010   0.18751   0.90897   0.00000  Uiso   1.00
C920   C     0.36215   0.18410   0.58751   0.00000  Uiso   1.00
C921   C     0.56878   0.17059   0.90959   0.00000  Uiso   1.00
C922   C     0.42023   0.13268   0.59568   0.00000  Uiso   1.00
C923   C     0.55529   0.15692   0.95485   0.00000  Uiso   1.00
C924   C     0.44128   0.13331   0.54888   0.00000  Uiso   1.00
C925   C     0.58650   0.16729   0.97903   0.00000  Uiso   1.00
C926   C     0.41054   0.14311   0.52444   0.00000  Uiso   1.00
C927   C     0.50888   0.13944   0.97839   0.00000  Uiso   1.00
C928   C     0.49227   0.13630   0.52569   0.00000  Uiso   1.00
C929   C     0.52418   0.14568   0.54847   0.00000  Uiso   1.00
C930   C     0.47620   0.12759   0.95684   0.00000  Uiso   1.00
C931   C     0.56988   0.16240   0.52617   0.00000  Uiso   1.00
C932   C     0.42575   0.13205   0.97933   0.00000  Uiso   1.00
H933   H     0.65512   0.19585   0.97337   0.00000  Uiso   1.00
H934   H     0.35922   0.18904   0.52071   0.00000  Uiso   1.00
H935   H     0.51134   0.14556   0.58459   0.00000  Uiso   1.00
H936   H     0.48979   0.11987   0.92204   0.00000  Uiso   1.00
C937   C     0.62395   0.02295   0.75762   0.00000  Uiso   1.00
C938   C     0.37493   0.31017   0.74689   0.00000  Uiso   1.00
H939   H     0.59085   0.04064   0.76176   0.00000  Uiso   1.00
H940   H     0.40790   0.29236   0.74294   0.00000  Uiso   1.00
C941   C     0.62042   0.31396   0.75981   0.00000  Uiso   1.00
C942   C     0.37823   0.01914   0.74634   0.00000  Uiso   1.00
C943   C     0.66393   0.29046   0.75286   0.00000  Uiso   1.00
C944   C     0.33508   0.04271   0.75109   0.00000  Uiso   1.00
C945   C     0.51136   0.14847   0.78412   0.00000  Uiso   1.00
C946   C     0.48858   0.18451   0.71552   0.00000  Uiso   1.00
C947   C     0.46235   0.14939   0.78418   0.00000  Uiso   1.00
C948   C     0.53759   0.18401   0.71570   0.00000  Uiso   1.00
H949   H     0.43360   0.13531   0.81155   0.00000  Uiso   1.00
H950   H     0.56619   0.19829   0.68837   0.00000  Uiso   1.00
N951   N     0.45069   0.16668   0.74999   0.00000  Uiso   1.00
N952   N     0.54931   0.16666   0.75001   0.00000  Uiso   1.00
C953   C     0.59467   0.18088   0.55447   0.00000  Uiso   1.00
H954   H     0.61289   0.20981   0.54456   0.00000  Uiso   1.00
O955   O     0.59258   0.16504   0.59017   0.00000  Uiso   1.00
C956   C     0.38963   0.12389   0.95709   0.00000  Uiso   1.00
H957   H     0.35095   0.12312   0.97668   0.00000  Uiso   1.00
O958   O     0.40257   0.11665   0.91720   0.00000  Uiso   1.00
C959   C     0.43538   0.09927   0.62063   0.00000  Uiso   1.00
H960   H     0.47014   0.08348   0.60574   0.00000  Uiso   1.00
O961   O     0.40765   0.08662   0.65636   0.00000  Uiso   1.00
C962   C     0.53201   0.19444   0.89514   0.00000  Uiso   1.00
H963   H     0.49318   0.19282   0.91349   0.00000  Uiso   1.00
O964   O     0.54485   0.21952   0.86460   0.00000  Uiso   1.00
C965   C     0.33497   0.22294   0.60328   0.00000  Uiso   1.00
H966   H     0.65340   0.22979   0.63856   0.00000  Uiso   1.00
O967   O     0.66439   0.24900   0.57668   0.00000  Uiso   1.00
C968   C     0.36510   0.20713   0.88663   0.00000  Uiso   1.00
H969   H     0.37386   0.22085   0.85360   0.00000  Uiso   1.00
O970   O     0.39533   0.20944   0.90551   0.00000  Uiso   1.00
C971   C     0.56926   0.29662   0.77071   0.00000  Uiso   1.00
C972   C     0.55690   0.28986   0.72830   0.00000  Uiso   1.00
H973   H     0.58457   0.26975   0.70485   0.00000  Uiso   1.00
H974   H     0.52030   0.27549   0.73713   0.00000  Uiso   1.00
H975   H     0.55585   0.31962   0.71122   0.00000  Uiso   1.00
H976   H     0.56388   0.26850   0.79162   0.00000  Uiso   1.00
H977   H     0.54162   0.31834   0.79196   0.00000  Uiso   1.00
C978   C     0.42837   0.03612   0.74184   0.00000  Uiso   1.00
C979   C     0.43204   0.04470   0.78767   0.00000  Uiso   1.00
H980   H     0.46844   0.05788   0.78351   0.00000  Uiso   1.00
H981   H     0.40296   0.06642   0.80652   0.00000  Uiso   1.00
H982   H     0.42814   0.01579   0.80740   0.00000  Uiso   1.00
H983   H     0.45770   0.01357   0.72527   0.00000  Uiso   1.00
H984   H     0.43830   0.06320   0.71943   0.00000  Uiso   1.00
C985   C     0.51798   0.12725   0.82277   0.00000  Uiso   1.00
H986   H     0.49043   0.13179   0.85506   0.00000  Uiso   1.00
O987   O     0.55018   0.10188   0.81892   0.00000  Uiso   1.00
C988   C     0.48110   0.20499   0.67668   0.00000  Uiso   1.00
H989   H     0.50461   0.19711   0.64327   0.00000  Uiso   1.00
O990   O     0.45186   0.23308   0.68126   0.00000  Uiso   1.00
O991   O     0.70625   0.10655   0.75000   0.00000  Uiso   1.00
O992   O     0.96042   0.22678   0.75000   0.00000  Uiso   1.00
O993   O     0.96039   0.10654   0.75000   0.00000  Uiso   1.00
O994   O     0.70628   0.22679   0.74999   0.00000  Uiso   1.00
C995   C     0.66722   0.08748   0.75028   0.00000  Uiso   1.00
C996   C     0.99893   0.24579   0.75131   0.00000  Uiso   1.00
O997   O     0.68519   0.16668   0.81491   0.00000  Uiso   1.00
O998   O     0.98148   0.16666   0.68508   0.00000  Uiso   1.00
O999   O     0.93933   0.16667   0.81492   0.00000  Uiso   1.00
O1000  O     0.72733   0.16667   0.68508   0.00000  Uiso   1.00
C1001  C     0.97116   0.17027   0.83579   0.00000  Uiso   1.00
C1002  C     0.69549   0.16539   0.66431   0.00000  Uiso   1.00
Cu1003 Cu    0.71355   0.16667   0.75000   0.00000  Uiso   1.00
Cu1004 Cu    0.95311   0.16666   0.75000   0.00000  Uiso   1.00
C1005  C     0.95248   0.17597   0.88514   0.00000  Uiso   1.00
C1006  C     0.71413   0.16011   0.61563   0.00000  Uiso   1.00
C1007  C     0.96564   0.18475   0.95570   0.00000  Uiso   1.00
C1008  C     0.70688   0.17208   0.54275   0.00000  Uiso   1.00
C1009  C     0.98343   0.18751   0.90897   0.00000  Uiso   1.00
C1010  C     0.69548   0.18410   0.58751   0.00000  Uiso   1.00
C1011  C     0.90211   0.17059   0.90959   0.00000  Uiso   1.00
C1012  C     0.75356   0.13268   0.59568   0.00000  Uiso   1.00
C1013  C     0.88862   0.15692   0.95485   0.00000  Uiso   1.00
C1014  C     0.77461   0.13331   0.54888   0.00000  Uiso   1.00
C1015  C     0.91983   0.16729   0.97903   0.00000  Uiso   1.00
C1016  C     0.74388   0.14311   0.52444   0.00000  Uiso   1.00
C1017  C     0.84221   0.13944   0.97839   0.00000  Uiso   1.00
C1018  C     0.82560   0.13630   0.52569   0.00000  Uiso   1.00
C1019  C     0.85751   0.14568   0.54847   0.00000  Uiso   1.00
C1020  C     0.80953   0.12759   0.95684   0.00000  Uiso   1.00
C1021  C     0.90321   0.16240   0.52617   0.00000  Uiso   1.00
C1022  C     0.75908   0.13205   0.97933   0.00000  Uiso   1.00
H1023  H     0.98845   0.19585   0.97337   0.00000  Uiso   1.00
H1024  H     0.69255   0.18904   0.52071   0.00000  Uiso   1.00
H1025  H     0.84468   0.14556   0.58459   0.00000  Uiso   1.00
H1026  H     0.82312   0.11987   0.92204   0.00000  Uiso   1.00
C1027  C     0.95728   0.02295   0.75762   0.00000  Uiso   1.00
C1028  C     0.70827   0.31017   0.74689   0.00000  Uiso   1.00
H1029  H     0.92418   0.04064   0.76176   0.00000  Uiso   1.00
H1030  H     0.74123   0.29236   0.74294   0.00000  Uiso   1.00
C1031  C     0.95376   0.31396   0.75981   0.00000  Uiso   1.00
C1032  C     0.71157   0.01914   0.74634   0.00000  Uiso   1.00
C1033  C     0.99727   0.29046   0.75286   0.00000  Uiso   1.00
C1034  C     0.66842   0.04271   0.75109   0.00000  Uiso   1.00
C1035  C     0.84470   0.14847   0.78412   0.00000  Uiso   1.00
C1036  C     0.82191   0.18451   0.71552   0.00000  Uiso   1.00
C1037  C     0.79569   0.14939   0.78418   0.00000  Uiso   1.00
C1038  C     0.87092   0.18401   0.71570   0.00000  Uiso   1.00
H1039  H     0.76693   0.13531   0.81155   0.00000  Uiso   1.00
H1040  H     0.89953   0.19829   0.68837   0.00000  Uiso   1.00
N1041  N     0.78403   0.16668   0.74999   0.00000  Uiso   1.00
N1042  N     0.88264   0.16666   0.75001   0.00000  Uiso   1.00
C1043  C     0.92801   0.18088   0.55447   0.00000  Uiso   1.00
H1044  H     0.94622   0.20981   0.54456   0.00000  Uiso   1.00
O1045  O     0.92591   0.16504   0.59017   0.00000  Uiso   1.00
C1046  C     0.72297   0.12389   0.95709   0.00000  Uiso   1.00
H1047  H     0.68428   0.12312   0.97668   0.00000  Uiso   1.00
O1048  O     0.73591   0.11665   0.91720   0.00000  Uiso   1.00
C1049  C     0.76872   0.09927   0.62063   0.00000  Uiso   1.00
H1050  H     0.80347   0.08348   0.60574   0.00000  Uiso   1.00
O1051  O     0.74099   0.08662   0.65636   0.00000  Uiso   1.00
C1052  C     0.86534   0.19444   0.89514   0.00000  Uiso   1.00
H1053  H     0.82652   0.19282   0.91349   0.00000  Uiso   1.00
O1054  O     0.87819   0.21952   0.86460   0.00000  Uiso   1.00
C1055  C     0.66830   0.22294   0.60328   0.00000  Uiso   1.00
H1056  H     0.98673   0.22979   0.63856   0.00000  Uiso   1.00
O1057  O     0.99772   0.24900   0.57668   0.00000  Uiso   1.00
C1058  C     0.69843   0.20713   0.88663   0.00000  Uiso   1.00
H1059  H     0.70719   0.22085   0.85360   0.00000  Uiso   1.00
O1060  O     0.72866   0.20944   0.90551   0.00000  Uiso   1.00
C1061  C     0.90259   0.29662   0.77071   0.00000  Uiso   1.00
C1062  C     0.89023   0.28986   0.72830   0.00000  Uiso   1.00
H1063  H     0.91791   0.26975   0.70485   0.00000  Uiso   1.00
H1064  H     0.85363   0.27549   0.73713   0.00000  Uiso   1.00
H1065  H     0.88919   0.31962   0.71122   0.00000  Uiso   1.00
H1066  H     0.89722   0.26850   0.79162   0.00000  Uiso   1.00
H1067  H     0.87495   0.31834   0.79196   0.00000  Uiso   1.00
C1068  C     0.76170   0.03612   0.74184   0.00000  Uiso   1.00
C1069  C     0.76537   0.04470   0.78767   0.00000  Uiso   1.00
H1070  H     0.80177   0.05788   0.78351   0.00000  Uiso   1.00
H1071  H     0.73629   0.06642   0.80652   0.00000  Uiso   1.00
H1072  H     0.76148   0.01579   0.80740   0.00000  Uiso   1.00
H1073  H     0.79103   0.01357   0.72527   0.00000  Uiso   1.00
H1074  H     0.77163   0.06320   0.71943   0.00000  Uiso   1.00
C1075  C     0.85131   0.12725   0.82277   0.00000  Uiso   1.00
H1076  H     0.82376   0.13179   0.85506   0.00000  Uiso   1.00
O1077  O     0.88352   0.10188   0.81892   0.00000  Uiso   1.00
C1078  C     0.81443   0.20499   0.67668   0.00000  Uiso   1.00
H1079  H     0.83794   0.19711   0.64327   0.00000  Uiso   1.00
O1080  O     0.78519   0.23308   0.68126   0.00000  Uiso   1.00
O1081  O     0.03958   0.43989   0.75000   0.00000  Uiso   1.00
O1082  O     0.29375   0.56011   0.75000   0.00000  Uiso   1.00
O1083  O     0.29372   0.43988   0.75000   0.00000  Uiso   1.00
O1084  O     0.03961   0.56012   0.74999   0.00000  Uiso   1.00
C1085  C     0.00055   0.42081   0.75028   0.00000  Uiso   1.00
C1086  C     0.33227   0.57912   0.75131   0.00000  Uiso   1.00
O1087  O     0.01852   0.50001   0.81491   0.00000  Uiso   1.00
O1088  O     0.31481   0.49999   0.68508   0.00000  Uiso   1.00
O1089  O     0.27267   0.50000   0.81492   0.00000  Uiso   1.00
O1090  O     0.06067   0.50000   0.68508   0.00000  Uiso   1.00
C1091  C     0.30449   0.50360   0.83579   0.00000  Uiso   1.00
C1092  C     0.02882   0.49873   0.66431   0.00000  Uiso   1.00
Cu1093 Cu    0.04689   0.50001   0.75000   0.00000  Uiso   1.00
Cu1094 Cu    0.28645   0.49999   0.75000   0.00000  Uiso   1.00
C1095  C     0.28581   0.50930   0.88514   0.00000  Uiso   1.00
C1096  C     0.04746   0.49344   0.61563   0.00000  Uiso   1.00
C1097  C     0.29897   0.51808   0.95570   0.00000  Uiso   1.00
C1098  C     0.04022   0.50541   0.54275   0.00000  Uiso   1.00
C1099  C     0.31677   0.52084   0.90897   0.00000  Uiso   1.00
C1100  C     0.02882   0.51743   0.58751   0.00000  Uiso   1.00
C1101  C     0.23545   0.50392   0.90959   0.00000  Uiso   1.00
C1102  C     0.08690   0.46601   0.59568   0.00000  Uiso   1.00
C1103  C     0.22195   0.49025   0.95485   0.00000  Uiso   1.00
C1104  C     0.10794   0.46664   0.54888   0.00000  Uiso   1.00
C1105  C     0.25317   0.50063   0.97903   0.00000  Uiso   1.00
C1106  C     0.07721   0.47645   0.52444   0.00000  Uiso   1.00
C1107  C     0.17555   0.47277   0.97839   0.00000  Uiso   1.00
C1108  C     0.15894   0.46963   0.52569   0.00000  Uiso   1.00
C1109  C     0.19085   0.47902   0.54847   0.00000  Uiso   1.00
C1110  C     0.14286   0.46093   0.95684   0.00000  Uiso   1.00
C1111  C     0.23654   0.49573   0.52617   0.00000  Uiso   1.00
C1112  C     0.09241   0.46538   0.97933   0.00000  Uiso   1.00
H1113  H     0.32179   0.52918   0.97337   0.00000  Uiso   1.00
H1114  H     0.02588   0.52238   0.52071   0.00000  Uiso   1.00
H1115  H     0.17801   0.47889   0.58459   0.00000  Uiso   1.00
H1116  H     0.15645   0.45320   0.92204   0.00000  Uiso   1.00
C1117  C     0.29061   0.35628   0.75762   0.00000  Uiso   1.00
C1118  C     0.04160   0.64350   0.74689   0.00000  Uiso   1.00
H1119  H     0.25752   0.37397   0.76176   0.00000  Uiso   1.00
H1120  H     0.07456   0.62569   0.74294   0.00000  Uiso   1.00
C1121  C     0.28709   0.64729   0.75981   0.00000  Uiso   1.00
C1122  C     0.04490   0.35247   0.74634   0.00000  Uiso   1.00
C1123  C     0.33060   0.62380   0.75286   0.00000  Uiso   1.00
C1124  C     0.00175   0.37605   0.75109   0.00000  Uiso   1.00
C1125  C     0.17803   0.48180   0.78412   0.00000  Uiso   1.00
C1126  C     0.15524   0.51785   0.71552   0.00000  Uiso   1.00
C1127  C     0.12902   0.48272   0.78418   0.00000  Uiso   1.00
C1128  C     0.20425   0.51735   0.71570   0.00000  Uiso   1.00
H1129  H     0.10026   0.46865   0.81155   0.00000  Uiso   1.00
H1130  H     0.23286   0.53163   0.68837   0.00000  Uiso   1.00
N1131  N     0.11736   0.50001   0.74999   0.00000  Uiso   1.00
N1132  N     0.21597   0.49999   0.75001   0.00000  Uiso   1.00
C1133  C     0.26134   0.51422   0.55447   0.00000  Uiso   1.00
H1134  H     0.27955   0.54314   0.54456   0.00000  Uiso   1.00
O1135  O     0.25925   0.49838   0.59017   0.00000  Uiso   1.00
C1136  C     0.05630   0.45722   0.95709   0.00000  Uiso   1.00
H1137  H     0.01761   0.45645   0.97668   0.00000  Uiso   1.00
O1138  O     0.06924   0.44999   0.91720   0.00000  Uiso   1.00
C1139  C     0.10205   0.43260   0.62063   0.00000  Uiso   1.00
H1140  H     0.13680   0.41681   0.60574   0.00000  Uiso   1.00
O1141  O     0.07432   0.41996   0.65636   0.00000  Uiso   1.00
C1142  C     0.19868   0.52778   0.89514   0.00000  Uiso   1.00
H1143  H     0.15985   0.52615   0.91349   0.00000  Uiso   1.00
O1144  O     0.21152   0.55286   0.86460   0.00000  Uiso   1.00
C1145  C     0.00164   0.55628   0.60328   0.00000  Uiso   1.00
H1146  H     0.32006   0.56312   0.63856   0.00000  Uiso   1.00
O1147  O     0.33106   0.58233   0.57668   0.00000  Uiso   1.00
C1148  C     0.03176   0.54047   0.88663   0.00000  Uiso   1.00
H1149  H     0.04052   0.55419   0.85360   0.00000  Uiso   1.00
O1150  O     0.06200   0.54277   0.90551   0.00000  Uiso   1.00
C1151  C     0.23593   0.62995   0.77071   0.00000  Uiso   1.00
C1152  C     0.22356   0.62320   0.72830   0.00000  Uiso   1.00
H1153  H     0.25124   0.60308   0.70485   0.00000  Uiso   1.00
H1154  H     0.18697   0.60882   0.73713   0.00000  Uiso   1.00
H1155  H     0.22252   0.65295   0.71122   0.00000  Uiso   1.00
H1156  H     0.23055   0.60184   0.79162   0.00000  Uiso   1.00
H1157  H     0.20828   0.65168   0.79196   0.00000  Uiso   1.00
C1158  C     0.09503   0.36946   0.74184   0.00000  Uiso   1.00
C1159  C     0.09870   0.37804   0.78767   0.00000  Uiso   1.00
H1160  H     0.13511   0.39121   0.78351   0.00000  Uiso   1.00
H1161  H     0.06962   0.39975   0.80652   0.00000  Uiso   1.00
H1162  H     0.09481   0.34912   0.80740   0.00000  Uiso   1.00
H1163  H     0.12437   0.34690   0.72527   0.00000  Uiso   1.00
H1164  H     0.10497   0.39653   0.71943   0.00000  Uiso   1.00
C1165  C     0.18465   0.46059   0.82277   0.00000  Uiso   1.00
H1166  H     0.15709   0.46512   0.85506   0.00000  Uiso   1.00
O1167  O     0.21685   0.43521   0.81892   0.00000  Uiso   1.00
C1168  C     0.14776   0.53833   0.67668   0.00000  Uiso   1.00
H1169  H     0.17128   0.53044   0.64327   0.00000  Uiso   1.00
O1170  O     0.11853   0.56641   0.68126   0.00000  Uiso   1.00
O1171  O     0.37291   0.43989   0.75000   0.00000  Uiso   1.00
O1172  O     0.62709   0.56011   0.75000   0.00000  Uiso   1.00
O1173  O     0.62706   0.43988   0.75000   0.00000  Uiso   1.00
O1174  O     0.37294   0.56012   0.74999   0.00000  Uiso   1.00
C1175  C     0.33388   0.42081   0.75028   0.00000  Uiso   1.00
C1176  C     0.66560   0.57912   0.75131   0.00000  Uiso   1.00
O1177  O     0.35186   0.50001   0.81491   0.00000  Uiso   1.00
O1178  O     0.64814   0.49999   0.68508   0.00000  Uiso   1.00
O1179  O     0.60600   0.50000   0.81492   0.00000  Uiso   1.00
O1180  O     0.39400   0.50000   0.68508   0.00000  Uiso   1.00
C1181  C     0.63782   0.50360   0.83579   0.00000  Uiso   1.00
C1182  C     0.36216   0.49873   0.66431   0.00000  Uiso   1.00
Cu1183 Cu    0.38022   0.50001   0.75000   0.00000  Uiso   1.00
Cu1184 Cu    0.61978   0.49999   0.75000   0.00000  Uiso   1.00
C1185  C     0.61914   0.50930   0.88514   0.00000  Uiso   1.00
C1186  C     0.38079   0.49344   0.61563   0.00000  Uiso   1.00
C1187  C     0.63231   0.51808   0.95570   0.00000  Uiso   1.00
C1188  C     0.37355   0.50541   0.54275   0.00000  Uiso   1.00
C1189  C     0.65010   0.52084   0.90897   0.00000  Uiso   1.00
C1190  C     0.36215   0.51743   0.58751   0.00000  Uiso   1.00
C1191  C     0.56878   0.50392   0.90959   0.00000  Uiso   1.00
C1192  C     0.42023   0.46601   0.59568   0.00000  Uiso   1.00
C1193  C     0.55529   0.49025   0.95485   0.00000  Uiso   1.00
C1194  C     0.44128   0.46664   0.54888   0.00000  Uiso   1.00
C1195  C     0.58650   0.50063   0.97903   0.00000  Uiso   1.00
C1196  C     0.41054   0.47645   0.52444   0.00000  Uiso   1.00
C1197  C     0.50888   0.47277   0.97839   0.00000  Uiso   1.00
C1198  C     0.49227   0.46963   0.52569   0.00000  Uiso   1.00
C1199  C     0.52418   0.47902   0.54847   0.00000  Uiso   1.00
C1200  C     0.47620   0.46093   0.95684   0.00000  Uiso   1.00
C1201  C     0.56988   0.49573   0.52617   0.00000  Uiso   1.00
C1202  C     0.42575   0.46538   0.97933   0.00000  Uiso   1.00
H1203  H     0.65512   0.52918   0.97337   0.00000  Uiso   1.00
H1204  H     0.35922   0.52238   0.52071   0.00000  Uiso   1.00
H1205  H     0.51134   0.47889   0.58459   0.00000  Uiso   1.00
H1206  H     0.48979   0.45320   0.92204   0.00000  Uiso   1.00
C1207  C     0.62395   0.35628   0.75762   0.00000  Uiso   1.00
C1208  C     0.37493   0.64350   0.74689   0.00000  Uiso   1.00
H1209  H     0.59085   0.37397   0.76176   0.00000  Uiso   1.00
H1210  H     0.40790   0.62569   0.74294   0.00000  Uiso   1.00
C1211  C     0.62042   0.64729   0.75981   0.00000  Uiso   1.00
C1212  C     0.37823   0.35247   0.74634   0.00000  Uiso   1.00
C1213  C     0.66393   0.62380   0.75286   0.00000  Uiso   1.00
C1214  C     0.33508   0.37605   0.75109   0.00000  Uiso   1.00
C1215  C     0.51136   0.48180   0.78412   0.00000  Uiso   1.00
C1216  C     0.48858   0.51785   0.71552   0.00000  Uiso   1.00
C1217  C     0.46235   0.48272   0.78418   0.00000  Uiso   1.00
C1218  C     0.53759   0.51735   0.71570   0.00000  Uiso   1.00
H1219  H     0.43360   0.46865   0.81155   0.00000  Uiso   1.00
H1220  H     0.56619   0.53163   0.68837   0.00000  Uiso   1.00
N1221  N     0.45069   0.50001   0.74999   0.00000  Uiso   1.00
N1222  N     0.54931   0.49999   0.75001   0.00000  Uiso   1.00
C1223  C     0.59467   0.51422   0.55447   0.00000  Uiso   1.00
H1224  H     0.61289   0.54314   0.54456   0.00000  Uiso   1.00
O1225  O     0.59258   0.49838   0.59017   0.00000  Uiso   1.00
C1226  C     0.38963   0.45722   0.95709   0.00000  Uiso   1.00
H1227  H     0.35095   0.45645   0.97668   0.00000  Uiso   1.00
O1228  O     0.40257   0.44999   0.91720   0.00000  Uiso   1.00
C1229  C     0.43538   0.43260   0.62063   0.00000  Uiso   1.00
H1230  H     0.47014   0.41681   0.60574   0.00000  Uiso   1.00
O1231  O     0.40765   0.41996   0.65636   0.00000  Uiso   1.00
C1232  C     0.53201   0.52778   0.89514   0.00000  Uiso   1.00
H1233  H     0.49318   0.52615   0.91349   0.00000  Uiso   1.00
O1234  O     0.54485   0.55286   0.86460   0.00000  Uiso   1.00
C1235  C     0.33497   0.55628   0.60328   0.00000  Uiso   1.00
H1236  H     0.65340   0.56312   0.63856   0.00000  Uiso   1.00
O1237  O     0.66439   0.58233   0.57668   0.00000  Uiso   1.00
C1238  C     0.36510   0.54047   0.88663   0.00000  Uiso   1.00
H1239  H     0.37386   0.55419   0.85360   0.00000  Uiso   1.00
O1240  O     0.39533   0.54277   0.90551   0.00000  Uiso   1.00
C1241  C     0.56926   0.62995   0.77071   0.00000  Uiso   1.00
C1242  C     0.55690   0.62320   0.72830   0.00000  Uiso   1.00
H1243  H     0.58457   0.60308   0.70485   0.00000  Uiso   1.00
H1244  H     0.52030   0.60882   0.73713   0.00000  Uiso   1.00
H1245  H     0.55585   0.65295   0.71122   0.00000  Uiso   1.00
H1246  H     0.56388   0.60184   0.79162   0.00000  Uiso   1.00
H1247  H     0.54162   0.65168   0.79196   0.00000  Uiso   1.00
C1248  C     0.42837   0.36946   0.74184   0.00000  Uiso   1.00
C1249  C     0.43204   0.37804   0.78767   0.00000  Uiso   1.00
H1250  H     0.46844   0.39121   0.78351   0.00000  Uiso   1.00
H1251  H     0.40296   0.39975   0.80652   0.00000  Uiso   1.00
H1252  H     0.42814   0.34912   0.80740   0.00000  Uiso   1.00
H1253  H     0.45770   0.34690   0.72527   0.00000  Uiso   1.00
H1254  H     0.43830   0.39653   0.71943   0.00000  Uiso   1.00
C1255  C     0.51798   0.46059   0.82277   0.00000  Uiso   1.00
H1256  H     0.49043   0.46512   0.85506   0.00000  Uiso   1.00
O1257  O     0.55018   0.43521   0.81892   0.00000  Uiso   1.00
C1258  C     0.48110   0.53833   0.67668   0.00000  Uiso   1.00
H1259  H     0.50461   0.53044   0.64327   0.00000  Uiso   1.00
O1260  O     0.45186   0.56641   0.68126   0.00000  Uiso   1.00
O1261  O     0.70625   0.43989   0.75000   0.00000  Uiso   1.00
O1262  O     0.96042   0.56011   0.75000   0.00000  Uiso   1.00
O1263  O     0.96039   0.43988   0.75000   0.00000  Uiso   1.00
O1264  O     0.70628   0.56012   0.74999   0.00000  Uiso   1.00
C1265  C     0.66722   0.42081   0.75028   0.00000  Uiso   1.00
C1266  C     0.99893   0.57912   0.75131   0.00000  Uiso   1.00
O1267  O     0.68519   0.50001   0.81491   0.00000  Uiso   1.00
O1268  O     0.98148   0.49999   0.68508   0.00000  Uiso   1.00
O1269  O     0.93933   0.50000   0.81492   0.00000  Uiso   1.00
O1270  O     0.72733   0.50000   0.68508   0.00000  Uiso   1.00
C1271  C     0.97116   0.50360   0.83579   0.00000  Uiso   1.00
C1272  C     0.69549   0.49873   0.66431   0.00000  Uiso   1.00
Cu1273 Cu    0.71355   0.50001   0.75000   0.00000  Uiso   1.00
Cu1274 Cu    0.95311   0.49999   0.75000   0.00000  Uiso   1.00
C1275  C     0.95248   0.50930   0.88514   0.00000  Uiso   1.00
C1276  C     0.71413   0.49344   0.61563   0.00000  Uiso   1.00
C1277  C     0.96564   0.51808   0.95570   0.00000  Uiso   1.00
C1278  C     0.70688   0.50541   0.54275   0.00000  Uiso   1.00
C1279  C     0.98343   0.52084   0.90897   0.00000  Uiso   1.00
C1280  C     0.69548   0.51743   0.58751   0.00000  Uiso   1.00
C1281  C     0.90211   0.50392   0.90959   0.00000  Uiso   1.00
C1282  C     0.75356   0.46601   0.59568   0.00000  Uiso   1.00
C1283  C     0.88862   0.49025   0.95485   0.00000  Uiso   1.00
C1284  C     0.77461   0.46664   0.54888   0.00000  Uiso   1.00
C1285  C     0.91983   0.50063   0.97903   0.00000  Uiso   1.00
C1286  C     0.74388   0.47645   0.52444   0.00000  Uiso   1.00
C1287  C     0.84221   0.47277   0.97839   0.00000  Uiso   1.00
C1288  C     0.82560   0.46963   0.52569   0.00000  Uiso   1.00
C1289  C     0.85751   0.47902   0.54847   0.00000  Uiso   1.00
C1290  C     0.80953   0.46093   0.95684   0.00000  Uiso   1.00
C1291  C     0.90321   0.49573   0.52617   0.00000  Uiso   1.00
C1292  C     0.75908   0.46538   0.97933   0.00000  Uiso   1.00
H1293  H     0.98845   0.52918   0.97337   0.00000  Uiso   1.00
H1294  H     0.69255   0.52238   0.52071   0.00000  Uiso   1.00
H1295  H     0.84468   0.47889   0.58459   0.00000  Uiso   1.00
H1296  H     0.82312   0.45320   0.92204   0.00000  Uiso   1.00
C1297  C     0.95728   0.35628   0.75762   0.00000  Uiso   1.00
C1298  C     0.70827   0.64350   0.74689   0.00000  Uiso   1.00
H1299  H     0.92418   0.37397   0.76176   0.00000  Uiso   1.00
H1300  H     0.74123   0.62569   0.74294   0.00000  Uiso   1.00
C1301  C     0.95376   0.64729   0.75981   0.00000  Uiso   1.00
C1302  C     0.71157   0.35247   0.74634   0.00000  Uiso   1.00
C1303  C     0.99727   0.62380   0.75286   0.00000  Uiso   1.00
C1304  C     0.66842   0.37605   0.75109   0.00000  Uiso   1.00
C1305  C     0.84470   0.48180   0.78412   0.00000  Uiso   1.00
C1306  C     0.82191   0.51785   0.71552   0.00000  Uiso   1.00
C1307  C     0.79569   0.48272   0.78418   0.00000  Uiso   1.00
C1308  C     0.87092   0.51735   0.71570   0.00000  Uiso   1.00
H1309  H     0.76693   0.46865   0.81155   0.00000  Uiso   1.00
H1310  H     0.89953   0.53163   0.68837   0.00000  Uiso   1.00
N1311  N     0.78403   0.50001   0.74999   0.00000  Uiso   1.00
N1312  N     0.88264   0.49999   0.75001   0.00000  Uiso   1.00
C1313  C     0.92801   0.51422   0.55447   0.00000  Uiso   1.00
H1314  H     0.94622   0.54314   0.54456   0.00000  Uiso   1.00
O1315  O     0.92591   0.49838   0.59017   0.00000  Uiso   1.00
C1316  C     0.72297   0.45722   0.95709   0.00000  Uiso   1.00
H1317  H     0.68428   0.45645   0.97668   0.00000  Uiso   1.00
O1318  O     0.73591   0.44999   0.91720   0.00000  Uiso   1.00
C1319  C     0.76872   0.43260   0.62063   0.00000  Uiso   1.00
H1320  H     0.80347   0.41681   0.60574   0.00000  Uiso   1.00
O1321  O     0.74099   0.41996   0.65636   0.00000  Uiso   1.00
C1322  C     0.86534   0.52778   0.89514   0.00000  Uiso   1.00
H1323  H     0.82652   0.52615   0.91349   0.00000  Uiso   1.00
O1324  O     0.87819   0.55286   0.86460   0.00000  Uiso   1.00
C1325  C     0.66830   0.55628   0.60328   0.00000  Uiso   1.00
H1326  H     0.98673   0.56312   0.63856   0.00000  Uiso   1.00
O1327  O     0.99772   0.58233   0.57668   0.00000  Uiso   1.00
C1328  C     0.69843   0.54047   0.88663   0.00000  Uiso   1.00
H1329  H     0.70719   0.55419   0.85360   0.00000  Uiso   1.00
O1330  O     0.72866   0.54277   0.90551   0.00000  Uiso   1.00
C1331  C     0.90259   0.62995   0.77071   0.00000  Uiso   1.00
C1332  C     0.89023   0.62320   0.72830   0.00000  Uiso   1.00
H1333  H     0.91791   0.60308   0.70485   0.00000  Uiso   1.00
H1334  H     0.85363   0.60882   0.73713   0.00000  Uiso   1.00
H1335  H     0.88919   0.65295   0.71122   0.00000  Uiso   1.00
H1336  H     0.89722   0.60184   0.79162   0.00000  Uiso   1.00
H1337  H     0.87495   0.65168   0.79196   0.00000  Uiso   1.00
C1338  C     0.76170   0.36946   0.74184   0.00000  Uiso   1.00
C1339  C     0.76537   0.37804   0.78767   0.00000  Uiso   1.00
H1340  H     0.80177   0.39121   0.78351   0.00000  Uiso   1.00
H1341  H     0.73629   0.39975   0.80652   0.00000  Uiso   1.00
H1342  H     0.76148   0.34912   0.80740   0.00000  Uiso   1.00
H1343  H     0.79103   0.34690   0.72527   0.00000  Uiso   1.00
H1344  H     0.77163   0.39653   0.71943   0.00000  Uiso   1.00
C1345  C     0.85131   0.46059   0.82277   0.00000  Uiso   1.00
H1346  H     0.82376   0.46512   0.85506   0.00000  Uiso   1.00
O1347  O     0.88352   0.43521   0.81892   0.00000  Uiso   1.00
C1348  C     0.81443   0.53833   0.67668   0.00000  Uiso   1.00
H1349  H     0.83794   0.53044   0.64327   0.00000  Uiso   1.00
O1350  O     0.78519   0.56641   0.68126   0.00000  Uiso   1.00
O1351  O     0.03958   0.77322   0.75000   0.00000  Uiso   1.00
O1352  O     0.29375   0.89345   0.75000   0.00000  Uiso   1.00
O1353  O     0.29372   0.77321   0.75000   0.00000  Uiso   1.00
O1354  O     0.03961   0.89346   0.74999   0.00000  Uiso   1.00
C1355  C     0.00055   0.75414   0.75028   0.00000  Uiso   1.00
C1356  C     0.33227   0.91245   0.75131   0.00000  Uiso   1.00
O1357  O     0.01852   0.83334   0.81491   0.00000  Uiso   1.00
O1358  O     0.31481   0.83332   0.68508   0.00000  Uiso   1.00
O1359  O     0.27267   0.83333   0.81492   0.00000  Uiso   1.00
O1360  O     0.06067   0.83333   0.68508   0.00000  Uiso   1.00
C1361  C     0.30449   0.83694   0.83579   0.00000  Uiso   1.00
C1362  C     0.02882   0.83206   0.66431   0.00000  Uiso   1.00
Cu1363 Cu    0.04689   0.83334   0.75000   0.00000  Uiso   1.00
Cu1364 Cu    0.28645   0.83333   0.75000   0.00000  Uiso   1.00
C1365  C     0.28581   0.84264   0.88514   0.00000  Uiso   1.00
C1366  C     0.04746   0.82678   0.61563   0.00000  Uiso   1.00
C1367  C     0.29897   0.85141   0.95570   0.00000  Uiso   1.00
C1368  C     0.04022   0.83875   0.54275   0.00000  Uiso   1.00
C1369  C     0.31677   0.85418   0.90897   0.00000  Uiso   1.00
C1370  C     0.02882   0.85077   0.58751   0.00000  Uiso   1.00
C1371  C     0.23545   0.83725   0.90959   0.00000  Uiso   1.00
C1372  C     0.08690   0.79935   0.59568   0.00000  Uiso   1.00
C1373  C     0.22195   0.82358   0.95485   0.00000  Uiso   1.00
C1374  C     0.10794   0.79997   0.54888   0.00000  Uiso   1.00
C1375  C     0.25317   0.83396   0.97903   0.00000  Uiso   1.00
C1376  C     0.07721   0.80978   0.52444   0.00000  Uiso   1.00
C1377  C     0.17555   0.80611   0.97839   0.00000  Uiso   1.00
C1378  C     0.15894   0.80297   0.52569   0.00000  Uiso   1.00
C1379  C     0.19085   0.81235   0.54847   0.00000  Uiso   1.00
C1380  C     0.14286   0.79426   0.95684   0.00000  Uiso   1.00
C1381  C     0.23654   0.82907   0.52617   0.00000  Uiso   1.00
C1382  C     0.09241   0.79871   0.97933   0.00000  Uiso   1.00
H1383  H     0.32179   0.86252   0.97337   0.00000  Uiso   1.00
H1384  H     0.02588   0.85571   0.52071   0.00000  Uiso   1.00
H1385  H     0.17801   0.81223   0.58459   0.00000  Uiso   1.00
H1386  H     0.15645   0.78654   0.92204   0.00000  Uiso   1.00
C1387  C     0.29061   0.68962   0.75762   0.00000  Uiso   1.00
C1388  C     0.04160   0.97683   0.74689   0.00000  Uiso   1.00
H1389  H     0.25752   0.70730   0.76176   0.00000  Uiso   1.00
H1390  H     0.07456   0.95902   0.74294   0.00000  Uiso   1.00
C1391  C     0.28709   0.98063   0.75981   0.00000  Uiso   1.00
C1392  C     0.04490   0.68580   0.74634   0.00000  Uiso   1.00
C1393  C     0.33060   0.95713   0.75286   0.00000  Uiso   1.00
C1394  C     0.00175   0.70938   0.75109   0.00000  Uiso   1.00
C1395  C     0.17803   0.81513   0.78412   0.00000  Uiso   1.00
C1396  C     0.15524   0.85118   0.71552   0.00000  Uiso   1.00
C1397  C     0.12902   0.81605   0.78418   0.00000  Uiso   1.00
C1398  C     0.20425   0.85068   0.71570   0.00000  Uiso   1.00
H1399  H     0.10026   0.80198   0.81155   0.00000  Uiso   1.00
H1400  H     0.23286   0.86496   0.68837   0.00000  Uiso   1.00
N1401  N     0.11736   0.83334   0.74999   0.00000  Uiso   1.00
N1402  N     0.21597   0.83332   0.75001   0.00000  Uiso   1.00
C1403  C     0.26134   0.84755   0.55447   0.00000  Uiso   1.00
H1404  H     0.27955   0.87648   0.54456   0.00000  Uiso   1.00
O1405  O     0.25925   0.83171   0.59017   0.00000  Uiso   1.00
C1406  C     0.05630   0.79055   0.95709   0.00000  Uiso   1.00
H1407  H     0.01761   0.78979   0.97668   0.00000  Uiso   1.00
O1408  O     0.06924   0.78332   0.91720   0.00000  Uiso   1.00
C1409  C     0.10205   0.76594   0.62063   0.00000  Uiso   1.00
H1410  H     0.13680   0.75014   0.60574   0.00000  Uiso   1.00
O1411  O     0.07432   0.75329   0.65636   0.00000  Uiso   1.00
C1412  C     0.19868   0.86111   0.89514   0.00000  Uiso   1.00
H1413  H     0.15985   0.85948   0.91349   0.00000  Uiso   1.00
O1414  O     0.21152   0.88619   0.86460   0.00000  Uiso   1.00
C1415  C     0.00164   0.88961   0.60328   0.00000  Uiso   1.00
H1416  H     0.32006   0.89646   0.63856   0.00000  Uiso   1.00
O1417  O     0.33106   0.91566   0.57668   0.00000  Uiso   1.00
C1418  C     0.03176   0.87380   0.88663   0.00000  Uiso   1.00
H1419  H     0.04052   0.88752   0.85360   0.00000  Uiso   1.00
O1420  O     0.06200   0.87611   0.90551   0.00000  Uiso   1.00
C1421  C     0.23593   0.96328   0.77071   0.00000  Uiso   1.00
C1422  C     0.22356   0.95653   0.72830   0.00000  Uiso   1.00
H1423  H     0.25124   0.93642   0.70485   0.00000  Uiso   1.00
H1424  H     0.18697   0.94215   0.73713   0.00000  Uiso   1.00
H1425  H     0.22252   0.98629   0.71122   0.00000  Uiso   1.00
H1426  H     0.23055   0.93517   0.79162   0.00000  Uiso   1.00
H1427  H     0.20828   0.98501   0.79196   0.00000  Uiso   1.00
C1428  C     0.09503   0.70279   0.74184   0.00000  Uiso   1.00
C1429  C     0.09870   0.71137   0.78767   0.00000  Uiso   1.00
H1430  H     0.13511   0.72454   0.78351   0.00000  Uiso   1.00
H1431  H     0.06962   0.73308   0.80652   0.00000  Uiso   1.00
H1432  H     0.09481   0.68245   0.80740   0.00000  Uiso   1.00
H1433  H     0.12437   0.68023   0.72527   0.00000  Uiso   1.00
H1434  H     0.10497   0.72987   0.71943   0.00000  Uiso   1.00
C1435  C     0.18465   0.79392   0.82277   0.00000  Uiso   1.00
H1436  H     0.15709   0.79846   0.85506   0.00000  Uiso   1.00
O1437  O     0.21685   0.76854   0.81892   0.00000  Uiso   1.00
C1438  C     0.14776   0.87166   0.67668   0.00000  Uiso   1.00
H1439  H     0.17128   0.86377   0.64327   0.00000  Uiso   1.00
O1440  O     0.11853   0.89975   0.68126   0.00000  Uiso   1.00
O1441  O     0.37291   0.77322   0.75000   0.00000  Uiso   1.00
O1442  O     0.62709   0.89345   0.75000   0.00000  Uiso   1.00
O1443  O     0.62706   0.77321   0.75000   0.00000  Uiso   1.00
O1444  O     0.37294   0.89346   0.74999   0.00000  Uiso   1.00
C1445  C     0.33388   0.75414   0.75028   0.00000  Uiso   1.00
C1446  C     0.66560   0.91245   0.75131   0.00000  Uiso   1.00
O1447  O     0.35186   0.83334   0.81491   0.00000  Uiso   1.00
O1448  O     0.64814   0.83332   0.68508   0.00000  Uiso   1.00
O1449  O     0.60600   0.83333   0.81492   0.00000  Uiso   1.00
O1450  O     0.39400   0.83333   0.68508   0.00000  Uiso   1.00
C1451  C     0.63782   0.83694   0.83579   0.00000  Uiso   1.00
C1452  C     0.36216   0.83206   0.66431   0.00000  Uiso   1.00
Cu1453 Cu    0.38022   0.83334   0.75000   0.00000  Uiso   1.00
Cu1454 Cu    0.61978   0.83333   0.75000   0.00000  Uiso   1.00
C1455  C     0.61914   0.84264   0.88514   0.00000  Uiso   1.00
C1456  C     0.38079   0.82678   0.61563   0.00000  Uiso   1.00
C1457  C     0.63231   0.85141   0.95570   0.00000  Uiso   1.00
C1458  C     0.37355   0.83875   0.54275   0.00000  Uiso   1.00
C1459  C     0.65010   0.85418   0.90897   0.00000  Uiso   1.00
C1460  C     0.36215   0.85077   0.58751   0.00000  Uiso   1.00
C1461  C     0.56878   0.83725   0.90959   0.00000  Uiso   1.00
C1462  C     0.42023   0.79935   0.59568   0.00000  Uiso   1.00
C1463  C     0.55529   0.82358   0.95485   0.00000  Uiso   1.00
C1464  C     0.44128   0.79997   0.54888   0.00000  Uiso   1.00
C1465  C     0.58650   0.83396   0.97903   0.00000  Uiso   1.00
C1466  C     0.41054   0.80978   0.52444   0.00000  Uiso   1.00
C1467  C     0.50888   0.80611   0.97839   0.00000  Uiso   1.00
C1468  C     0.49227   0.80297   0.52569   0.00000  Uiso   1.00
C1469  C     0.52418   0.81235   0.54847   0.00000  Uiso   1.00
C1470  C     0.47620   0.79426   0.95684   0.00000  Uiso   1.00
C1471  C     0.56988   0.82907   0.52617   0.00000  Uiso   1.00
C1472  C     0.42575   0.79871   0.97933   0.00000  Uiso   1.00
H1473  H     0.65512   0.86252   0.97337   0.00000  Uiso   1.00
H1474  H     0.35922   0.85571   0.52071   0.00000  Uiso   1.00
H1475  H     0.51134   0.81223   0.58459   0.00000  Uiso   1.00
H1476  H     0.48979   0.78654   0.92204   0.00000  Uiso   1.00
C1477  C     0.62395   0.68962   0.75762   0.00000  Uiso   1.00
C1478  C     0.37493   0.97683   0.74689   0.00000  Uiso   1.00
H1479  H     0.59085   0.70730   0.76176   0.00000  Uiso   1.00
H1480  H     0.40790   0.95902   0.74294   0.00000  Uiso   1.00
C1481  C     0.62042   0.98063   0.75981   0.00000  Uiso   1.00
C1482  C     0.37823   0.68580   0.74634   0.00000  Uiso   1.00
C1483  C     0.66393   0.95713   0.75286   0.00000  Uiso   1.00
C1484  C     0.33508   0.70938   0.75109   0.00000  Uiso   1.00
C1485  C     0.51136   0.81513   0.78412   0.00000  Uiso   1.00
C1486  C     0.48858   0.85118   0.71552   0.00000  Uiso   1.00
C1487  C     0.46235   0.81605   0.78418   0.00000  Uiso   1.00
C1488  C     0.53759   0.85068   0.71570   0.00000  Uiso   1.00
H1489  H     0.43360   0.80198   0.81155   0.00000  Uiso   1.00
H1490  H     0.56619   0.86496   0.68837   0.00000  Uiso   1.00
N1491  N     0.45069   0.83334   0.74999   0.00000  Uiso   1.00
N1492  N     0.54931   0.83332   0.75001   0.00000  Uiso   1.00
C1493  C     0.59467   0.84755   0.55447   0.00000  Uiso   1.00
H1494  H     0.61289   0.87648   0.54456   0.00000  Uiso   1.00
O1495  O     0.59258   0.83171   0.59017   0.00000  Uiso   1.00
C1496  C     0.38963   0.79055   0.95709   0.00000  Uiso   1.00
H1497  H     0.35095   0.78979   0.97668   0.00000  Uiso   1.00
O1498  O     0.40257   0.78332   0.91720   0.00000  Uiso   1.00
C1499  C     0.43538   0.76594   0.62063   0.00000  Uiso   1.00
H1500  H     0.47014   0.75014   0.60574   0.00000  Uiso   1.00
O1501  O     0.40765   0.75329   0.65636   0.00000  Uiso   1.00
C1502  C     0.53201   0.86111   0.89514   0.00000  Uiso   1.00
H1503  H     0.49318   0.85948   0.91349   0.00000  Uiso   1.00
O1504  O     0.54485   0.88619   0.86460   0.00000  Uiso   1.00
C1505  C     0.33497   0.88961   0.60328   0.00000  Uiso   1.00
H1506  H     0.65340   0.89646   0.63856   0.00000  Uiso   1.00
O1507  O     0.66439   0.91566   0.57668   0.00000  Uiso   1.00
C1508  C     0.36510   0.87380   0.88663   0.00000  Uiso   1.00
H1509  H     0.37386   0.88752   0.85360   0.00000  Uiso   1.00
O1510  O     0.39533   0.87611   0.90551   0.00000  Uiso   1.00
C1511  C     0.56926   0.96328   0.77071   0.00000  Uiso   1.00
C1512  C     0.55690   0.95653   0.72830   0.00000  Uiso   1.00
H1513  H     0.58457   0.93642   0.70485   0.00000  Uiso   1.00
H1514  H     0.52030   0.94215   0.73713   0.00000  Uiso   1.00
H1515  H     0.55585   0.98629   0.71122   0.00000  Uiso   1.00
H1516  H     0.56388   0.93517   0.79162   0.00000  Uiso   1.00
H1517  H     0.54162   0.98501   0.79196   0.00000  Uiso   1.00
C1518  C     0.42837   0.70279   0.74184   0.00000  Uiso   1.00
C1519  C     0.43204   0.71137   0.78767   0.00000  Uiso   1.00
H1520  H     0.46844   0.72454   0.78351   0.00000  Uiso   1.00
H1521  H     0.40296   0.73308   0.80652   0.00000  Uiso   1.00
H1522  H     0.42814   0.68245   0.80740   0.00000  Uiso   1.00
H1523  H     0.45770   0.68023   0.72527   0.00000  Uiso   1.00
H1524  H     0.43830   0.72987   0.71943   0.00000  Uiso   1.00
C1525  C     0.51798   0.79392   0.82277   0.00000  Uiso   1.00
H1526  H     0.49043   0.79846   0.85506   0.00000  Uiso   1.00
O1527  O     0.55018   0.76854   0.81892   0.00000  Uiso   1.00
C1528  C     0.48110   0.87166   0.67668   0.00000  Uiso   1.00
H1529  H     0.50461   0.86377   0.64327   0.00000  Uiso   1.00
O1530  O     0.45186   0.89975   0.68126   0.00000  Uiso   1.00
O1531  O     0.70625   0.77322   0.75000   0.00000  Uiso   1.00
O1532  O     0.96042   0.89345   0.75000   0.00000  Uiso   1.00
O1533  O     0.96039   0.77321   0.75000   0.00000  Uiso   1.00
O1534  O     0.70628   0.89346   0.74999   0.00000  Uiso   1.00
C1535  C     0.66722   0.75414   0.75028   0.00000  Uiso   1.00
C1536  C     0.99893   0.91245   0.75131   0.00000  Uiso   1.00
O1537  O     0.68519   0.83334   0.81491   0.00000  Uiso   1.00
O1538  O     0.98148   0.83332   0.68508   0.00000  Uiso   1.00
O1539  O     0.93933   0.83333   0.81492   0.00000  Uiso   1.00
O1540  O     0.72733   0.83333   0.68508   0.00000  Uiso   1.00
C1541  C     0.97116   0.83694   0.83579   0.00000  Uiso   1.00
C1542  C     0.69549   0.83206   0.66431   0.00000  Uiso   1.00
Cu1543 Cu    0.71355   0.83334   0.75000   0.00000  Uiso   1.00
Cu1544 Cu    0.95311   0.83333   0.75000   0.00000  Uiso   1.00
C1545  C     0.95248   0.84264   0.88514   0.00000  Uiso   1.00
C1546  C     0.71413   0.82678   0.61563   0.00000  Uiso   1.00
C1547  C     0.96564   0.85141   0.95570   0.00000  Uiso   1.00
C1548  C     0.70688   0.83875   0.54275   0.00000  Uiso   1.00
C1549  C     0.98343   0.85418   0.90897   0.00000  Uiso   1.00
C1550  C     0.69548   0.85077   0.58751   0.00000  Uiso   1.00
C1551  C     0.90211   0.83725   0.90959   0.00000  Uiso   1.00
C1552  C     0.75356   0.79935   0.59568   0.00000  Uiso   1.00
C1553  C     0.88862   0.82358   0.95485   0.00000  Uiso   1.00
C1554  C     0.77461   0.79997   0.54888   0.00000  Uiso   1.00
C1555  C     0.91983   0.83396   0.97903   0.00000  Uiso   1.00
C1556  C     0.74388   0.80978   0.52444   0.00000  Uiso   1.00
C1557  C     0.84221   0.80611   0.97839   0.00000  Uiso   1.00
C1558  C     0.82560   0.80297   0.52569   0.00000  Uiso   1.00
C1559  C     0.85751   0.81235   0.54847   0.00000  Uiso   1.00
C1560  C     0.80953   0.79426   0.95684   0.00000  Uiso   1.00
C1561  C     0.90321   0.82907   0.52617   0.00000  Uiso   1.00
C1562  C     0.75908   0.79871   0.97933   0.00000  Uiso   1.00
H1563  H     0.98845   0.86252   0.97337   0.00000  Uiso   1.00
H1564  H     0.69255   0.85571   0.52071   0.00000  Uiso   1.00
H1565  H     0.84468   0.81223   0.58459   0.00000  Uiso   1.00
H1566  H     0.82312   0.78654   0.92204   0.00000  Uiso   1.00
C1567  C     0.95728   0.68962   0.75762   0.00000  Uiso   1.00
C1568  C     0.70827   0.97683   0.74689   0.00000  Uiso   1.00
H1569  H     0.92418   0.70730   0.76176   0.00000  Uiso   1.00
H1570  H     0.74123   0.95902   0.74294   0.00000  Uiso   1.00
C1571  C     0.95376   0.98063   0.75981   0.00000  Uiso   1.00
C1572  C     0.71157   0.68580   0.74634   0.00000  Uiso   1.00
C1573  C     0.99727   0.95713   0.75286   0.00000  Uiso   1.00
C1574  C     0.66842   0.70938   0.75109   0.00000  Uiso   1.00
C1575  C     0.84470   0.81513   0.78412   0.00000  Uiso   1.00
C1576  C     0.82191   0.85118   0.71552   0.00000  Uiso   1.00
C1577  C     0.79569   0.81605   0.78418   0.00000  Uiso   1.00
C1578  C     0.87092   0.85068   0.71570   0.00000  Uiso   1.00
H1579  H     0.76693   0.80198   0.81155   0.00000  Uiso   1.00
H1580  H     0.89953   0.86496   0.68837   0.00000  Uiso   1.00
N1581  N     0.78403   0.83334   0.74999   0.00000  Uiso   1.00
N1582  N     0.88264   0.83332   0.75001   0.00000  Uiso   1.00
C1583  C     0.92801   0.84755   0.55447   0.00000  Uiso   1.00
H1584  H     0.94622   0.87648   0.54456   0.00000  Uiso   1.00
O1585  O     0.92591   0.83171   0.59017   0.00000  Uiso   1.00
C1586  C     0.72297   0.79055   0.95709   0.00000  Uiso   1.00
H1587  H     0.68428   0.78979   0.97668   0.00000  Uiso   1.00
O1588  O     0.73591   0.78332   0.91720   0.00000  Uiso   1.00
C1589  C     0.76872   0.76594   0.62063   0.00000  Uiso   1.00
H1590  H     0.80347   0.75014   0.60574   0.00000  Uiso   1.00
O1591  O     0.74099   0.75329   0.65636   0.00000  Uiso   1.00
C1592  C     0.86534   0.86111   0.89514   0.00000  Uiso   1.00
H1593  H     0.82652   0.85948   0.91349   0.00000  Uiso   1.00
O1594  O     0.87819   0.88619   0.86460   0.00000  Uiso   1.00
C1595  C     0.66830   0.88961   0.60328   0.00000  Uiso   1.00
H1596  H     0.98673   0.89646   0.63856   0.00000  Uiso   1.00
O1597  O     0.99772   0.91566   0.57668   0.00000  Uiso   1.00
C1598  C     0.69843   0.87380   0.88663   0.00000  Uiso   1.00
H1599  H     0.70719   0.88752   0.85360   0.00000  Uiso   1.00
O1600  O     0.72866   0.87611   0.90551   0.00000  Uiso   1.00
C1601  C     0.90259   0.96328   0.77071   0.00000  Uiso   1.00
C1602  C     0.89023   0.95653   0.72830   0.00000  Uiso   1.00
H1603  H     0.91791   0.93642   0.70485   0.00000  Uiso   1.00
H1604  H     0.85363   0.94215   0.73713   0.00000  Uiso   1.00
H1605  H     0.88919   0.98629   0.71122   0.00000  Uiso   1.00
H1606  H     0.89722   0.93517   0.79162   0.00000  Uiso   1.00
H1607  H     0.87495   0.98501   0.79196   0.00000  Uiso   1.00
C1608  C     0.76170   0.70279   0.74184   0.00000  Uiso   1.00
C1609  C     0.76537   0.71137   0.78767   0.00000  Uiso   1.00
H1610  H     0.80177   0.72454   0.78351   0.00000  Uiso   1.00
H1611  H     0.73629   0.73308   0.80652   0.00000  Uiso   1.00
H1612  H     0.76148   0.68245   0.80740   0.00000  Uiso   1.00
H1613  H     0.79103   0.68023   0.72527   0.00000  Uiso   1.00
H1614  H     0.77163   0.72987   0.71943   0.00000  Uiso   1.00
C1615  C     0.85131   0.79392   0.82277   0.00000  Uiso   1.00
H1616  H     0.82376   0.79846   0.85506   0.00000  Uiso   1.00
O1617  O     0.88352   0.76854   0.81892   0.00000  Uiso   1.00
C1618  C     0.81443   0.87166   0.67668   0.00000  Uiso   1.00
H1619  H     0.83794   0.86377   0.64327   0.00000  Uiso   1.00
O1620  O     0.78519   0.89975   0.68126   0.00000  Uiso   1.00
loop_
_geom_bond_atom_site_label_1
_geom_bond_atom_site_label_2
_geom_bond_distance
_geom_bond_site_symmetry_2
_ccdc_geom_bond_type
O1     C5      1.297   .     A
O1     Cu13    1.981   .     S
O2     C6      1.298   .     A
O2     Cu14    1.981   .     S
O3     Cu14    1.974   .     S
O3     C95     1.315   .     S
O4     Cu13    1.974   .     S
O4     C186    1.313   1_455 S
C5     C44     1.464   .     S
C5     O183    1.315   1_455 S
C6     C43     1.462   .     S
C6     O94     1.313   .     S
O7     Cu13    1.946   .     S
O7     C191    1.312   1_455 S
O8     Cu14    1.946   .     S
O8     C102    1.307   .     S
O9     Cu14    1.965   .     S
O9     C11     1.313   .     A
O10    C12     1.305   .     A
O10    Cu13    1.965   .     S
C11    C15     1.490   .     S
C11    O97     1.312   .     S
C12    C16     1.469   .     S
C12    O188    1.307   1_455 S
Cu13   N51     2.042   .     S
Cu13   Cu194   2.718   1_455 S
Cu14   N52     2.042   .     S
Cu14   Cu103   2.718   .     S
C15    C19     1.414   .     A
C15    C21     1.415   .     A
C16    C22     1.420   .     A
C16    C20     1.413   .     A
C17    H33     1.072   .     S
C17    C25     1.407   .     A
C17    C19     1.400   .     A
C18    C26     1.398   .     A
C18    H34     1.071   .     S
C18    C20     1.409   .     A
C19    C158    1.489   .     S
C20    C65     1.488   .     S
C21    C62     1.500   .     S
C21    C23     1.423   .     A
C22    C59     1.486   .     S
C22    C24     1.404   .     A
C23    C27     1.422   .     A
C23    C25     1.418   .     A
C24    C26     1.396   .     A
C24    C28     1.416   .     A
C25    C841    1.417   .     S
C26    C842    1.403   1_554 S
C27    C30     1.405   .     A
C27    C838    1.417   .     S
C28    C29     1.393   .     A
C28    C837    1.417   1_554 S
C29    H35     1.081   .     S
C29    C31     1.389   .     A
C30    H36     1.075   .     S
C30    C32     1.401   .     A
C31    C53     1.469   .     S
C31    C835    1.417   1_554 S
C32    C56     1.476   .     S
C32    C836    1.403   .     S
C37    H39     1.084   .     S
C37    C581    1.388   1_545 S
C37    C134    1.400   .     S
C38    H40     1.083   .     S
C38    C312    1.388   .     S
C38    C223    1.399   1_455 S
C41    C71     1.520   .     S
C41    C43     1.422   .     A
C41    C307    1.388   .     S
C42    C44     1.425   .     A
C42    C78     1.523   .     S
C42    C578    1.388   1_545 S
C43    C128    1.399   .     S
C44    C217    1.400   1_455 S
C45    C47     1.420   .     A
C45    N52     1.389   .     A
C45    C85     1.467   .     S
C46    C88     1.472   .     S
C46    C48     1.422   .     A
C46    N51     1.389   .     A
C47    H49     1.082   .     S
C47    N51     1.355   .     A
C48    H50     1.082   .     S
C48    N52     1.360   .     A
C53    H54     1.079   .     S
C53    O55     1.222   .     D
C56    H57     1.084   .     S
C56    O58     1.221   .     D
C59    H60     1.085   .     S
C59    O61     1.218   .     D
C62    O64     1.221   .     D
C62    H63     1.080   .     S
C65    H246    1.083   1_455 S
C65    O247    1.221   1_455 S
H66    C155    1.083   .     S
O67    C155    1.221   .     S
C68    H69     1.084   .     S
C68    O70     1.221   .     D
C68    C199    1.489   1_455 S
C71    H76     1.106   .     S
C71    H77     1.113   .     S
C71    C72     1.527   .     S
C72    H75     1.111   .     S
C72    H74     1.111   .     S
C72    H73     1.109   .     S
C78    H83     1.113   .     S
C78    C79     1.527   .     S
C78    H84     1.105   .     S
C79    H81     1.109   .     S
C79    H82     1.111   .     S
C79    H80     1.110   .     S
C85    O87     1.217   .     D
C85    H86     1.078   .     S
C88    O90     1.218   .     D
C88    H89     1.084   .     S
O91    C95     1.297   .     A
O91    Cu103   1.981   .     S
O92    C96     1.298   .     A
O92    Cu104   1.981   .     S
O93    Cu104   1.974   .     S
O93    C185    1.315   .     S
O94    Cu103   1.974   .     S
C95    C134    1.464   .     S
C96    C133    1.462   .     S
C96    O184    1.313   .     S
O97    Cu103   1.946   .     S
O98    Cu104   1.946   .     S
O98    C192    1.307   .     S
O99    Cu104   1.965   .     S
O99    C101    1.313   .     A
O100   C102    1.305   .     A
O100   Cu103   1.965   .     S
C101   C105    1.490   .     S
C101   O187    1.312   .     S
C102   C106    1.469   .     S
Cu103  N141    2.042   .     S
Cu104  N142    2.042   .     S
Cu104  Cu193   2.718   .     S
C105   C109    1.414   .     A
C105   C111    1.415   .     A
C106   C112    1.420   .     A
C106   C110    1.413   .     A
C107   H123    1.072   .     S
C107   C115    1.407   .     A
C107   C109    1.400   .     A
C108   C116    1.398   .     A
C108   H124    1.071   .     S
C108   C110    1.409   .     A
C109   C248    1.489   .     S
C110   C155    1.488   .     S
C111   C152    1.500   .     S
C111   C113    1.423   .     A
C112   C149    1.486   .     S
C112   C114    1.404   .     A
C113   C117    1.422   .     A
C113   C115    1.418   .     A
C114   C116    1.396   .     A
C114   C118    1.416   .     A
C115   C931    1.417   .     S
C116   C932    1.403   1_554 S
C117   C120    1.405   .     A
C117   C928    1.417   .     S
C118   C119    1.393   .     A
C118   C927    1.417   1_554 S
C119   H125    1.081   .     S
C119   C121    1.389   .     A
C120   H126    1.075   .     S
C120   C122    1.401   .     A
C121   C143    1.469   .     S
C121   C925    1.417   1_554 S
C122   C146    1.476   .     S
C122   C926    1.403   .     S
C127   H129    1.084   .     S
C127   C671    1.388   1_545 S
C127   C224    1.400   .     S
C128   H130    1.083   .     S
C128   C402    1.388   .     S
C131   C161    1.520   .     S
C131   C133    1.422   .     A
C131   C397    1.388   .     S
C132   C134    1.425   .     A
C132   C168    1.523   .     S
C132   C668    1.388   1_545 S
C133   C218    1.399   .     S
C135   C137    1.420   .     A
C135   N142    1.389   .     A
C135   C175    1.467   .     S
C136   C178    1.472   .     S
C136   C138    1.422   .     A
C136   N141    1.389   .     A
C137   H139    1.082   .     S
C137   N141    1.355   .     A
C138   H140    1.082   .     S
C138   N142    1.360   .     A
C143   H144    1.079   .     S
C143   O145    1.222   .     D
C146   H147    1.084   .     S
C146   O148    1.221   .     D
C149   H150    1.085   .     S
C149   O151    1.218   .     D
C152   O154    1.221   .     D
C152   H153    1.080   .     S
H156   C245    1.083   .     S
O157   C245    1.221   .     S
C158   H159    1.084   .     S
C158   O160    1.221   .     D
C161   H166    1.106   .     S
C161   H167    1.113   .     S
C161   C162    1.527   .     S
C162   H165    1.111   .     S
C162   H164    1.111   .     S
C162   H163    1.109   .     S
C168   H173    1.113   .     S
C168   C169    1.527   .     S
C168   H174    1.105   .     S
C169   H171    1.109   .     S
C169   H172    1.111   .     S
C169   H170    1.110   .     S
C175   O177    1.217   .     D
C175   H176    1.078   .     S
C178   O180    1.218   .     D
C178   H179    1.084   .     S
O181   C185    1.297   .     A
O181   Cu193   1.981   .     S
O182   C186    1.298   .     A
O182   Cu194   1.981   .     S
O183   Cu194   1.974   .     S
O183   C5      1.315   1_655 S
O184   Cu193   1.974   .     S
C185   C224    1.464   .     S
C186   C223    1.462   .     S
C186   O4      1.313   1_655 S
O187   Cu193   1.946   .     S
O188   Cu194   1.946   .     S
O188   C12     1.307   1_655 S
O189   Cu194   1.965   .     S
O189   C191    1.313   .     A
O190   C192    1.305   .     A
O190   Cu193   1.965   .     S
C191   C195    1.490   .     S
C191   O7      1.312   1_655 S
C192   C196    1.469   .     S
Cu193  N231    2.042   .     S
Cu194  N232    2.042   .     S
Cu194  Cu13    2.718   1_655 S
C195   C199    1.414   .     A
C195   C201    1.415   .     A
C196   C202    1.420   .     A
C196   C200    1.413   .     A
C197   H213    1.072   .     S
C197   C205    1.407   .     A
C197   C199    1.400   .     A
C198   C206    1.398   .     A
C198   H214    1.071   .     S
C198   C200    1.409   .     A
C199   C68     1.489   1_655 S
C200   C245    1.488   .     S
C201   C242    1.500   .     S
C201   C203    1.423   .     A
C202   C239    1.486   .     S
C202   C204    1.404   .     A
C203   C207    1.422   .     A
C203   C205    1.418   .     A
C204   C206    1.396   .     A
C204   C208    1.416   .     A
C205   C1021   1.417   .     S
C206   C1022   1.403   1_554 S
C207   C210    1.405   .     A
C207   C1018   1.417   .     S
C208   C209    1.393   .     A
C208   C1017   1.417   1_554 S
C209   H215    1.081   .     S
C209   C211    1.389   .     A
C210   H216    1.075   .     S
C210   C212    1.401   .     A
C211   C233    1.469   .     S
C211   C1015   1.417   1_554 S
C212   C236    1.476   .     S
C212   C1016   1.403   .     S
C217   H219    1.084   .     S
C217   C761    1.388   1_545 S
C217   C44     1.400   1_655 S
C218   H220    1.083   .     S
C218   C492    1.388   .     S
C221   C251    1.520   .     S
C221   C223    1.422   .     A
C221   C487    1.388   .     S
C222   C224    1.425   .     A
C222   C258    1.523   .     S
C222   C758    1.388   1_545 S
C223   C38     1.399   1_655 S
C225   C227    1.420   .     A
C225   N232    1.389   .     A
C225   C265    1.467   .     S
C226   C268    1.472   .     S
C226   C228    1.422   .     A
C226   N231    1.389   .     A
C227   H229    1.082   .     S
C227   N231    1.355   .     A
C228   H230    1.082   .     S
C228   N232    1.360   .     A
C233   H234    1.079   .     S
C233   O235    1.222   .     D
C236   H237    1.084   .     S
C236   O238    1.221   .     D
C239   H240    1.085   .     S
C239   O241    1.218   .     D
C242   O244    1.221   .     D
C242   H243    1.080   .     S
H246   C65     1.083   1_655 S
O247   C65     1.221   1_655 S
C248   H249    1.084   .     S
C248   O250    1.221   .     D
C251   H256    1.106   .     S
C251   H257    1.113   .     S
C251   C252    1.527   .     S
C252   H255    1.111   .     S
C252   H254    1.111   .     S
C252   H253    1.109   .     S
C258   H263    1.113   .     S
C258   C259    1.527   .     S
C258   H264    1.105   .     S
C259   H261    1.109   .     S
C259   H262    1.111   .     S
C259   H260    1.110   .     S
C265   O267    1.217   .     D
C265   H266    1.078   .     S
C268   O270    1.218   .     D
C268   H269    1.084   .     S
O271   C275    1.297   .     A
O271   Cu283   1.981   .     S
O272   C276    1.298   .     A
O272   Cu284   1.981   .     S
O273   Cu284   1.974   .     S
O273   C365    1.315   .     S
O274   Cu283   1.974   .     S
O274   C456    1.313   1_455 S
C275   C314    1.464   .     S
C275   O453    1.315   1_455 S
C276   C313    1.462   .     S
C276   O364    1.313   .     S
O277   Cu283   1.946   .     S
O277   C461    1.312   1_455 S
O278   Cu284   1.946   .     S
O278   C372    1.307   .     S
O279   Cu284   1.965   .     S
O279   C281    1.313   .     A
O280   C282    1.305   .     A
O280   Cu283   1.965   .     S
C281   C285    1.490   .     S
C281   O367    1.312   .     S
C282   C286    1.469   .     S
C282   O458    1.307   1_455 S
Cu283  N321    2.042   .     S
Cu283  Cu464   2.718   1_455 S
Cu284  N322    2.042   .     S
Cu284  Cu373   2.718   .     S
C285   C289    1.414   .     A
C285   C291    1.415   .     A
C286   C292    1.420   .     A
C286   C290    1.413   .     A
C287   H303    1.072   .     S
C287   C295    1.407   .     A
C287   C289    1.400   .     A
C288   C296    1.398   .     A
C288   H304    1.071   .     S
C288   C290    1.409   .     A
C289   C428    1.489   .     S
C290   C335    1.488   .     S
C291   C332    1.500   .     S
C291   C293    1.423   .     A
C292   C329    1.486   .     S
C292   C294    1.404   .     A
C293   C297    1.422   .     A
C293   C295    1.418   .     A
C294   C296    1.396   .     A
C294   C298    1.416   .     A
C295   C1111   1.417   .     S
C296   C1112   1.403   1_554 S
C297   C300    1.405   .     A
C297   C1108   1.417   .     S
C298   C299    1.393   .     A
C298   C1107   1.417   1_554 S
C299   H305    1.081   .     S
C299   C301    1.389   .     A
C300   H306    1.075   .     S
C300   C302    1.401   .     A
C301   C323    1.469   .     S
C301   C1105   1.417   1_554 S
C302   C326    1.476   .     S
C302   C1106   1.403   .     S
C307   H309    1.084   .     S
C307   C404    1.400   .     S
C308   H310    1.083   .     S
C308   C582    1.388   .     S
C308   C493    1.399   1_455 S
C311   C341    1.520   .     S
C311   C313    1.422   .     A
C311   C577    1.388   .     S
C312   C314    1.425   .     A
C312   C348    1.523   .     S
C313   C398    1.399   .     S
C314   C487    1.400   1_455 S
C315   C317    1.420   .     A
C315   N322    1.389   .     A
C315   C355    1.467   .     S
C316   C358    1.472   .     S
C316   C318    1.422   .     A
C316   N321    1.389   .     A
C317   H319    1.082   .     S
C317   N321    1.355   .     A
C318   H320    1.082   .     S
C318   N322    1.360   .     A
C323   H324    1.079   .     S
C323   O325    1.222   .     D
C326   H327    1.084   .     S
C326   O328    1.221   .     D
C329   H330    1.085   .     S
C329   O331    1.218   .     D
C332   O334    1.221   .     D
C332   H333    1.080   .     S
C335   H516    1.083   1_455 S
C335   O517    1.221   1_455 S
H336   C425    1.083   .     S
O337   C425    1.221   .     S
C338   H339    1.084   .     S
C338   O340    1.221   .     D
C338   C469    1.489   1_455 S
C341   H346    1.106   .     S
C341   H347    1.113   .     S
C341   C342    1.527   .     S
C342   H345    1.111   .     S
C342   H344    1.111   .     S
C342   H343    1.109   .     S
C348   H353    1.113   .     S
C348   C349    1.527   .     S
C348   H354    1.105   .     S
C349   H351    1.109   .     S
C349   H352    1.111   .     S
C349   H350    1.110   .     S
C355   O357    1.217   .     D
C355   H356    1.078   .     S
C358   O360    1.218   .     D
C358   H359    1.084   .     S
O361   C365    1.297   .     A
O361   Cu373   1.981   .     S
O362   C366    1.298   .     A
O362   Cu374   1.981   .     S
O363   Cu374   1.974   .     S
O363   C455    1.315   .     S
O364   Cu373   1.974   .     S
C365   C404    1.464   .     S
C366   C403    1.462   .     S
C366   O454    1.313   .     S
O367   Cu373   1.946   .     S
O368   Cu374   1.946   .     S
O368   C462    1.307   .     S
O369   Cu374   1.965   .     S
O369   C371    1.313   .     A
O370   C372    1.305   .     A
O370   Cu373   1.965   .     S
C371   C375    1.490   .     S
C371   O457    1.312   .     S
C372   C376    1.469   .     S
Cu373  N411    2.042   .     S
Cu374  N412    2.042   .     S
Cu374  Cu463   2.718   .     S
C375   C379    1.414   .     A
C375   C381    1.415   .     A
C376   C382    1.420   .     A
C376   C380    1.413   .     A
C377   H393    1.072   .     S
C377   C385    1.407   .     A
C377   C379    1.400   .     A
C378   C386    1.398   .     A
C378   H394    1.071   .     S
C378   C380    1.409   .     A
C379   C518    1.489   .     S
C380   C425    1.488   .     S
C381   C422    1.500   .     S
C381   C383    1.423   .     A
C382   C419    1.486   .     S
C382   C384    1.404   .     A
C383   C387    1.422   .     A
C383   C385    1.418   .     A
C384   C386    1.396   .     A
C384   C388    1.416   .     A
C385   C1201   1.417   .     S
C386   C1202   1.403   1_554 S
C387   C390    1.405   .     A
C387   C1198   1.417   .     S
C388   C389    1.393   .     A
C388   C1197   1.417   1_554 S
C389   H395    1.081   .     S
C389   C391    1.389   .     A
C390   H396    1.075   .     S
C390   C392    1.401   .     A
C391   C413    1.469   .     S
C391   C1195   1.417   1_554 S
C392   C416    1.476   .     S
C392   C1196   1.403   .     S
C397   H399    1.084   .     S
C397   C494    1.400   .     S
C398   H400    1.083   .     S
C398   C672    1.388   .     S
C401   C431    1.520   .     S
C401   C403    1.422   .     A
C401   C667    1.388   .     S
C402   C404    1.425   .     A
C402   C438    1.523   .     S
C403   C488    1.399   .     S
C405   C407    1.420   .     A
C405   N412    1.389   .     A
C405   C445    1.467   .     S
C406   C448    1.472   .     S
C406   C408    1.422   .     A
C406   N411    1.389   .     A
C407   H409    1.082   .     S
C407   N411    1.355   .     A
C408   H410    1.082   .     S
C408   N412    1.360   .     A
C413   H414    1.079   .     S
C413   O415    1.222   .     D
C416   H417    1.084   .     S
C416   O418    1.221   .     D
C419   H420    1.085   .     S
C419   O421    1.218   .     D
C422   O424    1.221   .     D
C422   H423    1.080   .     S
H426   C515    1.083   .     S
O427   C515    1.221   .     S
C428   H429    1.084   .     S
C428   O430    1.221   .     D
C431   H436    1.106   .     S
C431   H437    1.113   .     S
C431   C432    1.527   .     S
C432   H435    1.111   .     S
C432   H434    1.111   .     S
C432   H433    1.109   .     S
C438   H443    1.113   .     S
C438   C439    1.527   .     S
C438   H444    1.105   .     S
C439   H441    1.109   .     S
C439   H442    1.111   .     S
C439   H440    1.110   .     S
C445   O447    1.217   .     D
C445   H446    1.078   .     S
C448   O450    1.218   .     D
C448   H449    1.084   .     S
O451   C455    1.297   .     A
O451   Cu463   1.981   .     S
O452   C456    1.298   .     A
O452   Cu464   1.981   .     S
O453   Cu464   1.974   .     S
O453   C275    1.315   1_655 S
O454   Cu463   1.974   .     S
C455   C494    1.464   .     S
C456   C493    1.462   .     S
C456   O274    1.313   1_655 S
O457   Cu463   1.946   .     S
O458   Cu464   1.946   .     S
O458   C282    1.307   1_655 S
O459   Cu464   1.965   .     S
O459   C461    1.313   .     A
O460   C462    1.305   .     A
O460   Cu463   1.965   .     S
C461   C465    1.490   .     S
C461   O277    1.312   1_655 S
C462   C466    1.469   .     S
Cu463  N501    2.042   .     S
Cu464  N502    2.042   .     S
Cu464  Cu283   2.718   1_655 S
C465   C469    1.414   .     A
C465   C471    1.415   .     A
C466   C472    1.420   .     A
C466   C470    1.413   .     A
C467   H483    1.072   .     S
C467   C475    1.407   .     A
C467   C469    1.400   .     A
C468   C476    1.398   .     A
C468   H484    1.071   .     S
C468   C470    1.409   .     A
C469   C338    1.489   1_655 S
C470   C515    1.488   .     S
C471   C512    1.500   .     S
C471   C473    1.423   .     A
C472   C509    1.486   .     S
C472   C474    1.404   .     A
C473   C477    1.422   .     A
C473   C475    1.418   .     A
C474   C476    1.396   .     A
C474   C478    1.416   .     A
C475   C1291   1.417   .     S
C476   C1292   1.403   1_554 S
C477   C480    1.405   .     A
C477   C1288   1.417   .     S
C478   C479    1.393   .     A
C478   C1287   1.417   1_554 S
C479   H485    1.081   .     S
C479   C481    1.389   .     A
C480   H486    1.075   .     S
C480   C482    1.401   .     A
C481   C503    1.469   .     S
C481   C1285   1.417   1_554 S
C482   C506    1.476   .     S
C482   C1286   1.403   .     S
C487   H489    1.084   .     S
C487   C314    1.400   1_655 S
C488   H490    1.083   .     S
C488   C762    1.388   .     S
C491   C521    1.520   .     S
C491   C493    1.422   .     A
C491   C757    1.388   .     S
C492   C494    1.425   .     A
C492   C528    1.523   .     S
C493   C308    1.399   1_655 S
C495   C497    1.420   .     A
C495   N502    1.389   .     A
C495   C535    1.467   .     S
C496   C538    1.472   .     S
C496   C498    1.422   .     A
C496   N501    1.389   .     A
C497   H499    1.082   .     S
C497   N501    1.355   .     A
C498   H500    1.082   .     S
C498   N502    1.360   .     A
C503   H504    1.079   .     S
C503   O505    1.222   .     D
C506   H507    1.084   .     S
C506   O508    1.221   .     D
C509   H510    1.085   .     S
C509   O511    1.218   .     D
C512   O514    1.221   .     D
C512   H513    1.080   .     S
H516   C335    1.083   1_655 S
O517   C335    1.221   1_655 S
C518   H519    1.084   .     S
C518   O520    1.221   .     D
C521   H526    1.106   .     S
C521   H527    1.113   .     S
C521   C522    1.527   .     S
C522   H525    1.111   .     S
C522   H524    1.111   .     S
C522   H523    1.109   .     S
C528   H533    1.113   .     S
C528   C529    1.527   .     S
C528   H534    1.105   .     S
C529   H531    1.109   .     S
C529   H532    1.111   .     S
C529   H530    1.110   .     S
C535   O537    1.217   .     D
C535   H536    1.078   .     S
C538   O540    1.218   .     D
C538   H539    1.084   .     S
O541   C545    1.297   .     A
O541   Cu553   1.981   .     S
O542   C546    1.298   .     A
O542   Cu554   1.981   .     S
O543   Cu554   1.974   .     S
O543   C635    1.315   .     S
O544   Cu553   1.974   .     S
O544   C726    1.313   1_455 S
C545   C584    1.464   .     S
C545   O723    1.315   1_455 S
C546   C583    1.462   .     S
C546   O634    1.313   .     S
O547   Cu553   1.946   .     S
O547   C731    1.312   1_455 S
O548   Cu554   1.946   .     S
O548   C642    1.307   .     S
O549   Cu554   1.965   .     S
O549   C551    1.313   .     A
O550   C552    1.305   .     A
O550   Cu553   1.965   .     S
C551   C555    1.490   .     S
C551   O637    1.312   .     S
C552   C556    1.469   .     S
C552   O728    1.307   1_455 S
Cu553  N591    2.042   .     S
Cu553  Cu734   2.718   1_455 S
Cu554  N592    2.042   .     S
Cu554  Cu643   2.718   .     S
C555   C559    1.414   .     A
C555   C561    1.415   .     A
C556   C562    1.420   .     A
C556   C560    1.413   .     A
C557   H573    1.072   .     S
C557   C565    1.407   .     A
C557   C559    1.400   .     A
C558   C566    1.398   .     A
C558   H574    1.071   .     S
C558   C560    1.409   .     A
C559   C698    1.489   .     S
C560   C605    1.488   .     S
C561   C602    1.500   .     S
C561   C563    1.423   .     A
C562   C599    1.486   .     S
C562   C564    1.404   .     A
C563   C567    1.422   .     A
C563   C565    1.418   .     A
C564   C566    1.396   .     A
C564   C568    1.416   .     A
C565   C1381   1.417   .     S
C566   C1382   1.403   1_554 S
C567   C570    1.405   .     A
C567   C1378   1.417   .     S
C568   C569    1.393   .     A
C568   C1377   1.417   1_554 S
C569   H575    1.081   .     S
C569   C571    1.389   .     A
C570   H576    1.075   .     S
C570   C572    1.401   .     A
C571   C593    1.469   .     S
C571   C1375   1.417   1_554 S
C572   C596    1.476   .     S
C572   C1376   1.403   .     S
C577   H579    1.084   .     S
C577   C674    1.400   .     S
C578   H580    1.083   .     S
C578   C42     1.388   1_565 S
C578   C763    1.399   1_455 S
C581   C611    1.520   .     S
C581   C583    1.422   .     A
C581   C37     1.388   1_565 S
C582   C584    1.425   .     A
C582   C618    1.523   .     S
C583   C668    1.399   .     S
C584   C757    1.400   1_455 S
C585   C587    1.420   .     A
C585   N592    1.389   .     A
C585   C625    1.467   .     S
C586   C628    1.472   .     S
C586   C588    1.422   .     A
C586   N591    1.389   .     A
C587   H589    1.082   .     S
C587   N591    1.355   .     A
C588   H590    1.082   .     S
C588   N592    1.360   .     A
C593   H594    1.079   .     S
C593   O595    1.222   .     D
C596   H597    1.084   .     S
C596   O598    1.221   .     D
C599   H600    1.085   .     S
C599   O601    1.218   .     D
C602   O604    1.221   .     D
C602   H603    1.080   .     S
C605   H786    1.083   1_455 S
C605   O787    1.221   1_455 S
H606   C695    1.083   .     S
O607   C695    1.221   .     S
C608   H609    1.084   .     S
C608   O610    1.221   .     D
C608   C739    1.489   1_455 S
C611   H616    1.106   .     S
C611   H617    1.113   .     S
C611   C612    1.527   .     S
C612   H615    1.111   .     S
C612   H614    1.111   .     S
C612   H613    1.109   .     S
C618   H623    1.113   .     S
C618   C619    1.527   .     S
C618   H624    1.105   .     S
C619   H621    1.109   .     S
C619   H622    1.111   .     S
C619   H620    1.110   .     S
C625   O627    1.217   .     D
C625   H626    1.078   .     S
C628   O630    1.218   .     D
C628   H629    1.084   .     S
O631   C635    1.297   .     A
O631   Cu643   1.981   .     S
O632   C636    1.298   .     A
O632   Cu644   1.981   .     S
O633   Cu644   1.974   .     S
O633   C725    1.315   .     S
O634   Cu643   1.974   .     S
C635   C674    1.464   .     S
C636   C673    1.462   .     S
C636   O724    1.313   .     S
O637   Cu643   1.946   .     S
O638   Cu644   1.946   .     S
O638   C732    1.307   .     S
O639   Cu644   1.965   .     S
O639   C641    1.313   .     A
O640   C642    1.305   .     A
O640   Cu643   1.965   .     S
C641   C645    1.490   .     S
C641   O727    1.312   .     S
C642   C646    1.469   .     S
Cu643  N681    2.042   .     S
Cu644  N682    2.042   .     S
Cu644  Cu733   2.718   .     S
C645   C649    1.414   .     A
C645   C651    1.415   .     A
C646   C652    1.420   .     A
C646   C650    1.413   .     A
C647   H663    1.072   .     S
C647   C655    1.407   .     A
C647   C649    1.400   .     A
C648   C656    1.398   .     A
C648   H664    1.071   .     S
C648   C650    1.409   .     A
C649   C788    1.489   .     S
C650   C695    1.488   .     S
C651   C692    1.500   .     S
C651   C653    1.423   .     A
C652   C689    1.486   .     S
C652   C654    1.404   .     A
C653   C657    1.422   .     A
C653   C655    1.418   .     A
C654   C656    1.396   .     A
C654   C658    1.416   .     A
C655   C1471   1.417   .     S
C656   C1472   1.403   1_554 S
C657   C660    1.405   .     A
C657   C1468   1.417   .     S
C658   C659    1.393   .     A
C658   C1467   1.417   1_554 S
C659   H665    1.081   .     S
C659   C661    1.389   .     A
C660   H666    1.075   .     S
C660   C662    1.401   .     A
C661   C683    1.469   .     S
C661   C1465   1.417   1_554 S
C662   C686    1.476   .     S
C662   C1466   1.403   .     S
C667   H669    1.084   .     S
C667   C764    1.400   .     S
C668   H670    1.083   .     S
C668   C132    1.388   1_565 S
C671   C701    1.520   .     S
C671   C673    1.422   .     A
C671   C127    1.388   1_565 S
C672   C674    1.425   .     A
C672   C708    1.523   .     S
C673   C758    1.399   .     S
C675   C677    1.420   .     A
C675   N682    1.389   .     A
C675   C715    1.467   .     S
C676   C718    1.472   .     S
C676   C678    1.422   .     A
C676   N681    1.389   .     A
C677   H679    1.082   .     S
C677   N681    1.355   .     A
C678   H680    1.082   .     S
C678   N682    1.360   .     A
C683   H684    1.079   .     S
C683   O685    1.222   .     D
C686   H687    1.084   .     S
C686   O688    1.221   .     D
C689   H690    1.085   .     S
C689   O691    1.218   .     D
C692   O694    1.221   .     D
C692   H693    1.080   .     S
H696   C785    1.083   .     S
O697   C785    1.221   .     S
C698   H699    1.084   .     S
C698   O700    1.221   .     D
C701   H706    1.106   .     S
C701   H707    1.113   .     S
C701   C702    1.527   .     S
C702   H705    1.111   .     S
C702   H704    1.111   .     S
C702   H703    1.109   .     S
C708   H713    1.113   .     S
C708   C709    1.527   .     S
C708   H714    1.105   .     S
C709   H711    1.109   .     S
C709   H712    1.111   .     S
C709   H710    1.110   .     S
C715   O717    1.217   .     D
C715   H716    1.078   .     S
C718   O720    1.218   .     D
C718   H719    1.084   .     S
O721   C725    1.297   .     A
O721   Cu733   1.981   .     S
O722   C726    1.298   .     A
O722   Cu734   1.981   .     S
O723   Cu734   1.974   .     S
O723   C545    1.315   1_655 S
O724   Cu733   1.974   .     S
C725   C764    1.464   .     S
C726   C763    1.462   .     S
C726   O544    1.313   1_655 S
O727   Cu733   1.946   .     S
O728   Cu734   1.946   .     S
O728   C552    1.307   1_655 S
O729   Cu734   1.965   .     S
O729   C731    1.313   .     A
O730   C732    1.305   .     A
O730   Cu733   1.965   .     S
C731   C735    1.490   .     S
C731   O547    1.312   1_655 S
C732   C736    1.469   .     S
Cu733  N771    2.042   .     S
Cu734  N772    2.042   .     S
Cu734  Cu553   2.718   1_655 S
C735   C739    1.414   .     A
C735   C741    1.415   .     A
C736   C742    1.420   .     A
C736   C740    1.413   .     A
C737   H753    1.072   .     S
C737   C745    1.407   .     A
C737   C739    1.400   .     A
C738   C746    1.398   .     A
C738   H754    1.071   .     S
C738   C740    1.409   .     A
C739   C608    1.489   1_655 S
C740   C785    1.488   .     S
C741   C782    1.500   .     S
C741   C743    1.423   .     A
C742   C779    1.486   .     S
C742   C744    1.404   .     A
C743   C747    1.422   .     A
C743   C745    1.418   .     A
C744   C746    1.396   .     A
C744   C748    1.416   .     A
C745   C1561   1.417   .     S
C746   C1562   1.403   1_554 S
C747   C750    1.405   .     A
C747   C1558   1.417   .     S
C748   C749    1.393   .     A
C748   C1557   1.417   1_554 S
C749   H755    1.081   .     S
C749   C751    1.389   .     A
C750   H756    1.075   .     S
C750   C752    1.401   .     A
C751   C773    1.469   .     S
C751   C1555   1.417   1_554 S
C752   C776    1.476   .     S
C752   C1556   1.403   .     S
C757   H759    1.084   .     S
C757   C584    1.400   1_655 S
C758   H760    1.083   .     S
C758   C222    1.388   1_565 S
C761   C791    1.520   .     S
C761   C763    1.422   .     A
C761   C217    1.388   1_565 S
C762   C764    1.425   .     A
C762   C798    1.523   .     S
C763   C578    1.399   1_655 S
C765   C767    1.420   .     A
C765   N772    1.389   .     A
C765   C805    1.467   .     S
C766   C808    1.472   .     S
C766   C768    1.422   .     A
C766   N771    1.389   .     A
C767   H769    1.082   .     S
C767   N771    1.355   .     A
C768   H770    1.082   .     S
C768   N772    1.360   .     A
C773   H774    1.079   .     S
C773   O775    1.222   .     D
C776   H777    1.084   .     S
C776   O778    1.221   .     D
C779   H780    1.085   .     S
C779   O781    1.218   .     D
C782   O784    1.221   .     D
C782   H783    1.080   .     S
H786   C605    1.083   1_655 S
O787   C605    1.221   1_655 S
C788   H789    1.084   .     S
C788   O790    1.221   .     D
C791   H796    1.106   .     S
C791   H797    1.113   .     S
C791   C792    1.527   .     S
C792   H795    1.111   .     S
C792   H794    1.111   .     S
C792   H793    1.109   .     S
C798   H803    1.113   .     S
C798   C799    1.527   .     S
C798   H804    1.105   .     S
C799   H801    1.109   .     S
C799   H802    1.111   .     S
C799   H800    1.110   .     S
C805   O807    1.217   .     D
C805   H806    1.078   .     S
C808   O810    1.218   .     D
C808   H809    1.084   .     S
O811   C815    1.297   .     A
O811   Cu823   1.981   .     S
O812   C816    1.298   .     A
O812   Cu824   1.981   .     S
O813   Cu824   1.974   .     S
O813   C905    1.315   .     S
O814   Cu823   1.974   .     S
O814   C996    1.313   1_455 S
C815   C854    1.464   .     S
C815   O993    1.315   1_455 S
C816   C853    1.462   .     S
C816   O904    1.313   .     S
O817   Cu823   1.946   .     S
O817   C1001   1.312   1_455 S
O818   Cu824   1.946   .     S
O818   C912    1.307   .     S
O819   Cu824   1.965   .     S
O819   C821    1.313   .     A
O820   C822    1.305   .     A
O820   Cu823   1.965   .     S
C821   C825    1.490   .     S
C821   O907    1.312   .     S
C822   C826    1.469   .     S
C822   O998    1.307   1_455 S
Cu823  N861    2.042   .     S
Cu823  Cu1004  2.718   1_455 S
Cu824  N862    2.042   .     S
Cu824  Cu913   2.718   .     S
C825   C829    1.414   .     A
C825   C831    1.415   .     A
C826   C832    1.420   .     A
C826   C830    1.413   .     A
C827   H843    1.072   .     S
C827   C835    1.407   .     A
C827   C829    1.400   .     A
C828   C836    1.398   .     A
C828   H844    1.071   .     S
C828   C830    1.409   .     A
C829   C968    1.489   .     S
C830   C875    1.488   .     S
C831   C872    1.500   .     S
C831   C833    1.423   .     A
C832   C869    1.486   .     S
C832   C834    1.404   .     A
C833   C837    1.422   .     A
C833   C835    1.418   .     A
C834   C836    1.396   .     A
C834   C838    1.416   .     A
C835   C31     1.417   1_556 S
C837   C840    1.405   .     A
C837   C28     1.417   1_556 S
C838   C839    1.393   .     A
C839   H845    1.081   .     S
C839   C841    1.389   .     A
C840   H846    1.075   .     S
C840   C842    1.401   .     A
C841   C863    1.469   .     S
C842   C866    1.476   .     S
C842   C26     1.403   1_556 S
C847   H849    1.084   .     S
C847   C1391   1.388   1_545 S
C847   C944    1.400   .     S
C848   H850    1.083   .     S
C848   C1122   1.388   .     S
C848   C1033   1.399   1_455 S
C851   C881    1.520   .     S
C851   C853    1.422   .     A
C851   C1117   1.388   .     S
C852   C854    1.425   .     A
C852   C888    1.523   .     S
C852   C1388   1.388   1_545 S
C853   C938    1.399   .     S
C854   C1027   1.400   1_455 S
C855   C857    1.420   .     A
C855   N862    1.389   .     A
C855   C895    1.467   .     S
C856   C898    1.472   .     S
C856   C858    1.422   .     A
C856   N861    1.389   .     A
C857   H859    1.082   .     S
C857   N861    1.355   .     A
C858   H860    1.082   .     S
C858   N862    1.360   .     A
C863   H864    1.079   .     S
C863   O865    1.222   .     D
C866   H867    1.084   .     S
C866   O868    1.221   .     D
C869   H870    1.085   .     S
C869   O871    1.218   .     D
C872   O874    1.221   .     D
C872   H873    1.080   .     S
C875   H1056   1.083   1_455 S
C875   O1057   1.221   1_455 S
H876   C965    1.083   .     S
O877   C965    1.221   .     S
C878   H879    1.084   .     S
C878   O880    1.221   .     D
C878   C1009   1.489   1_455 S
C881   H886    1.106   .     S
C881   H887    1.113   .     S
C881   C882    1.527   .     S
C882   H885    1.111   .     S
C882   H884    1.111   .     S
C882   H883    1.109   .     S
C888   H893    1.113   .     S
C888   C889    1.527   .     S
C888   H894    1.105   .     S
C889   H891    1.109   .     S
C889   H892    1.111   .     S
C889   H890    1.110   .     S
C895   O897    1.217   .     D
C895   H896    1.078   .     S
C898   O900    1.218   .     D
C898   H899    1.084   .     S
O901   C905    1.297   .     A
O901   Cu913   1.981   .     S
O902   C906    1.298   .     A
O902   Cu914   1.981   .     S
O903   Cu914   1.974   .     S
O903   C995    1.315   .     S
O904   Cu913   1.974   .     S
C905   C944    1.464   .     S
C906   C943    1.462   .     S
C906   O994    1.313   .     S
O907   Cu913   1.946   .     S
O908   Cu914   1.946   .     S
O908   C1002   1.307   .     S
O909   Cu914   1.965   .     S
O909   C911    1.313   .     A
O910   C912    1.305   .     A
O910   Cu913   1.965   .     S
C911   C915    1.490   .     S
C911   O997    1.312   .     S
C912   C916    1.469   .     S
Cu913  N951    2.042   .     S
Cu914  N952    2.042   .     S
Cu914  Cu1003  2.718   .     S
C915   C919    1.414   .     A
C915   C921    1.415   .     A
C916   C922    1.420   .     A
C916   C920    1.413   .     A
C917   H933    1.072   .     S
C917   C925    1.407   .     A
C917   C919    1.400   .     A
C918   C926    1.398   .     A
C918   H934    1.071   .     S
C918   C920    1.409   .     A
C919   C1058   1.489   .     S
C920   C965    1.488   .     S
C921   C962    1.500   .     S
C921   C923    1.423   .     A
C922   C959    1.486   .     S
C922   C924    1.404   .     A
C923   C927    1.422   .     A
C923   C925    1.418   .     A
C924   C926    1.396   .     A
C924   C928    1.416   .     A
C925   C121    1.417   1_556 S
C927   C930    1.405   .     A
C927   C118    1.417   1_556 S
C928   C929    1.393   .     A
C929   H935    1.081   .     S
C929   C931    1.389   .     A
C930   H936    1.075   .     S
C930   C932    1.401   .     A
C931   C953    1.469   .     S
C932   C956    1.476   .     S
C932   C116    1.403   1_556 S
C937   H939    1.084   .     S
C937   C1481   1.388   1_545 S
C937   C1034   1.400   .     S
C938   H940    1.083   .     S
C938   C1212   1.388   .     S
C941   C971    1.520   .     S
C941   C943    1.422   .     A
C941   C1207   1.388   .     S
C942   C944    1.425   .     A
C942   C978    1.523   .     S
C942   C1478   1.388   1_545 S
C943   C1028   1.399   .     S
C945   C947    1.420   .     A
C945   N952    1.389   .     A
C945   C985    1.467   .     S
C946   C988    1.472   .     S
C946   C948    1.422   .     A
C946   N951    1.389   .     A
C947   H949    1.082   .     S
C947   N951    1.355   .     A
C948   H950    1.082   .     S
C948   N952    1.360   .     A
C953   H954    1.079   .     S
C953   O955    1.222   .     D
C956   H957    1.084   .     S
C956   O958    1.221   .     D
C959   H960    1.085   .     S
C959   O961    1.218   .     D
C962   O964    1.221   .     D
C962   H963    1.080   .     S
H966   C1055   1.083   .     S
O967   C1055   1.221   .     S
C968   H969    1.084   .     S
C968   O970    1.221   .     D
C971   H976    1.106   .     S
C971   H977    1.113   .     S
C971   C972    1.527   .     S
C972   H975    1.111   .     S
C972   H974    1.111   .     S
C972   H973    1.109   .     S
C978   H983    1.113   .     S
C978   C979    1.527   .     S
C978   H984    1.105   .     S
C979   H981    1.109   .     S
C979   H982    1.111   .     S
C979   H980    1.110   .     S
C985   O987    1.217   .     D
C985   H986    1.078   .     S
C988   O990    1.218   .     D
C988   H989    1.084   .     S
O991   C995    1.297   .     A
O991   Cu1003  1.981   .     S
O992   C996    1.298   .     A
O992   Cu1004  1.981   .     S
O993   Cu1004  1.974   .     S
O993   C815    1.315   1_655 S
O994   Cu1003  1.974   .     S
C995   C1034   1.464   .     S
C996   C1033   1.462   .     S
C996   O814    1.313   1_655 S
O997   Cu1003  1.946   .     S
O998   Cu1004  1.946   .     S
O998   C822    1.307   1_655 S
O999   Cu1004  1.965   .     S
O999   C1001   1.313   .     A
O1000  C1002   1.305   .     A
O1000  Cu1003  1.965   .     S
C1001  C1005   1.490   .     S
C1001  O817    1.312   1_655 S
C1002  C1006   1.469   .     S
Cu1003 N1041   2.042   .     S
Cu1004 N1042   2.042   .     S
Cu1004 Cu823   2.718   1_655 S
C1005  C1009   1.414   .     A
C1005  C1011   1.415   .     A
C1006  C1012   1.420   .     A
C1006  C1010   1.413   .     A
C1007  H1023   1.072   .     S
C1007  C1015   1.407   .     A
C1007  C1009   1.400   .     A
C1008  C1016   1.398   .     A
C1008  H1024   1.071   .     S
C1008  C1010   1.409   .     A
C1009  C878    1.489   1_655 S
C1010  C1055   1.488   .     S
C1011  C1052   1.500   .     S
C1011  C1013   1.423   .     A
C1012  C1049   1.486   .     S
C1012  C1014   1.404   .     A
C1013  C1017   1.422   .     A
C1013  C1015   1.418   .     A
C1014  C1016   1.396   .     A
C1014  C1018   1.416   .     A
C1015  C211    1.417   1_556 S
C1017  C1020   1.405   .     A
C1017  C208    1.417   1_556 S
C1018  C1019   1.393   .     A
C1019  H1025   1.081   .     S
C1019  C1021   1.389   .     A
C1020  H1026   1.075   .     S
C1020  C1022   1.401   .     A
C1021  C1043   1.469   .     S
C1022  C1046   1.476   .     S
C1022  C206    1.403   1_556 S
C1027  H1029   1.084   .     S
C1027  C1571   1.388   1_545 S
C1027  C854    1.400   1_655 S
C1028  H1030   1.083   .     S
C1028  C1302   1.388   .     S
C1031  C1061   1.520   .     S
C1031  C1033   1.422   .     A
C1031  C1297   1.388   .     S
C1032  C1034   1.425   .     A
C1032  C1068   1.523   .     S
C1032  C1568   1.388   1_545 S
C1033  C848    1.399   1_655 S
C1035  C1037   1.420   .     A
C1035  N1042   1.389   .     A
C1035  C1075   1.467   .     S
C1036  C1078   1.472   .     S
C1036  C1038   1.422   .     A
C1036  N1041   1.389   .     A
C1037  H1039   1.082   .     S
C1037  N1041   1.355   .     A
C1038  H1040   1.082   .     S
C1038  N1042   1.360   .     A
C1043  H1044   1.079   .     S
C1043  O1045   1.222   .     D
C1046  H1047   1.084   .     S
C1046  O1048   1.221   .     D
C1049  H1050   1.085   .     S
C1049  O1051   1.218   .     D
C1052  O1054   1.221   .     D
C1052  H1053   1.080   .     S
H1056  C875    1.083   1_655 S
O1057  C875    1.221   1_655 S
C1058  H1059   1.084   .     S
C1058  O1060   1.221   .     D
C1061  H1066   1.106   .     S
C1061  H1067   1.113   .     S
C1061  C1062   1.527   .     S
C1062  H1065   1.111   .     S
C1062  H1064   1.111   .     S
C1062  H1063   1.109   .     S
C1068  H1073   1.113   .     S
C1068  C1069   1.527   .     S
C1068  H1074   1.105   .     S
C1069  H1071   1.109   .     S
C1069  H1072   1.111   .     S
C1069  H1070   1.110   .     S
C1075  O1077   1.217   .     D
C1075  H1076   1.078   .     S
C1078  O1080   1.218   .     D
C1078  H1079   1.084   .     S
O1081  C1085   1.297   .     A
O1081  Cu1093  1.981   .     S
O1082  C1086   1.298   .     A
O1082  Cu1094  1.981   .     S
O1083  Cu1094  1.974   .     S
O1083  C1175   1.315   .     S
O1084  Cu1093  1.974   .     S
O1084  C1266   1.313   1_455 S
C1085  C1124   1.464   .     S
C1085  O1263   1.315   1_455 S
C1086  C1123   1.462   .     S
C1086  O1174   1.313   .     S
O1087  Cu1093  1.946   .     S
O1087  C1271   1.312   1_455 S
O1088  Cu1094  1.946   .     S
O1088  C1182   1.307   .     S
O1089  Cu1094  1.965   .     S
O1089  C1091   1.313   .     A
O1090  C1092   1.305   .     A
O1090  Cu1093  1.965   .     S
C1091  C1095   1.490   .     S
C1091  O1177   1.312   .     S
C1092  C1096   1.469   .     S
C1092  O1268   1.307   1_455 S
Cu1093 N1131   2.042   .     S
Cu1093 Cu1274  2.718   1_455 S
Cu1094 N1132   2.042   .     S
Cu1094 Cu1183  2.718   .     S
C1095  C1099   1.414   .     A
C1095  C1101   1.415   .     A
C1096  C1102   1.420   .     A
C1096  C1100   1.413   .     A
C1097  H1113   1.072   .     S
C1097  C1105   1.407   .     A
C1097  C1099   1.400   .     A
C1098  C1106   1.398   .     A
C1098  H1114   1.071   .     S
C1098  C1100   1.409   .     A
C1099  C1238   1.489   .     S
C1100  C1145   1.488   .     S
C1101  C1142   1.500   .     S
C1101  C1103   1.423   .     A
C1102  C1139   1.486   .     S
C1102  C1104   1.404   .     A
C1103  C1107   1.422   .     A
C1103  C1105   1.418   .     A
C1104  C1106   1.396   .     A
C1104  C1108   1.416   .     A
C1105  C301    1.417   1_556 S
C1107  C1110   1.405   .     A
C1107  C298    1.417   1_556 S
C1108  C1109   1.393   .     A
C1109  H1115   1.081   .     S
C1109  C1111   1.389   .     A
C1110  H1116   1.075   .     S
C1110  C1112   1.401   .     A
C1111  C1133   1.469   .     S
C1112  C1136   1.476   .     S
C1112  C296    1.403   1_556 S
C1117  H1119   1.084   .     S
C1117  C1214   1.400   .     S
C1118  H1120   1.083   .     S
C1118  C1392   1.388   .     S
C1118  C1303   1.399   1_455 S
C1121  C1151   1.520   .     S
C1121  C1123   1.422   .     A
C1121  C1387   1.388   .     S
C1122  C1124   1.425   .     A
C1122  C1158   1.523   .     S
C1123  C1208   1.399   .     S
C1124  C1297   1.400   1_455 S
C1125  C1127   1.420   .     A
C1125  N1132   1.389   .     A
C1125  C1165   1.467   .     S
C1126  C1168   1.472   .     S
C1126  C1128   1.422   .     A
C1126  N1131   1.389   .     A
C1127  H1129   1.082   .     S
C1127  N1131   1.355   .     A
C1128  H1130   1.082   .     S
C1128  N1132   1.360   .     A
C1133  H1134   1.079   .     S
C1133  O1135   1.222   .     D
C1136  H1137   1.084   .     S
C1136  O1138   1.221   .     D
C1139  H1140   1.085   .     S
C1139  O1141   1.218   .     D
C1142  O1144   1.221   .     D
C1142  H1143   1.080   .     S
C1145  H1326   1.083   1_455 S
C1145  O1327   1.221   1_455 S
H1146  C1235   1.083   .     S
O1147  C1235   1.221   .     S
C1148  H1149   1.084   .     S
C1148  O1150   1.221   .     D
C1148  C1279   1.489   1_455 S
C1151  H1156   1.106   .     S
C1151  H1157   1.113   .     S
C1151  C1152   1.527   .     S
C1152  H1155   1.111   .     S
C1152  H1154   1.111   .     S
C1152  H1153   1.109   .     S
C1158  H1163   1.113   .     S
C1158  C1159   1.527   .     S
C1158  H1164   1.105   .     S
C1159  H1161   1.109   .     S
C1159  H1162   1.111   .     S
C1159  H1160   1.110   .     S
C1165  O1167   1.217   .     D
C1165  H1166   1.078   .     S
C1168  O1170   1.218   .     D
C1168  H1169   1.084   .     S
O1171  C1175   1.297   .     A
O1171  Cu1183  1.981   .     S
O1172  C1176   1.298   .     A
O1172  Cu1184  1.981   .     S
O1173  Cu1184  1.974   .     S
O1173  C1265   1.315   .     S
O1174  Cu1183  1.974   .     S
C1175  C1214   1.464   .     S
C1176  C1213   1.462   .     S
C1176  O1264   1.313   .     S
O1177  Cu1183  1.946   .     S
O1178  Cu1184  1.946   .     S
O1178  C1272   1.307   .     S
O1179  Cu1184  1.965   .     S
O1179  C1181   1.313   .     A
O1180  C1182   1.305   .     A
O1180  Cu1183  1.965   .     S
C1181  C1185   1.490   .     S
C1181  O1267   1.312   .     S
C1182  C1186   1.469   .     S
Cu1183 N1221   2.042   .     S
Cu1184 N1222   2.042   .     S
Cu1184 Cu1273  2.718   .     S
C1185  C1189   1.414   .     A
C1185  C1191   1.415   .     A
C1186  C1192   1.420   .     A
C1186  C1190   1.413   .     A
C1187  H1203   1.072   .     S
C1187  C1195   1.407   .     A
C1187  C1189   1.400   .     A
C1188  C1196   1.398   .     A
C1188  H1204   1.071   .     S
C1188  C1190   1.409   .     A
C1189  C1328   1.489   .     S
C1190  C1235   1.488   .     S
C1191  C1232   1.500   .     S
C1191  C1193   1.423   .     A
C1192  C1229   1.486   .     S
C1192  C1194   1.404   .     A
C1193  C1197   1.422   .     A
C1193  C1195   1.418   .     A
C1194  C1196   1.396   .     A
C1194  C1198   1.416   .     A
C1195  C391    1.417   1_556 S
C1197  C1200   1.405   .     A
C1197  C388    1.417   1_556 S
C1198  C1199   1.393   .     A
C1199  H1205   1.081   .     S
C1199  C1201   1.389   .     A
C1200  H1206   1.075   .     S
C1200  C1202   1.401   .     A
C1201  C1223   1.469   .     S
C1202  C1226   1.476   .     S
C1202  C386    1.403   1_556 S
C1207  H1209   1.084   .     S
C1207  C1304   1.400   .     S
C1208  H1210   1.083   .     S
C1208  C1482   1.388   .     S
C1211  C1241   1.520   .     S
C1211  C1213   1.422   .     A
C1211  C1477   1.388   .     S
C1212  C1214   1.425   .     A
C1212  C1248   1.523   .     S
C1213  C1298   1.399   .     S
C1215  C1217   1.420   .     A
C1215  N1222   1.389   .     A
C1215  C1255   1.467   .     S
C1216  C1258   1.472   .     S
C1216  C1218   1.422   .     A
C1216  N1221   1.389   .     A
C1217  H1219   1.082   .     S
C1217  N1221   1.355   .     A
C1218  H1220   1.082   .     S
C1218  N1222   1.360   .     A
C1223  H1224   1.079   .     S
C1223  O1225   1.222   .     D
C1226  H1227   1.084   .     S
C1226  O1228   1.221   .     D
C1229  H1230   1.085   .     S
C1229  O1231   1.218   .     D
C1232  O1234   1.221   .     D
C1232  H1233   1.080   .     S
H1236  C1325   1.083   .     S
O1237  C1325   1.221   .     S
C1238  H1239   1.084   .     S
C1238  O1240   1.221   .     D
C1241  H1246   1.106   .     S
C1241  H1247   1.113   .     S
C1241  C1242   1.527   .     S
C1242  H1245   1.111   .     S
C1242  H1244   1.111   .     S
C1242  H1243   1.109   .     S
C1248  H1253   1.113   .     S
C1248  C1249   1.527   .     S
C1248  H1254   1.105   .     S
C1249  H1251   1.109   .     S
C1249  H1252   1.111   .     S
C1249  H1250   1.110   .     S
C1255  O1257   1.217   .     D
C1255  H1256   1.078   .     S
C1258  O1260   1.218   .     D
C1258  H1259   1.084   .     S
O1261  C1265   1.297   .     A
O1261  Cu1273  1.981   .     S
O1262  C1266   1.298   .     A
O1262  Cu1274  1.981   .     S
O1263  Cu1274  1.974   .     S
O1263  C1085   1.315   1_655 S
O1264  Cu1273  1.974   .     S
C1265  C1304   1.464   .     S
C1266  C1303   1.462   .     S
C1266  O1084   1.313   1_655 S
O1267  Cu1273  1.946   .     S
O1268  Cu1274  1.946   .     S
O1268  C1092   1.307   1_655 S
O1269  Cu1274  1.965   .     S
O1269  C1271   1.313   .     A
O1270  C1272   1.305   .     A
O1270  Cu1273  1.965   .     S
C1271  C1275   1.490   .     S
C1271  O1087   1.312   1_655 S
C1272  C1276   1.469   .     S
Cu1273 N1311   2.042   .     S
Cu1274 N1312   2.042   .     S
Cu1274 Cu1093  2.718   1_655 S
C1275  C1279   1.414   .     A
C1275  C1281   1.415   .     A
C1276  C1282   1.420   .     A
C1276  C1280   1.413   .     A
C1277  H1293   1.072   .     S
C1277  C1285   1.407   .     A
C1277  C1279   1.400   .     A
C1278  C1286   1.398   .     A
C1278  H1294   1.071   .     S
C1278  C1280   1.409   .     A
C1279  C1148   1.489   1_655 S
C1280  C1325   1.488   .     S
C1281  C1322   1.500   .     S
C1281  C1283   1.423   .     A
C1282  C1319   1.486   .     S
C1282  C1284   1.404   .     A
C1283  C1287   1.422   .     A
C1283  C1285   1.418   .     A
C1284  C1286   1.396   .     A
C1284  C1288   1.416   .     A
C1285  C481    1.417   1_556 S
C1287  C1290   1.405   .     A
C1287  C478    1.417   1_556 S
C1288  C1289   1.393   .     A
C1289  H1295   1.081   .     S
C1289  C1291   1.389   .     A
C1290  H1296   1.075   .     S
C1290  C1292   1.401   .     A
C1291  C1313   1.469   .     S
C1292  C1316   1.476   .     S
C1292  C476    1.403   1_556 S
C1297  H1299   1.084   .     S
C1297  C1124   1.400   1_655 S
C1298  H1300   1.083   .     S
C1298  C1572   1.388   .     S
C1301  C1331   1.520   .     S
C1301  C1303   1.422   .     A
C1301  C1567   1.388   .     S
C1302  C1304   1.425   .     A
C1302  C1338   1.523   .     S
C1303  C1118   1.399   1_655 S
C1305  C1307   1.420   .     A
C1305  N1312   1.389   .     A
C1305  C1345   1.467   .     S
C1306  C1348   1.472   .     S
C1306  C1308   1.422   .     A
C1306  N1311   1.389   .     A
C1307  H1309   1.082   .     S
C1307  N1311   1.355   .     A
C1308  H1310   1.082   .     S
C1308  N1312   1.360   .     A
C1313  H1314   1.079   .     S
C1313  O1315   1.222   .     D
C1316  H1317   1.084   .     S
C1316  O1318   1.221   .     D
C1319  H1320   1.085   .     S
C1319  O1321   1.218   .     D
C1322  O1324   1.221   .     D
C1322  H1323   1.080   .     S
H1326  C1145   1.083   1_655 S
O1327  C1145   1.221   1_655 S
C1328  H1329   1.084   .     S
C1328  O1330   1.221   .     D
C1331  H1336   1.106   .     S
C1331  H1337   1.113   .     S
C1331  C1332   1.527   .     S
C1332  H1335   1.111   .     S
C1332  H1334   1.111   .     S
C1332  H1333   1.109   .     S
C1338  H1343   1.113   .     S
C1338  C1339   1.527   .     S
C1338  H1344   1.105   .     S
C1339  H1341   1.109   .     S
C1339  H1342   1.111   .     S
C1339  H1340   1.110   .     S
C1345  O1347   1.217   .     D
C1345  H1346   1.078   .     S
C1348  O1350   1.218   .     D
C1348  H1349   1.084   .     S
O1351  C1355   1.297   .     A
O1351  Cu1363  1.981   .     S
O1352  C1356   1.298   .     A
O1352  Cu1364  1.981   .     S
O1353  Cu1364  1.974   .     S
O1353  C1445   1.315   .     S
O1354  Cu1363  1.974   .     S
O1354  C1536   1.313   1_455 S
C1355  C1394   1.464   .     S
C1355  O1533   1.315   1_455 S
C1356  C1393   1.462   .     S
C1356  O1444   1.313   .     S
O1357  Cu1363  1.946   .     S
O1357  C1541   1.312   1_455 S
O1358  Cu1364  1.946   .     S
O1358  C1452   1.307   .     S
O1359  Cu1364  1.965   .     S
O1359  C1361   1.313   .     A
O1360  C1362   1.305   .     A
O1360  Cu1363  1.965   .     S
C1361  C1365   1.490   .     S
C1361  O1447   1.312   .     S
C1362  C1366   1.469   .     S
C1362  O1538   1.307   1_455 S
Cu1363 N1401   2.042   .     S
Cu1363 Cu1544  2.718   1_455 S
Cu1364 N1402   2.042   .     S
Cu1364 Cu1453  2.718   .     S
C1365  C1369   1.414   .     A
C1365  C1371   1.415   .     A
C1366  C1372   1.420   .     A
C1366  C1370   1.413   .     A
C1367  H1383   1.072   .     S
C1367  C1375   1.407   .     A
C1367  C1369   1.400   .     A
C1368  C1376   1.398   .     A
C1368  H1384   1.071   .     S
C1368  C1370   1.409   .     A
C1369  C1508   1.489   .     S
C1370  C1415   1.488   .     S
C1371  C1412   1.500   .     S
C1371  C1373   1.423   .     A
C1372  C1409   1.486   .     S
C1372  C1374   1.404   .     A
C1373  C1377   1.422   .     A
C1373  C1375   1.418   .     A
C1374  C1376   1.396   .     A
C1374  C1378   1.416   .     A
C1375  C571    1.417   1_556 S
C1377  C1380   1.405   .     A
C1377  C568    1.417   1_556 S
C1378  C1379   1.393   .     A
C1379  H1385   1.081   .     S
C1379  C1381   1.389   .     A
C1380  H1386   1.075   .     S
C1380  C1382   1.401   .     A
C1381  C1403   1.469   .     S
C1382  C1406   1.476   .     S
C1382  C566    1.403   1_556 S
C1387  H1389   1.084   .     S
C1387  C1484   1.400   .     S
C1388  H1390   1.083   .     S
C1388  C852    1.388   1_565 S
C1388  C1573   1.399   1_455 S
C1391  C1421   1.520   .     S
C1391  C1393   1.422   .     A
C1391  C847    1.388   1_565 S
C1392  C1394   1.425   .     A
C1392  C1428   1.523   .     S
C1393  C1478   1.399   .     S
C1394  C1567   1.400   1_455 S
C1395  C1397   1.420   .     A
C1395  N1402   1.389   .     A
C1395  C1435   1.467   .     S
C1396  C1438   1.472   .     S
C1396  C1398   1.422   .     A
C1396  N1401   1.389   .     A
C1397  H1399   1.082   .     S
C1397  N1401   1.355   .     A
C1398  H1400   1.082   .     S
C1398  N1402   1.360   .     A
C1403  H1404   1.079   .     S
C1403  O1405   1.222   .     D
C1406  H1407   1.084   .     S
C1406  O1408   1.221   .     D
C1409  H1410   1.085   .     S
C1409  O1411   1.218   .     D
C1412  O1414   1.221   .     D
C1412  H1413   1.080   .     S
C1415  H1596   1.083   1_455 S
C1415  O1597   1.221   1_455 S
H1416  C1505   1.083   .     S
O1417  C1505   1.221   .     S
C1418  H1419   1.084   .     S
C1418  O1420   1.221   .     D
C1418  C1549   1.489   1_455 S
C1421  H1426   1.106   .     S
C1421  H1427   1.113   .     S
C1421  C1422   1.527   .     S
C1422  H1425   1.111   .     S
C1422  H1424   1.111   .     S
C1422  H1423   1.109   .     S
C1428  H1433   1.113   .     S
C1428  C1429   1.527   .     S
C1428  H1434   1.105   .     S
C1429  H1431   1.109   .     S
C1429  H1432   1.111   .     S
C1429  H1430   1.110   .     S
C1435  O1437   1.217   .     D
C1435  H1436   1.078   .     S
C1438  O1440   1.218   .     D
C1438  H1439   1.084   .     S
O1441  C1445   1.297   .     A
O1441  Cu1453  1.981   .     S
O1442  C1446   1.298   .     A
O1442  Cu1454  1.981   .     S
O1443  Cu1454  1.974   .     S
O1443  C1535   1.315   .     S
O1444  Cu1453  1.974   .     S
C1445  C1484   1.464   .     S
C1446  C1483   1.462   .     S
C1446  O1534   1.313   .     S
O1447  Cu1453  1.946   .     S
O1448  Cu1454  1.946   .     S
O1448  C1542   1.307   .     S
O1449  Cu1454  1.965   .     S
O1449  C1451   1.313   .     A
O1450  C1452   1.305   .     A
O1450  Cu1453  1.965   .     S
C1451  C1455   1.490   .     S
C1451  O1537   1.312   .     S
C1452  C1456   1.469   .     S
Cu1453 N1491   2.042   .     S
Cu1454 N1492   2.042   .     S
Cu1454 Cu1543  2.718   .     S
C1455  C1459   1.414   .     A
C1455  C1461   1.415   .     A
C1456  C1462   1.420   .     A
C1456  C1460   1.413   .     A
C1457  H1473   1.072   .     S
C1457  C1465   1.407   .     A
C1457  C1459   1.400   .     A
C1458  C1466   1.398   .     A
C1458  H1474   1.071   .     S
C1458  C1460   1.409   .     A
C1459  C1598   1.489   .     S
C1460  C1505   1.488   .     S
C1461  C1502   1.500   .     S
C1461  C1463   1.423   .     A
C1462  C1499   1.486   .     S
C1462  C1464   1.404   .     A
C1463  C1467   1.422   .     A
C1463  C1465   1.418   .     A
C1464  C1466   1.396   .     A
C1464  C1468   1.416   .     A
C1465  C661    1.417   1_556 S
C1467  C1470   1.405   .     A
C1467  C658    1.417   1_556 S
C1468  C1469   1.393   .     A
C1469  H1475   1.081   .     S
C1469  C1471   1.389   .     A
C1470  H1476   1.075   .     S
C1470  C1472   1.401   .     A
C1471  C1493   1.469   .     S
C1472  C1496   1.476   .     S
C1472  C656    1.403   1_556 S
C1477  H1479   1.084   .     S
C1477  C1574   1.400   .     S
C1478  H1480   1.083   .     S
C1478  C942    1.388   1_565 S
C1481  C1511   1.520   .     S
C1481  C1483   1.422   .     A
C1481  C937    1.388   1_565 S
C1482  C1484   1.425   .     A
C1482  C1518   1.523   .     S
C1483  C1568   1.399   .     S
C1485  C1487   1.420   .     A
C1485  N1492   1.389   .     A
C1485  C1525   1.467   .     S
C1486  C1528   1.472   .     S
C1486  C1488   1.422   .     A
C1486  N1491   1.389   .     A
C1487  H1489   1.082   .     S
C1487  N1491   1.355   .     A
C1488  H1490   1.082   .     S
C1488  N1492   1.360   .     A
C1493  H1494   1.079   .     S
C1493  O1495   1.222   .     D
C1496  H1497   1.084   .     S
C1496  O1498   1.221   .     D
C1499  H1500   1.085   .     S
C1499  O1501   1.218   .     D
C1502  O1504   1.221   .     D
C1502  H1503   1.080   .     S
H1506  C1595   1.083   .     S
O1507  C1595   1.221   .     S
C1508  H1509   1.084   .     S
C1508  O1510   1.221   .     D
C1511  H1516   1.106   .     S
C1511  H1517   1.113   .     S
C1511  C1512   1.527   .     S
C1512  H1515   1.111   .     S
C1512  H1514   1.111   .     S
C1512  H1513   1.109   .     S
C1518  H1523   1.113   .     S
C1518  C1519   1.527   .     S
C1518  H1524   1.105   .     S
C1519  H1521   1.109   .     S
C1519  H1522   1.111   .     S
C1519  H1520   1.110   .     S
C1525  O1527   1.217   .     D
C1525  H1526   1.078   .     S
C1528  O1530   1.218   .     D
C1528  H1529   1.084   .     S
O1531  C1535   1.297   .     A
O1531  Cu1543  1.981   .     S
O1532  C1536   1.298   .     A
O1532  Cu1544  1.981   .     S
O1533  Cu1544  1.974   .     S
O1533  C1355   1.315   1_655 S
O1534  Cu1543  1.974   .     S
C1535  C1574   1.464   .     S
C1536  C1573   1.462   .     S
C1536  O1354   1.313   1_655 S
O1537  Cu1543  1.946   .     S
O1538  Cu1544  1.946   .     S
O1538  C1362   1.307   1_655 S
O1539  Cu1544  1.965   .     S
O1539  C1541   1.313   .     A
O1540  C1542   1.305   .     A
O1540  Cu1543  1.965   .     S
C1541  C1545   1.490   .     S
C1541  O1357   1.312   1_655 S
C1542  C1546   1.469   .     S
Cu1543 N1581   2.042   .     S
Cu1544 N1582   2.042   .     S
Cu1544 Cu1363  2.718   1_655 S
C1545  C1549   1.414   .     A
C1545  C1551   1.415   .     A
C1546  C1552   1.420   .     A
C1546  C1550   1.413   .     A
C1547  H1563   1.072   .     S
C1547  C1555   1.407   .     A
C1547  C1549   1.400   .     A
C1548  C1556   1.398   .     A
C1548  H1564   1.071   .     S
C1548  C1550   1.409   .     A
C1549  C1418   1.489   1_655 S
C1550  C1595   1.488   .     S
C1551  C1592   1.500   .     S
C1551  C1553   1.423   .     A
C1552  C1589   1.486   .     S
C1552  C1554   1.404   .     A
C1553  C1557   1.422   .     A
C1553  C1555   1.418   .     A
C1554  C1556   1.396   .     A
C1554  C1558   1.416   .     A
C1555  C751    1.417   1_556 S
C1557  C1560   1.405   .     A
C1557  C748    1.417   1_556 S
C1558  C1559   1.393   .     A
C1559  H1565   1.081   .     S
C1559  C1561   1.389   .     A
C1560  H1566   1.075   .     S
C1560  C1562   1.401   .     A
C1561  C1583   1.469   .     S
C1562  C1586   1.476   .     S
C1562  C746    1.403   1_556 S
C1567  H1569   1.084   .     S
C1567  C1394   1.400   1_655 S
C1568  H1570   1.083   .     S
C1568  C1032   1.388   1_565 S
C1571  C1601   1.520   .     S
C1571  C1573   1.422   .     A
C1571  C1027   1.388   1_565 S
C1572  C1574   1.425   .     A
C1572  C1608   1.523   .     S
C1573  C1388   1.399   1_655 S
C1575  C1577   1.420   .     A
C1575  N1582   1.389   .     A
C1575  C1615   1.467   .     S
C1576  C1618   1.472   .     S
C1576  C1578   1.422   .     A
C1576  N1581   1.389   .     A
C1577  H1579   1.082   .     S
C1577  N1581   1.355   .     A
C1578  H1580   1.082   .     S
C1578  N1582   1.360   .     A
C1583  H1584   1.079   .     S
C1583  O1585   1.222   .     D
C1586  H1587   1.084   .     S
C1586  O1588   1.221   .     D
C1589  H1590   1.085   .     S
C1589  O1591   1.218   .     D
C1592  O1594   1.221   .     D
C1592  H1593   1.080   .     S
H1596  C1415   1.083   1_655 S
O1597  C1415   1.221   1_655 S
C1598  H1599   1.084   .     S
C1598  O1600   1.221   .     D
C1601  H1606   1.106   .     S
C1601  H1607   1.113   .     S
C1601  C1602   1.527   .     S
C1602  H1605   1.111   .     S
C1602  H1604   1.111   .     S
C1602  H1603   1.109   .     S
C1608  H1613   1.113   .     S
C1608  C1609   1.527   .     S
C1608  H1614   1.105   .     S
C1609  H1611   1.109   .     S
C1609  H1612   1.111   .     S
C1609  H1610   1.110   .     S
C1615  O1617   1.217   .     D
C1615  H1616   1.078   .     S
C1618  O1620   1.218   .     D
C1618  H1619   1.084   .     S
