data_str_m2_o10_o16_pcu_sym.10
_audit_creation_date              2020-01-03
_audit_creation_method            'Materials Studio'
_symmetry_space_group_name_H-M    'P1'
_symmetry_Int_Tables_number       1
_symmetry_cell_setting            triclinic
loop_
_symmetry_equiv_pos_as_xyz
  x,y,z
_cell_length_a                    22.2447
_cell_length_b                    26.1146
_cell_length_c                    26.7907
_cell_angle_alpha                 93.7345
_cell_angle_beta                  77.4958
_cell_angle_gamma                 102.0381
loop_
_atom_site_label
_atom_site_type_symbol
_atom_site_fract_x
_atom_site_fract_y
_atom_site_fract_z
_atom_site_U_iso_or_equiv
_atom_site_adp_type
_atom_site_occupancy
C1     C     0.18172   0.26633   0.24958   0.00000  Uiso   1.00
C2     C     0.11224   0.16438   0.40323   0.00000  Uiso   1.00
C3     C     0.19087   0.32081   0.24099   0.00000  Uiso   1.00
C4     C     0.13313   0.16586   0.34721   0.00000  Uiso   1.00
C5     C     0.14313   0.01226   0.25884   0.00000  Uiso   1.00
C6     C     0.15205   0.06688   0.24945   0.00000  Uiso   1.00
C7     C     0.20050   0.17032   0.15294   0.00000  Uiso   1.00
C8     C     0.29173   0.22541   0.02654   0.00000  Uiso   1.00
C9     C     0.22059   0.17874   0.09786   0.00000  Uiso   1.00
C10    C     0.05147   0.13720   0.42390   0.00000  Uiso   1.00
C11    C     0.03376   0.12648   0.47564   0.00000  Uiso   1.00
C12    C     0.13897   0.16810   0.48766   0.00000  Uiso   1.00
C13    C     0.07699   0.14063   0.00713   0.00000  Uiso   1.00
C14    C     0.07581   0.00537   0.33819   0.00000  Uiso   1.00
C15    C     0.10697   0.31054   0.37099   0.00000  Uiso   1.00
C16    C     0.10047   0.00021   0.42531   0.00000  Uiso   1.00
C17    C     0.15452   0.18400   0.43605   0.00000  Uiso   1.00
C18    C     0.18589   0.18075   0.01772   0.00000  Uiso   1.00
C19    C     0.24515   0.21255   0.49727   0.00000  Uiso   1.00
C20    C     0.25669   0.23242   0.44840   0.00000  Uiso   1.00
C21    C     0.21170   0.21930   0.41865   0.00000  Uiso   1.00
C22    C     0.17584   0.16275   0.06759   0.00000  Uiso   1.00
C23    C     0.27935   0.20887   0.07681   0.00000  Uiso   1.00
Cu24   Cu    0.10710   0.16105   0.24435   0.00000  Uiso   1.00
Cu25   Cu    0.22623   0.17228   0.25564   0.00000  Uiso   1.00
H26    H     0.31445   0.22160   0.09981   0.00000  Uiso   1.00
H27    H     0.22204   0.23816   0.38219   0.00000  Uiso   1.00
H28    H     0.02433   0.33048   0.35385   0.00000  Uiso   1.00
H29    H     0.09152   0.04859   0.34163   0.00000  Uiso   1.00
H30    H     0.08473   0.26825   0.37241   0.00000  Uiso   1.00
H31    H     0.15778   0.31427   0.35378   0.00000  Uiso   1.00
H32    H     0.12626   0.04155   0.42478   0.00000  Uiso   1.00
H33    H     0.12063   0.31063   0.44869   0.00000  Uiso   1.00
H34    H     0.05031   0.33216   0.44335   0.00000  Uiso   1.00
H35    H     0.00258   0.20384   0.29117   0.00000  Uiso   1.00
H36    H     0.33133   0.13077   0.20797   0.00000  Uiso   1.00
H37    H     0.30069   0.25836   0.43302   0.00000  Uiso   1.00
H38    H     0.00373   0.24956   0.01101   0.00000  Uiso   1.00
H39    H     0.13276   0.13703   0.08457   0.00000  Uiso   1.00
H40    H     0.01811   0.12262   0.39972   0.00000  Uiso   1.00
H41    H     0.05981   0.13044   0.04670   0.00000  Uiso   1.00
H42    H     0.31995   0.10561   0.49125   0.00000  Uiso   1.00
I43    I     0.27749   0.01874   0.19025   0.00000  Uiso   1.00
N44    N     0.31574   0.18074   0.26416   0.00000  Uiso   1.00
N45    N     0.01759   0.15259   0.23584   0.00000  Uiso   1.00
O46    O     0.12797   0.23807   0.24633   0.00000  Uiso   1.00
O47    O     0.22858   0.24755   0.25586   0.00000  Uiso   1.00
O48    O     0.09181   0.15960   0.31839   0.00000  Uiso   1.00
O49    O     0.19242   0.16908   0.32793   0.00000  Uiso   1.00
O50    O     0.10476   0.08578   0.24413   0.00000  Uiso   1.00
O51    O     0.20536   0.09526   0.25367   0.00000  Uiso   1.00
O52    O     0.14092   0.16425   0.17207   0.00000  Uiso   1.00
O53    O     0.24152   0.17373   0.18160   0.00000  Uiso   1.00
O54    O     0.08586   0.31943   0.28694   0.00000  Uiso   1.00
C55    C     0.51506   0.26633   0.24958   0.00000  Uiso   1.00
C56    C     0.44557   0.16438   0.40323   0.00000  Uiso   1.00
C57    C     0.52420   0.32081   0.24099   0.00000  Uiso   1.00
C58    C     0.46646   0.16586   0.34721   0.00000  Uiso   1.00
C59    C     0.47647   0.01226   0.25884   0.00000  Uiso   1.00
C60    C     0.48538   0.06688   0.24945   0.00000  Uiso   1.00
C61    C     0.53384   0.17032   0.15294   0.00000  Uiso   1.00
C62    C     0.62507   0.22541   0.02654   0.00000  Uiso   1.00
C63    C     0.55392   0.17874   0.09786   0.00000  Uiso   1.00
C64    C     0.38480   0.13720   0.42390   0.00000  Uiso   1.00
C65    C     0.36709   0.12648   0.47564   0.00000  Uiso   1.00
C66    C     0.47230   0.16810   0.48766   0.00000  Uiso   1.00
C67    C     0.41033   0.14063   0.00713   0.00000  Uiso   1.00
C68    C     0.40914   0.00537   0.33819   0.00000  Uiso   1.00
C69    C     0.44030   0.31054   0.37099   0.00000  Uiso   1.00
C70    C     0.43381   0.00021   0.42531   0.00000  Uiso   1.00
C71    C     0.48785   0.18400   0.43605   0.00000  Uiso   1.00
C72    C     0.51922   0.18075   0.01772   0.00000  Uiso   1.00
C73    C     0.57849   0.21255   0.49727   0.00000  Uiso   1.00
C74    C     0.59002   0.23242   0.44840   0.00000  Uiso   1.00
C75    C     0.54503   0.21930   0.41865   0.00000  Uiso   1.00
C76    C     0.50917   0.16275   0.06759   0.00000  Uiso   1.00
C77    C     0.61268   0.20887   0.07681   0.00000  Uiso   1.00
Cu78   Cu    0.44043   0.16105   0.24435   0.00000  Uiso   1.00
Cu79   Cu    0.55957   0.17228   0.25564   0.00000  Uiso   1.00
H80    H     0.64778   0.22160   0.09981   0.00000  Uiso   1.00
H81    H     0.55538   0.23816   0.38219   0.00000  Uiso   1.00
H82    H     0.35767   0.33048   0.35385   0.00000  Uiso   1.00
H83    H     0.42486   0.04859   0.34163   0.00000  Uiso   1.00
H84    H     0.41806   0.26825   0.37241   0.00000  Uiso   1.00
H85    H     0.49111   0.31427   0.35378   0.00000  Uiso   1.00
H86    H     0.45959   0.04155   0.42478   0.00000  Uiso   1.00
H87    H     0.45397   0.31063   0.44869   0.00000  Uiso   1.00
H88    H     0.38364   0.33216   0.44335   0.00000  Uiso   1.00
H89    H     0.33591   0.20384   0.29117   0.00000  Uiso   1.00
H90    H     0.66466   0.13077   0.20797   0.00000  Uiso   1.00
H91    H     0.63403   0.25836   0.43302   0.00000  Uiso   1.00
H92    H     0.33707   0.24956   0.01101   0.00000  Uiso   1.00
H93    H     0.46609   0.13703   0.08457   0.00000  Uiso   1.00
H94    H     0.35144   0.12262   0.39972   0.00000  Uiso   1.00
H95    H     0.39314   0.13044   0.04670   0.00000  Uiso   1.00
H96    H     0.65328   0.10561   0.49125   0.00000  Uiso   1.00
I97    I     0.61082   0.01874   0.19025   0.00000  Uiso   1.00
N98    N     0.64908   0.18074   0.26416   0.00000  Uiso   1.00
N99    N     0.35092   0.15259   0.23584   0.00000  Uiso   1.00
O100   O     0.46131   0.23807   0.24633   0.00000  Uiso   1.00
O101   O     0.56191   0.24755   0.25586   0.00000  Uiso   1.00
O102   O     0.42515   0.15960   0.31839   0.00000  Uiso   1.00
O103   O     0.52575   0.16908   0.32793   0.00000  Uiso   1.00
O104   O     0.43809   0.08578   0.24413   0.00000  Uiso   1.00
O105   O     0.53869   0.09526   0.25367   0.00000  Uiso   1.00
O106   O     0.47425   0.16425   0.17207   0.00000  Uiso   1.00
O107   O     0.57485   0.17373   0.18160   0.00000  Uiso   1.00
O108   O     0.41919   0.31943   0.28694   0.00000  Uiso   1.00
C109   C     0.84839   0.26633   0.24958   0.00000  Uiso   1.00
C110   C     0.77890   0.16438   0.40323   0.00000  Uiso   1.00
C111   C     0.85753   0.32081   0.24099   0.00000  Uiso   1.00
C112   C     0.79979   0.16586   0.34721   0.00000  Uiso   1.00
C113   C     0.80980   0.01226   0.25884   0.00000  Uiso   1.00
C114   C     0.81872   0.06688   0.24945   0.00000  Uiso   1.00
C115   C     0.86717   0.17032   0.15294   0.00000  Uiso   1.00
C116   C     0.95840   0.22541   0.02654   0.00000  Uiso   1.00
C117   C     0.88725   0.17874   0.09786   0.00000  Uiso   1.00
C118   C     0.71814   0.13720   0.42390   0.00000  Uiso   1.00
C119   C     0.70042   0.12648   0.47564   0.00000  Uiso   1.00
C120   C     0.80564   0.16810   0.48766   0.00000  Uiso   1.00
C121   C     0.74366   0.14063   0.00713   0.00000  Uiso   1.00
C122   C     0.74248   0.00537   0.33819   0.00000  Uiso   1.00
C123   C     0.77364   0.31054   0.37099   0.00000  Uiso   1.00
C124   C     0.76714   0.00021   0.42531   0.00000  Uiso   1.00
C125   C     0.82119   0.18400   0.43605   0.00000  Uiso   1.00
C126   C     0.85256   0.18075   0.01772   0.00000  Uiso   1.00
C127   C     0.91182   0.21255   0.49727   0.00000  Uiso   1.00
C128   C     0.92336   0.23242   0.44840   0.00000  Uiso   1.00
C129   C     0.87836   0.21930   0.41865   0.00000  Uiso   1.00
C130   C     0.84251   0.16275   0.06759   0.00000  Uiso   1.00
C131   C     0.94602   0.20887   0.07681   0.00000  Uiso   1.00
Cu132  Cu    0.77377   0.16105   0.24435   0.00000  Uiso   1.00
Cu133  Cu    0.89290   0.17228   0.25564   0.00000  Uiso   1.00
H134   H     0.98111   0.22160   0.09981   0.00000  Uiso   1.00
H135   H     0.88871   0.23816   0.38219   0.00000  Uiso   1.00
H136   H     0.69100   0.33048   0.35385   0.00000  Uiso   1.00
H137   H     0.75819   0.04859   0.34163   0.00000  Uiso   1.00
H138   H     0.75139   0.26825   0.37241   0.00000  Uiso   1.00
H139   H     0.82444   0.31427   0.35378   0.00000  Uiso   1.00
H140   H     0.79292   0.04155   0.42478   0.00000  Uiso   1.00
H141   H     0.78730   0.31063   0.44869   0.00000  Uiso   1.00
H142   H     0.71697   0.33216   0.44335   0.00000  Uiso   1.00
H143   H     0.66924   0.20384   0.29117   0.00000  Uiso   1.00
H144   H     0.99800   0.13077   0.20797   0.00000  Uiso   1.00
H145   H     0.96736   0.25836   0.43302   0.00000  Uiso   1.00
H146   H     0.67040   0.24956   0.01101   0.00000  Uiso   1.00
H147   H     0.79942   0.13703   0.08457   0.00000  Uiso   1.00
H148   H     0.68478   0.12262   0.39972   0.00000  Uiso   1.00
H149   H     0.72648   0.13044   0.04670   0.00000  Uiso   1.00
H150   H     0.98662   0.10561   0.49125   0.00000  Uiso   1.00
I151   I     0.94415   0.01874   0.19025   0.00000  Uiso   1.00
N152   N     0.98241   0.18074   0.26416   0.00000  Uiso   1.00
N153   N     0.68426   0.15259   0.23584   0.00000  Uiso   1.00
O154   O     0.79464   0.23807   0.24633   0.00000  Uiso   1.00
O155   O     0.89524   0.24755   0.25586   0.00000  Uiso   1.00
O156   O     0.75848   0.15960   0.31839   0.00000  Uiso   1.00
O157   O     0.85908   0.16908   0.32793   0.00000  Uiso   1.00
O158   O     0.77142   0.08578   0.24413   0.00000  Uiso   1.00
O159   O     0.87203   0.09526   0.25367   0.00000  Uiso   1.00
O160   O     0.80758   0.16425   0.17207   0.00000  Uiso   1.00
O161   O     0.90819   0.17373   0.18160   0.00000  Uiso   1.00
O162   O     0.75253   0.31943   0.28694   0.00000  Uiso   1.00
C163   C     0.18172   0.59966   0.24958   0.00000  Uiso   1.00
C164   C     0.11224   0.49771   0.40323   0.00000  Uiso   1.00
C165   C     0.19087   0.65414   0.24099   0.00000  Uiso   1.00
C166   C     0.13313   0.49920   0.34721   0.00000  Uiso   1.00
C167   C     0.14313   0.34559   0.25884   0.00000  Uiso   1.00
C168   C     0.15205   0.40022   0.24945   0.00000  Uiso   1.00
C169   C     0.20050   0.50365   0.15294   0.00000  Uiso   1.00
C170   C     0.29173   0.55874   0.02654   0.00000  Uiso   1.00
C171   C     0.22059   0.51207   0.09786   0.00000  Uiso   1.00
C172   C     0.05147   0.47053   0.42390   0.00000  Uiso   1.00
C173   C     0.03376   0.45981   0.47564   0.00000  Uiso   1.00
C174   C     0.13897   0.50143   0.48766   0.00000  Uiso   1.00
C175   C     0.07699   0.47396   0.00713   0.00000  Uiso   1.00
C176   C     0.07581   0.33870   0.33819   0.00000  Uiso   1.00
C177   C     0.10697   0.64387   0.37099   0.00000  Uiso   1.00
C178   C     0.10047   0.33355   0.42531   0.00000  Uiso   1.00
C179   C     0.15452   0.51734   0.43605   0.00000  Uiso   1.00
C180   C     0.18589   0.51408   0.01772   0.00000  Uiso   1.00
C181   C     0.24515   0.54589   0.49727   0.00000  Uiso   1.00
C182   C     0.25669   0.56576   0.44840   0.00000  Uiso   1.00
C183   C     0.21170   0.55264   0.41865   0.00000  Uiso   1.00
C184   C     0.17584   0.49608   0.06759   0.00000  Uiso   1.00
C185   C     0.27935   0.54220   0.07681   0.00000  Uiso   1.00
Cu186  Cu    0.10710   0.49439   0.24435   0.00000  Uiso   1.00
Cu187  Cu    0.22623   0.50561   0.25564   0.00000  Uiso   1.00
H188   H     0.31445   0.55494   0.09981   0.00000  Uiso   1.00
H189   H     0.22204   0.57149   0.38219   0.00000  Uiso   1.00
H190   H     0.02433   0.66381   0.35385   0.00000  Uiso   1.00
H191   H     0.09152   0.38192   0.34163   0.00000  Uiso   1.00
H192   H     0.08473   0.60159   0.37241   0.00000  Uiso   1.00
H193   H     0.15778   0.64760   0.35378   0.00000  Uiso   1.00
H194   H     0.12626   0.37489   0.42478   0.00000  Uiso   1.00
H195   H     0.12063   0.64397   0.44869   0.00000  Uiso   1.00
H196   H     0.05031   0.66550   0.44335   0.00000  Uiso   1.00
H197   H     0.00258   0.53717   0.29117   0.00000  Uiso   1.00
H198   H     0.33133   0.46410   0.20797   0.00000  Uiso   1.00
H199   H     0.30069   0.59169   0.43302   0.00000  Uiso   1.00
H200   H     0.00373   0.58289   0.01101   0.00000  Uiso   1.00
H201   H     0.13276   0.47036   0.08457   0.00000  Uiso   1.00
H202   H     0.01811   0.45595   0.39972   0.00000  Uiso   1.00
H203   H     0.05981   0.46377   0.04670   0.00000  Uiso   1.00
H204   H     0.31995   0.43895   0.49125   0.00000  Uiso   1.00
I205   I     0.27749   0.35207   0.19025   0.00000  Uiso   1.00
N206   N     0.31574   0.51407   0.26416   0.00000  Uiso   1.00
N207   N     0.01759   0.48593   0.23584   0.00000  Uiso   1.00
O208   O     0.12797   0.57141   0.24633   0.00000  Uiso   1.00
O209   O     0.22858   0.58089   0.25586   0.00000  Uiso   1.00
O210   O     0.09181   0.49293   0.31839   0.00000  Uiso   1.00
O211   O     0.19242   0.50241   0.32793   0.00000  Uiso   1.00
O212   O     0.10476   0.41911   0.24413   0.00000  Uiso   1.00
O213   O     0.20536   0.42859   0.25367   0.00000  Uiso   1.00
O214   O     0.14092   0.49759   0.17207   0.00000  Uiso   1.00
O215   O     0.24152   0.50707   0.18160   0.00000  Uiso   1.00
O216   O     0.08586   0.65276   0.28694   0.00000  Uiso   1.00
C217   C     0.51506   0.59966   0.24958   0.00000  Uiso   1.00
C218   C     0.44557   0.49771   0.40323   0.00000  Uiso   1.00
C219   C     0.52420   0.65414   0.24099   0.00000  Uiso   1.00
C220   C     0.46646   0.49920   0.34721   0.00000  Uiso   1.00
C221   C     0.47647   0.34559   0.25884   0.00000  Uiso   1.00
C222   C     0.48538   0.40022   0.24945   0.00000  Uiso   1.00
C223   C     0.53384   0.50365   0.15294   0.00000  Uiso   1.00
C224   C     0.62507   0.55874   0.02654   0.00000  Uiso   1.00
C225   C     0.55392   0.51207   0.09786   0.00000  Uiso   1.00
C226   C     0.38480   0.47053   0.42390   0.00000  Uiso   1.00
C227   C     0.36709   0.45981   0.47564   0.00000  Uiso   1.00
C228   C     0.47230   0.50143   0.48766   0.00000  Uiso   1.00
C229   C     0.41033   0.47396   0.00713   0.00000  Uiso   1.00
C230   C     0.40914   0.33870   0.33819   0.00000  Uiso   1.00
C231   C     0.44030   0.64387   0.37099   0.00000  Uiso   1.00
C232   C     0.43381   0.33355   0.42531   0.00000  Uiso   1.00
C233   C     0.48785   0.51734   0.43605   0.00000  Uiso   1.00
C234   C     0.51922   0.51408   0.01772   0.00000  Uiso   1.00
C235   C     0.57849   0.54589   0.49727   0.00000  Uiso   1.00
C236   C     0.59002   0.56576   0.44840   0.00000  Uiso   1.00
C237   C     0.54503   0.55264   0.41865   0.00000  Uiso   1.00
C238   C     0.50917   0.49608   0.06759   0.00000  Uiso   1.00
C239   C     0.61268   0.54220   0.07681   0.00000  Uiso   1.00
Cu240  Cu    0.44043   0.49439   0.24435   0.00000  Uiso   1.00
Cu241  Cu    0.55957   0.50561   0.25564   0.00000  Uiso   1.00
H242   H     0.64778   0.55494   0.09981   0.00000  Uiso   1.00
H243   H     0.55538   0.57149   0.38219   0.00000  Uiso   1.00
H244   H     0.35767   0.66381   0.35385   0.00000  Uiso   1.00
H245   H     0.42486   0.38192   0.34163   0.00000  Uiso   1.00
H246   H     0.41806   0.60159   0.37241   0.00000  Uiso   1.00
H247   H     0.49111   0.64760   0.35378   0.00000  Uiso   1.00
H248   H     0.45959   0.37489   0.42478   0.00000  Uiso   1.00
H249   H     0.45397   0.64397   0.44869   0.00000  Uiso   1.00
H250   H     0.38364   0.66550   0.44335   0.00000  Uiso   1.00
H251   H     0.33591   0.53717   0.29117   0.00000  Uiso   1.00
H252   H     0.66466   0.46410   0.20797   0.00000  Uiso   1.00
H253   H     0.63403   0.59169   0.43302   0.00000  Uiso   1.00
H254   H     0.33707   0.58289   0.01101   0.00000  Uiso   1.00
H255   H     0.46609   0.47036   0.08457   0.00000  Uiso   1.00
H256   H     0.35144   0.45595   0.39972   0.00000  Uiso   1.00
H257   H     0.39314   0.46377   0.04670   0.00000  Uiso   1.00
H258   H     0.65328   0.43895   0.49125   0.00000  Uiso   1.00
I259   I     0.61082   0.35207   0.19025   0.00000  Uiso   1.00
N260   N     0.64908   0.51407   0.26416   0.00000  Uiso   1.00
N261   N     0.35092   0.48593   0.23584   0.00000  Uiso   1.00
O262   O     0.46131   0.57141   0.24633   0.00000  Uiso   1.00
O263   O     0.56191   0.58089   0.25586   0.00000  Uiso   1.00
O264   O     0.42515   0.49293   0.31839   0.00000  Uiso   1.00
O265   O     0.52575   0.50241   0.32793   0.00000  Uiso   1.00
O266   O     0.43809   0.41911   0.24413   0.00000  Uiso   1.00
O267   O     0.53869   0.42859   0.25367   0.00000  Uiso   1.00
O268   O     0.47425   0.49759   0.17207   0.00000  Uiso   1.00
O269   O     0.57485   0.50707   0.18160   0.00000  Uiso   1.00
O270   O     0.41919   0.65276   0.28694   0.00000  Uiso   1.00
C271   C     0.84839   0.59966   0.24958   0.00000  Uiso   1.00
C272   C     0.77890   0.49771   0.40323   0.00000  Uiso   1.00
C273   C     0.85753   0.65414   0.24099   0.00000  Uiso   1.00
C274   C     0.79979   0.49920   0.34721   0.00000  Uiso   1.00
C275   C     0.80980   0.34559   0.25884   0.00000  Uiso   1.00
C276   C     0.81872   0.40022   0.24945   0.00000  Uiso   1.00
C277   C     0.86717   0.50365   0.15294   0.00000  Uiso   1.00
C278   C     0.95840   0.55874   0.02654   0.00000  Uiso   1.00
C279   C     0.88725   0.51207   0.09786   0.00000  Uiso   1.00
C280   C     0.71814   0.47053   0.42390   0.00000  Uiso   1.00
C281   C     0.70042   0.45981   0.47564   0.00000  Uiso   1.00
C282   C     0.80564   0.50143   0.48766   0.00000  Uiso   1.00
C283   C     0.74366   0.47396   0.00713   0.00000  Uiso   1.00
C284   C     0.74248   0.33870   0.33819   0.00000  Uiso   1.00
C285   C     0.77364   0.64387   0.37099   0.00000  Uiso   1.00
C286   C     0.76714   0.33355   0.42531   0.00000  Uiso   1.00
C287   C     0.82119   0.51734   0.43605   0.00000  Uiso   1.00
C288   C     0.85256   0.51408   0.01772   0.00000  Uiso   1.00
C289   C     0.91182   0.54589   0.49727   0.00000  Uiso   1.00
C290   C     0.92336   0.56576   0.44840   0.00000  Uiso   1.00
C291   C     0.87836   0.55264   0.41865   0.00000  Uiso   1.00
C292   C     0.84251   0.49608   0.06759   0.00000  Uiso   1.00
C293   C     0.94602   0.54220   0.07681   0.00000  Uiso   1.00
Cu294  Cu    0.77377   0.49439   0.24435   0.00000  Uiso   1.00
Cu295  Cu    0.89290   0.50561   0.25564   0.00000  Uiso   1.00
H296   H     0.98111   0.55494   0.09981   0.00000  Uiso   1.00
H297   H     0.88871   0.57149   0.38219   0.00000  Uiso   1.00
H298   H     0.69100   0.66381   0.35385   0.00000  Uiso   1.00
H299   H     0.75819   0.38192   0.34163   0.00000  Uiso   1.00
H300   H     0.75139   0.60159   0.37241   0.00000  Uiso   1.00
H301   H     0.82444   0.64760   0.35378   0.00000  Uiso   1.00
H302   H     0.79292   0.37489   0.42478   0.00000  Uiso   1.00
H303   H     0.78730   0.64397   0.44869   0.00000  Uiso   1.00
H304   H     0.71697   0.66550   0.44335   0.00000  Uiso   1.00
H305   H     0.66924   0.53717   0.29117   0.00000  Uiso   1.00
H306   H     0.99800   0.46410   0.20797   0.00000  Uiso   1.00
H307   H     0.96736   0.59169   0.43302   0.00000  Uiso   1.00
H308   H     0.67040   0.58289   0.01101   0.00000  Uiso   1.00
H309   H     0.79942   0.47036   0.08457   0.00000  Uiso   1.00
H310   H     0.68478   0.45595   0.39972   0.00000  Uiso   1.00
H311   H     0.72648   0.46377   0.04670   0.00000  Uiso   1.00
H312   H     0.98662   0.43895   0.49125   0.00000  Uiso   1.00
I313   I     0.94415   0.35207   0.19025   0.00000  Uiso   1.00
N314   N     0.98241   0.51407   0.26416   0.00000  Uiso   1.00
N315   N     0.68426   0.48593   0.23584   0.00000  Uiso   1.00
O316   O     0.79464   0.57141   0.24633   0.00000  Uiso   1.00
O317   O     0.89524   0.58089   0.25586   0.00000  Uiso   1.00
O318   O     0.75848   0.49293   0.31839   0.00000  Uiso   1.00
O319   O     0.85908   0.50241   0.32793   0.00000  Uiso   1.00
O320   O     0.77142   0.41911   0.24413   0.00000  Uiso   1.00
O321   O     0.87203   0.42859   0.25367   0.00000  Uiso   1.00
O322   O     0.80758   0.49759   0.17207   0.00000  Uiso   1.00
O323   O     0.90819   0.50707   0.18160   0.00000  Uiso   1.00
O324   O     0.75253   0.65276   0.28694   0.00000  Uiso   1.00
C325   C     0.18172   0.93300   0.24958   0.00000  Uiso   1.00
C326   C     0.11224   0.83105   0.40323   0.00000  Uiso   1.00
C327   C     0.19087   0.98748   0.24099   0.00000  Uiso   1.00
C328   C     0.13313   0.83253   0.34721   0.00000  Uiso   1.00
C329   C     0.14313   0.67892   0.25884   0.00000  Uiso   1.00
C330   C     0.15205   0.73355   0.24945   0.00000  Uiso   1.00
C331   C     0.20050   0.83699   0.15294   0.00000  Uiso   1.00
C332   C     0.29173   0.89207   0.02654   0.00000  Uiso   1.00
C333   C     0.22059   0.84540   0.09786   0.00000  Uiso   1.00
C334   C     0.05147   0.80386   0.42390   0.00000  Uiso   1.00
C335   C     0.03376   0.79314   0.47564   0.00000  Uiso   1.00
C336   C     0.13897   0.83476   0.48766   0.00000  Uiso   1.00
C337   C     0.07699   0.80730   0.00713   0.00000  Uiso   1.00
C338   C     0.07581   0.67204   0.33819   0.00000  Uiso   1.00
C339   C     0.10697   0.97720   0.37099   0.00000  Uiso   1.00
C340   C     0.10047   0.66688   0.42531   0.00000  Uiso   1.00
C341   C     0.15452   0.85067   0.43605   0.00000  Uiso   1.00
C342   C     0.18589   0.84742   0.01772   0.00000  Uiso   1.00
C343   C     0.24515   0.87922   0.49727   0.00000  Uiso   1.00
C344   C     0.25669   0.89909   0.44840   0.00000  Uiso   1.00
C345   C     0.21170   0.88597   0.41865   0.00000  Uiso   1.00
C346   C     0.17584   0.82941   0.06759   0.00000  Uiso   1.00
C347   C     0.27935   0.87553   0.07681   0.00000  Uiso   1.00
Cu348  Cu    0.10710   0.82772   0.24435   0.00000  Uiso   1.00
Cu349  Cu    0.22623   0.83895   0.25564   0.00000  Uiso   1.00
H350   H     0.31445   0.88827   0.09981   0.00000  Uiso   1.00
H351   H     0.22204   0.90483   0.38219   0.00000  Uiso   1.00
H352   H     0.02433   0.99715   0.35385   0.00000  Uiso   1.00
H353   H     0.09152   0.71525   0.34163   0.00000  Uiso   1.00
H354   H     0.08473   0.93492   0.37241   0.00000  Uiso   1.00
H355   H     0.15778   0.98093   0.35378   0.00000  Uiso   1.00
H356   H     0.12626   0.70822   0.42478   0.00000  Uiso   1.00
H357   H     0.12063   0.97730   0.44869   0.00000  Uiso   1.00
H358   H     0.05031   0.99883   0.44335   0.00000  Uiso   1.00
H359   H     0.00258   0.87051   0.29117   0.00000  Uiso   1.00
H360   H     0.33133   0.79744   0.20797   0.00000  Uiso   1.00
H361   H     0.30069   0.92503   0.43302   0.00000  Uiso   1.00
H362   H     0.00373   0.91622   0.01101   0.00000  Uiso   1.00
H363   H     0.13276   0.80370   0.08457   0.00000  Uiso   1.00
H364   H     0.01811   0.78929   0.39972   0.00000  Uiso   1.00
H365   H     0.05981   0.79711   0.04670   0.00000  Uiso   1.00
H366   H     0.31995   0.77228   0.49125   0.00000  Uiso   1.00
I367   I     0.27749   0.68541   0.19025   0.00000  Uiso   1.00
N368   N     0.31574   0.84741   0.26416   0.00000  Uiso   1.00
N369   N     0.01759   0.81926   0.23584   0.00000  Uiso   1.00
O370   O     0.12797   0.90474   0.24633   0.00000  Uiso   1.00
O371   O     0.22858   0.91422   0.25586   0.00000  Uiso   1.00
O372   O     0.09181   0.82627   0.31839   0.00000  Uiso   1.00
O373   O     0.19242   0.83575   0.32793   0.00000  Uiso   1.00
O374   O     0.10476   0.75245   0.24413   0.00000  Uiso   1.00
O375   O     0.20536   0.76193   0.25367   0.00000  Uiso   1.00
O376   O     0.14092   0.83092   0.17207   0.00000  Uiso   1.00
O377   O     0.24152   0.84040   0.18160   0.00000  Uiso   1.00
O378   O     0.08586   0.98609   0.28694   0.00000  Uiso   1.00
C379   C     0.51506   0.93300   0.24958   0.00000  Uiso   1.00
C380   C     0.44557   0.83105   0.40323   0.00000  Uiso   1.00
C381   C     0.52420   0.98748   0.24099   0.00000  Uiso   1.00
C382   C     0.46646   0.83253   0.34721   0.00000  Uiso   1.00
C383   C     0.47647   0.67892   0.25884   0.00000  Uiso   1.00
C384   C     0.48538   0.73355   0.24945   0.00000  Uiso   1.00
C385   C     0.53384   0.83699   0.15294   0.00000  Uiso   1.00
C386   C     0.62507   0.89207   0.02654   0.00000  Uiso   1.00
C387   C     0.55392   0.84540   0.09786   0.00000  Uiso   1.00
C388   C     0.38480   0.80386   0.42390   0.00000  Uiso   1.00
C389   C     0.36709   0.79314   0.47564   0.00000  Uiso   1.00
C390   C     0.47230   0.83476   0.48766   0.00000  Uiso   1.00
C391   C     0.41033   0.80730   0.00713   0.00000  Uiso   1.00
C392   C     0.40914   0.67204   0.33819   0.00000  Uiso   1.00
C393   C     0.44030   0.97720   0.37099   0.00000  Uiso   1.00
C394   C     0.43381   0.66688   0.42531   0.00000  Uiso   1.00
C395   C     0.48785   0.85067   0.43605   0.00000  Uiso   1.00
C396   C     0.51922   0.84742   0.01772   0.00000  Uiso   1.00
C397   C     0.57849   0.87922   0.49727   0.00000  Uiso   1.00
C398   C     0.59002   0.89909   0.44840   0.00000  Uiso   1.00
C399   C     0.54503   0.88597   0.41865   0.00000  Uiso   1.00
C400   C     0.50917   0.82941   0.06759   0.00000  Uiso   1.00
C401   C     0.61268   0.87553   0.07681   0.00000  Uiso   1.00
Cu402  Cu    0.44043   0.82772   0.24435   0.00000  Uiso   1.00
Cu403  Cu    0.55957   0.83895   0.25564   0.00000  Uiso   1.00
H404   H     0.64778   0.88827   0.09981   0.00000  Uiso   1.00
H405   H     0.55538   0.90483   0.38219   0.00000  Uiso   1.00
H406   H     0.35767   0.99715   0.35385   0.00000  Uiso   1.00
H407   H     0.42486   0.71525   0.34163   0.00000  Uiso   1.00
H408   H     0.41806   0.93492   0.37241   0.00000  Uiso   1.00
H409   H     0.49111   0.98093   0.35378   0.00000  Uiso   1.00
H410   H     0.45959   0.70822   0.42478   0.00000  Uiso   1.00
H411   H     0.45397   0.97730   0.44869   0.00000  Uiso   1.00
H412   H     0.38364   0.99883   0.44335   0.00000  Uiso   1.00
H413   H     0.33591   0.87051   0.29117   0.00000  Uiso   1.00
H414   H     0.66466   0.79744   0.20797   0.00000  Uiso   1.00
H415   H     0.63403   0.92503   0.43302   0.00000  Uiso   1.00
H416   H     0.33707   0.91622   0.01101   0.00000  Uiso   1.00
H417   H     0.46609   0.80370   0.08457   0.00000  Uiso   1.00
H418   H     0.35144   0.78929   0.39972   0.00000  Uiso   1.00
H419   H     0.39314   0.79711   0.04670   0.00000  Uiso   1.00
H420   H     0.65328   0.77228   0.49125   0.00000  Uiso   1.00
I421   I     0.61082   0.68541   0.19025   0.00000  Uiso   1.00
N422   N     0.64908   0.84741   0.26416   0.00000  Uiso   1.00
N423   N     0.35092   0.81926   0.23584   0.00000  Uiso   1.00
O424   O     0.46131   0.90474   0.24633   0.00000  Uiso   1.00
O425   O     0.56191   0.91422   0.25586   0.00000  Uiso   1.00
O426   O     0.42515   0.82627   0.31839   0.00000  Uiso   1.00
O427   O     0.52575   0.83575   0.32793   0.00000  Uiso   1.00
O428   O     0.43809   0.75245   0.24413   0.00000  Uiso   1.00
O429   O     0.53869   0.76193   0.25367   0.00000  Uiso   1.00
O430   O     0.47425   0.83092   0.17207   0.00000  Uiso   1.00
O431   O     0.57485   0.84040   0.18160   0.00000  Uiso   1.00
O432   O     0.41919   0.98609   0.28694   0.00000  Uiso   1.00
C433   C     0.84839   0.93300   0.24958   0.00000  Uiso   1.00
C434   C     0.77890   0.83105   0.40323   0.00000  Uiso   1.00
C435   C     0.85753   0.98748   0.24099   0.00000  Uiso   1.00
C436   C     0.79979   0.83253   0.34721   0.00000  Uiso   1.00
C437   C     0.80980   0.67892   0.25884   0.00000  Uiso   1.00
C438   C     0.81872   0.73355   0.24945   0.00000  Uiso   1.00
C439   C     0.86717   0.83699   0.15294   0.00000  Uiso   1.00
C440   C     0.95840   0.89207   0.02654   0.00000  Uiso   1.00
C441   C     0.88725   0.84540   0.09786   0.00000  Uiso   1.00
C442   C     0.71814   0.80386   0.42390   0.00000  Uiso   1.00
C443   C     0.70042   0.79314   0.47564   0.00000  Uiso   1.00
C444   C     0.80564   0.83476   0.48766   0.00000  Uiso   1.00
C445   C     0.74366   0.80730   0.00713   0.00000  Uiso   1.00
C446   C     0.74248   0.67204   0.33819   0.00000  Uiso   1.00
C447   C     0.77364   0.97720   0.37099   0.00000  Uiso   1.00
C448   C     0.76714   0.66688   0.42531   0.00000  Uiso   1.00
C449   C     0.82119   0.85067   0.43605   0.00000  Uiso   1.00
C450   C     0.85256   0.84742   0.01772   0.00000  Uiso   1.00
C451   C     0.91182   0.87922   0.49727   0.00000  Uiso   1.00
C452   C     0.92336   0.89909   0.44840   0.00000  Uiso   1.00
C453   C     0.87836   0.88597   0.41865   0.00000  Uiso   1.00
C454   C     0.84251   0.82941   0.06759   0.00000  Uiso   1.00
C455   C     0.94602   0.87553   0.07681   0.00000  Uiso   1.00
Cu456  Cu    0.77377   0.82772   0.24435   0.00000  Uiso   1.00
Cu457  Cu    0.89290   0.83895   0.25564   0.00000  Uiso   1.00
H458   H     0.98111   0.88827   0.09981   0.00000  Uiso   1.00
H459   H     0.88871   0.90483   0.38219   0.00000  Uiso   1.00
H460   H     0.69100   0.99715   0.35385   0.00000  Uiso   1.00
H461   H     0.75819   0.71525   0.34163   0.00000  Uiso   1.00
H462   H     0.75139   0.93492   0.37241   0.00000  Uiso   1.00
H463   H     0.82444   0.98093   0.35378   0.00000  Uiso   1.00
H464   H     0.79292   0.70822   0.42478   0.00000  Uiso   1.00
H465   H     0.78730   0.97730   0.44869   0.00000  Uiso   1.00
H466   H     0.71697   0.99883   0.44335   0.00000  Uiso   1.00
H467   H     0.66924   0.87051   0.29117   0.00000  Uiso   1.00
H468   H     0.99800   0.79744   0.20797   0.00000  Uiso   1.00
H469   H     0.96736   0.92503   0.43302   0.00000  Uiso   1.00
H470   H     0.67040   0.91622   0.01101   0.00000  Uiso   1.00
H471   H     0.79942   0.80370   0.08457   0.00000  Uiso   1.00
H472   H     0.68478   0.78929   0.39972   0.00000  Uiso   1.00
H473   H     0.72648   0.79711   0.04670   0.00000  Uiso   1.00
H474   H     0.98662   0.77228   0.49125   0.00000  Uiso   1.00
I475   I     0.94415   0.68541   0.19025   0.00000  Uiso   1.00
N476   N     0.98241   0.84741   0.26416   0.00000  Uiso   1.00
N477   N     0.68426   0.81926   0.23584   0.00000  Uiso   1.00
O478   O     0.79464   0.90474   0.24633   0.00000  Uiso   1.00
O479   O     0.89524   0.91422   0.25586   0.00000  Uiso   1.00
O480   O     0.75848   0.82627   0.31839   0.00000  Uiso   1.00
O481   O     0.85908   0.83575   0.32793   0.00000  Uiso   1.00
O482   O     0.77142   0.75245   0.24413   0.00000  Uiso   1.00
O483   O     0.87203   0.76193   0.25367   0.00000  Uiso   1.00
O484   O     0.80758   0.83092   0.17207   0.00000  Uiso   1.00
O485   O     0.90819   0.84040   0.18160   0.00000  Uiso   1.00
O486   O     0.75253   0.98609   0.28694   0.00000  Uiso   1.00
C487   C     0.18172   0.26633   0.74958   0.00000  Uiso   1.00
C488   C     0.11224   0.16438   0.90323   0.00000  Uiso   1.00
C489   C     0.19087   0.32081   0.74099   0.00000  Uiso   1.00
C490   C     0.13313   0.16586   0.84721   0.00000  Uiso   1.00
C491   C     0.14313   0.01226   0.75884   0.00000  Uiso   1.00
C492   C     0.15205   0.06688   0.74945   0.00000  Uiso   1.00
C493   C     0.20050   0.17032   0.65294   0.00000  Uiso   1.00
C494   C     0.29173   0.22541   0.52654   0.00000  Uiso   1.00
C495   C     0.22059   0.17874   0.59786   0.00000  Uiso   1.00
C496   C     0.05147   0.13720   0.92390   0.00000  Uiso   1.00
C497   C     0.03376   0.12648   0.97564   0.00000  Uiso   1.00
C498   C     0.13897   0.16810   0.98766   0.00000  Uiso   1.00
C499   C     0.07699   0.14063   0.50713   0.00000  Uiso   1.00
C500   C     0.07581   0.00537   0.83819   0.00000  Uiso   1.00
C501   C     0.10697   0.31054   0.87099   0.00000  Uiso   1.00
C502   C     0.10047   0.00021   0.92531   0.00000  Uiso   1.00
C503   C     0.15452   0.18400   0.93605   0.00000  Uiso   1.00
C504   C     0.18589   0.18075   0.51772   0.00000  Uiso   1.00
C505   C     0.24515   0.21255   0.99727   0.00000  Uiso   1.00
C506   C     0.25669   0.23242   0.94840   0.00000  Uiso   1.00
C507   C     0.21170   0.21930   0.91865   0.00000  Uiso   1.00
C508   C     0.17584   0.16275   0.56759   0.00000  Uiso   1.00
C509   C     0.27935   0.20887   0.57681   0.00000  Uiso   1.00
Cu510  Cu    0.10710   0.16105   0.74435   0.00000  Uiso   1.00
Cu511  Cu    0.22623   0.17228   0.75564   0.00000  Uiso   1.00
H512   H     0.31445   0.22160   0.59981   0.00000  Uiso   1.00
H513   H     0.22204   0.23816   0.88219   0.00000  Uiso   1.00
H514   H     0.02433   0.33048   0.85385   0.00000  Uiso   1.00
H515   H     0.09152   0.04859   0.84163   0.00000  Uiso   1.00
H516   H     0.08473   0.26825   0.87241   0.00000  Uiso   1.00
H517   H     0.15778   0.31427   0.85378   0.00000  Uiso   1.00
H518   H     0.12626   0.04155   0.92478   0.00000  Uiso   1.00
H519   H     0.12063   0.31063   0.94869   0.00000  Uiso   1.00
H520   H     0.05031   0.33216   0.94335   0.00000  Uiso   1.00
H521   H     0.00258   0.20384   0.79117   0.00000  Uiso   1.00
H522   H     0.33133   0.13077   0.70797   0.00000  Uiso   1.00
H523   H     0.30069   0.25836   0.93302   0.00000  Uiso   1.00
H524   H     0.00373   0.24956   0.51101   0.00000  Uiso   1.00
H525   H     0.13276   0.13703   0.58457   0.00000  Uiso   1.00
H526   H     0.01811   0.12262   0.89972   0.00000  Uiso   1.00
H527   H     0.05981   0.13044   0.54670   0.00000  Uiso   1.00
H528   H     0.31995   0.10561   0.99125   0.00000  Uiso   1.00
I529   I     0.27749   0.01874   0.69025   0.00000  Uiso   1.00
N530   N     0.31574   0.18074   0.76416   0.00000  Uiso   1.00
N531   N     0.01759   0.15259   0.73584   0.00000  Uiso   1.00
O532   O     0.12797   0.23807   0.74633   0.00000  Uiso   1.00
O533   O     0.22858   0.24755   0.75586   0.00000  Uiso   1.00
O534   O     0.09181   0.15960   0.81839   0.00000  Uiso   1.00
O535   O     0.19242   0.16908   0.82793   0.00000  Uiso   1.00
O536   O     0.10476   0.08578   0.74413   0.00000  Uiso   1.00
O537   O     0.20536   0.09526   0.75367   0.00000  Uiso   1.00
O538   O     0.14092   0.16425   0.67207   0.00000  Uiso   1.00
O539   O     0.24152   0.17373   0.68160   0.00000  Uiso   1.00
O540   O     0.08586   0.31943   0.78694   0.00000  Uiso   1.00
C541   C     0.51506   0.26633   0.74958   0.00000  Uiso   1.00
C542   C     0.44557   0.16438   0.90323   0.00000  Uiso   1.00
C543   C     0.52420   0.32081   0.74099   0.00000  Uiso   1.00
C544   C     0.46646   0.16586   0.84721   0.00000  Uiso   1.00
C545   C     0.47647   0.01226   0.75884   0.00000  Uiso   1.00
C546   C     0.48538   0.06688   0.74945   0.00000  Uiso   1.00
C547   C     0.53384   0.17032   0.65294   0.00000  Uiso   1.00
C548   C     0.62507   0.22541   0.52654   0.00000  Uiso   1.00
C549   C     0.55392   0.17874   0.59786   0.00000  Uiso   1.00
C550   C     0.38480   0.13720   0.92390   0.00000  Uiso   1.00
C551   C     0.36709   0.12648   0.97564   0.00000  Uiso   1.00
C552   C     0.47230   0.16810   0.98766   0.00000  Uiso   1.00
C553   C     0.41033   0.14063   0.50713   0.00000  Uiso   1.00
C554   C     0.40914   0.00537   0.83819   0.00000  Uiso   1.00
C555   C     0.44030   0.31054   0.87099   0.00000  Uiso   1.00
C556   C     0.43381   0.00021   0.92531   0.00000  Uiso   1.00
C557   C     0.48785   0.18400   0.93605   0.00000  Uiso   1.00
C558   C     0.51922   0.18075   0.51772   0.00000  Uiso   1.00
C559   C     0.57849   0.21255   0.99727   0.00000  Uiso   1.00
C560   C     0.59002   0.23242   0.94840   0.00000  Uiso   1.00
C561   C     0.54503   0.21930   0.91865   0.00000  Uiso   1.00
C562   C     0.50917   0.16275   0.56759   0.00000  Uiso   1.00
C563   C     0.61268   0.20887   0.57681   0.00000  Uiso   1.00
Cu564  Cu    0.44043   0.16105   0.74435   0.00000  Uiso   1.00
Cu565  Cu    0.55957   0.17228   0.75564   0.00000  Uiso   1.00
H566   H     0.64778   0.22160   0.59981   0.00000  Uiso   1.00
H567   H     0.55538   0.23816   0.88219   0.00000  Uiso   1.00
H568   H     0.35767   0.33048   0.85385   0.00000  Uiso   1.00
H569   H     0.42486   0.04859   0.84163   0.00000  Uiso   1.00
H570   H     0.41806   0.26825   0.87241   0.00000  Uiso   1.00
H571   H     0.49111   0.31427   0.85378   0.00000  Uiso   1.00
H572   H     0.45959   0.04155   0.92478   0.00000  Uiso   1.00
H573   H     0.45397   0.31063   0.94869   0.00000  Uiso   1.00
H574   H     0.38364   0.33216   0.94335   0.00000  Uiso   1.00
H575   H     0.33591   0.20384   0.79117   0.00000  Uiso   1.00
H576   H     0.66466   0.13077   0.70797   0.00000  Uiso   1.00
H577   H     0.63403   0.25836   0.93302   0.00000  Uiso   1.00
H578   H     0.33707   0.24956   0.51101   0.00000  Uiso   1.00
H579   H     0.46609   0.13703   0.58457   0.00000  Uiso   1.00
H580   H     0.35144   0.12262   0.89972   0.00000  Uiso   1.00
H581   H     0.39314   0.13044   0.54670   0.00000  Uiso   1.00
H582   H     0.65328   0.10561   0.99125   0.00000  Uiso   1.00
I583   I     0.61082   0.01874   0.69025   0.00000  Uiso   1.00
N584   N     0.64908   0.18074   0.76416   0.00000  Uiso   1.00
N585   N     0.35092   0.15259   0.73584   0.00000  Uiso   1.00
O586   O     0.46131   0.23807   0.74633   0.00000  Uiso   1.00
O587   O     0.56191   0.24755   0.75586   0.00000  Uiso   1.00
O588   O     0.42515   0.15960   0.81839   0.00000  Uiso   1.00
O589   O     0.52575   0.16908   0.82793   0.00000  Uiso   1.00
O590   O     0.43809   0.08578   0.74413   0.00000  Uiso   1.00
O591   O     0.53869   0.09526   0.75367   0.00000  Uiso   1.00
O592   O     0.47425   0.16425   0.67207   0.00000  Uiso   1.00
O593   O     0.57485   0.17373   0.68160   0.00000  Uiso   1.00
O594   O     0.41919   0.31943   0.78694   0.00000  Uiso   1.00
C595   C     0.84839   0.26633   0.74958   0.00000  Uiso   1.00
C596   C     0.77890   0.16438   0.90323   0.00000  Uiso   1.00
C597   C     0.85753   0.32081   0.74099   0.00000  Uiso   1.00
C598   C     0.79979   0.16586   0.84721   0.00000  Uiso   1.00
C599   C     0.80980   0.01226   0.75884   0.00000  Uiso   1.00
C600   C     0.81872   0.06688   0.74945   0.00000  Uiso   1.00
C601   C     0.86717   0.17032   0.65294   0.00000  Uiso   1.00
C602   C     0.95840   0.22541   0.52654   0.00000  Uiso   1.00
C603   C     0.88725   0.17874   0.59786   0.00000  Uiso   1.00
C604   C     0.71814   0.13720   0.92390   0.00000  Uiso   1.00
C605   C     0.70042   0.12648   0.97564   0.00000  Uiso   1.00
C606   C     0.80564   0.16810   0.98766   0.00000  Uiso   1.00
C607   C     0.74366   0.14063   0.50713   0.00000  Uiso   1.00
C608   C     0.74248   0.00537   0.83819   0.00000  Uiso   1.00
C609   C     0.77364   0.31054   0.87099   0.00000  Uiso   1.00
C610   C     0.76714   0.00021   0.92531   0.00000  Uiso   1.00
C611   C     0.82119   0.18400   0.93605   0.00000  Uiso   1.00
C612   C     0.85256   0.18075   0.51772   0.00000  Uiso   1.00
C613   C     0.91182   0.21255   0.99727   0.00000  Uiso   1.00
C614   C     0.92336   0.23242   0.94840   0.00000  Uiso   1.00
C615   C     0.87836   0.21930   0.91865   0.00000  Uiso   1.00
C616   C     0.84251   0.16275   0.56759   0.00000  Uiso   1.00
C617   C     0.94602   0.20887   0.57681   0.00000  Uiso   1.00
Cu618  Cu    0.77377   0.16105   0.74435   0.00000  Uiso   1.00
Cu619  Cu    0.89290   0.17228   0.75564   0.00000  Uiso   1.00
H620   H     0.98111   0.22160   0.59981   0.00000  Uiso   1.00
H621   H     0.88871   0.23816   0.88219   0.00000  Uiso   1.00
H622   H     0.69100   0.33048   0.85385   0.00000  Uiso   1.00
H623   H     0.75819   0.04859   0.84163   0.00000  Uiso   1.00
H624   H     0.75139   0.26825   0.87241   0.00000  Uiso   1.00
H625   H     0.82444   0.31427   0.85378   0.00000  Uiso   1.00
H626   H     0.79292   0.04155   0.92478   0.00000  Uiso   1.00
H627   H     0.78730   0.31063   0.94869   0.00000  Uiso   1.00
H628   H     0.71697   0.33216   0.94335   0.00000  Uiso   1.00
H629   H     0.66924   0.20384   0.79117   0.00000  Uiso   1.00
H630   H     0.99800   0.13077   0.70797   0.00000  Uiso   1.00
H631   H     0.96736   0.25836   0.93302   0.00000  Uiso   1.00
H632   H     0.67040   0.24956   0.51101   0.00000  Uiso   1.00
H633   H     0.79942   0.13703   0.58457   0.00000  Uiso   1.00
H634   H     0.68478   0.12262   0.89972   0.00000  Uiso   1.00
H635   H     0.72648   0.13044   0.54670   0.00000  Uiso   1.00
H636   H     0.98662   0.10561   0.99125   0.00000  Uiso   1.00
I637   I     0.94415   0.01874   0.69025   0.00000  Uiso   1.00
N638   N     0.98241   0.18074   0.76416   0.00000  Uiso   1.00
N639   N     0.68426   0.15259   0.73584   0.00000  Uiso   1.00
O640   O     0.79464   0.23807   0.74633   0.00000  Uiso   1.00
O641   O     0.89524   0.24755   0.75586   0.00000  Uiso   1.00
O642   O     0.75848   0.15960   0.81839   0.00000  Uiso   1.00
O643   O     0.85908   0.16908   0.82793   0.00000  Uiso   1.00
O644   O     0.77142   0.08578   0.74413   0.00000  Uiso   1.00
O645   O     0.87203   0.09526   0.75367   0.00000  Uiso   1.00
O646   O     0.80758   0.16425   0.67207   0.00000  Uiso   1.00
O647   O     0.90819   0.17373   0.68160   0.00000  Uiso   1.00
O648   O     0.75253   0.31943   0.78694   0.00000  Uiso   1.00
C649   C     0.18172   0.59966   0.74958   0.00000  Uiso   1.00
C650   C     0.11224   0.49771   0.90323   0.00000  Uiso   1.00
C651   C     0.19087   0.65414   0.74099   0.00000  Uiso   1.00
C652   C     0.13313   0.49920   0.84721   0.00000  Uiso   1.00
C653   C     0.14313   0.34559   0.75884   0.00000  Uiso   1.00
C654   C     0.15205   0.40022   0.74945   0.00000  Uiso   1.00
C655   C     0.20050   0.50365   0.65294   0.00000  Uiso   1.00
C656   C     0.29173   0.55874   0.52654   0.00000  Uiso   1.00
C657   C     0.22059   0.51207   0.59786   0.00000  Uiso   1.00
C658   C     0.05147   0.47053   0.92390   0.00000  Uiso   1.00
C659   C     0.03376   0.45981   0.97564   0.00000  Uiso   1.00
C660   C     0.13897   0.50143   0.98766   0.00000  Uiso   1.00
C661   C     0.07699   0.47396   0.50713   0.00000  Uiso   1.00
C662   C     0.07581   0.33870   0.83819   0.00000  Uiso   1.00
C663   C     0.10697   0.64387   0.87099   0.00000  Uiso   1.00
C664   C     0.10047   0.33355   0.92531   0.00000  Uiso   1.00
C665   C     0.15452   0.51734   0.93605   0.00000  Uiso   1.00
C666   C     0.18589   0.51408   0.51772   0.00000  Uiso   1.00
C667   C     0.24515   0.54589   0.99727   0.00000  Uiso   1.00
C668   C     0.25669   0.56576   0.94840   0.00000  Uiso   1.00
C669   C     0.21170   0.55264   0.91865   0.00000  Uiso   1.00
C670   C     0.17584   0.49608   0.56759   0.00000  Uiso   1.00
C671   C     0.27935   0.54220   0.57681   0.00000  Uiso   1.00
Cu672  Cu    0.10710   0.49439   0.74435   0.00000  Uiso   1.00
Cu673  Cu    0.22623   0.50561   0.75564   0.00000  Uiso   1.00
H674   H     0.31445   0.55494   0.59981   0.00000  Uiso   1.00
H675   H     0.22204   0.57149   0.88219   0.00000  Uiso   1.00
H676   H     0.02433   0.66381   0.85385   0.00000  Uiso   1.00
H677   H     0.09152   0.38192   0.84163   0.00000  Uiso   1.00
H678   H     0.08473   0.60159   0.87241   0.00000  Uiso   1.00
H679   H     0.15778   0.64760   0.85378   0.00000  Uiso   1.00
H680   H     0.12626   0.37489   0.92478   0.00000  Uiso   1.00
H681   H     0.12063   0.64397   0.94869   0.00000  Uiso   1.00
H682   H     0.05031   0.66550   0.94335   0.00000  Uiso   1.00
H683   H     0.00258   0.53717   0.79117   0.00000  Uiso   1.00
H684   H     0.33133   0.46410   0.70797   0.00000  Uiso   1.00
H685   H     0.30069   0.59169   0.93302   0.00000  Uiso   1.00
H686   H     0.00373   0.58289   0.51101   0.00000  Uiso   1.00
H687   H     0.13276   0.47036   0.58457   0.00000  Uiso   1.00
H688   H     0.01811   0.45595   0.89972   0.00000  Uiso   1.00
H689   H     0.05981   0.46377   0.54670   0.00000  Uiso   1.00
H690   H     0.31995   0.43895   0.99125   0.00000  Uiso   1.00
I691   I     0.27749   0.35207   0.69025   0.00000  Uiso   1.00
N692   N     0.31574   0.51407   0.76416   0.00000  Uiso   1.00
N693   N     0.01759   0.48593   0.73584   0.00000  Uiso   1.00
O694   O     0.12797   0.57141   0.74633   0.00000  Uiso   1.00
O695   O     0.22858   0.58089   0.75586   0.00000  Uiso   1.00
O696   O     0.09181   0.49293   0.81839   0.00000  Uiso   1.00
O697   O     0.19242   0.50241   0.82793   0.00000  Uiso   1.00
O698   O     0.10476   0.41911   0.74413   0.00000  Uiso   1.00
O699   O     0.20536   0.42859   0.75367   0.00000  Uiso   1.00
O700   O     0.14092   0.49759   0.67207   0.00000  Uiso   1.00
O701   O     0.24152   0.50707   0.68160   0.00000  Uiso   1.00
O702   O     0.08586   0.65276   0.78694   0.00000  Uiso   1.00
C703   C     0.51506   0.59966   0.74958   0.00000  Uiso   1.00
C704   C     0.44557   0.49771   0.90323   0.00000  Uiso   1.00
C705   C     0.52420   0.65414   0.74099   0.00000  Uiso   1.00
C706   C     0.46646   0.49920   0.84721   0.00000  Uiso   1.00
C707   C     0.47647   0.34559   0.75884   0.00000  Uiso   1.00
C708   C     0.48538   0.40022   0.74945   0.00000  Uiso   1.00
C709   C     0.53384   0.50365   0.65294   0.00000  Uiso   1.00
C710   C     0.62507   0.55874   0.52654   0.00000  Uiso   1.00
C711   C     0.55392   0.51207   0.59786   0.00000  Uiso   1.00
C712   C     0.38480   0.47053   0.92390   0.00000  Uiso   1.00
C713   C     0.36709   0.45981   0.97564   0.00000  Uiso   1.00
C714   C     0.47230   0.50143   0.98766   0.00000  Uiso   1.00
C715   C     0.41033   0.47396   0.50713   0.00000  Uiso   1.00
C716   C     0.40914   0.33870   0.83819   0.00000  Uiso   1.00
C717   C     0.44030   0.64387   0.87099   0.00000  Uiso   1.00
C718   C     0.43381   0.33355   0.92531   0.00000  Uiso   1.00
C719   C     0.48785   0.51734   0.93605   0.00000  Uiso   1.00
C720   C     0.51922   0.51408   0.51772   0.00000  Uiso   1.00
C721   C     0.57849   0.54589   0.99727   0.00000  Uiso   1.00
C722   C     0.59002   0.56576   0.94840   0.00000  Uiso   1.00
C723   C     0.54503   0.55264   0.91865   0.00000  Uiso   1.00
C724   C     0.50917   0.49608   0.56759   0.00000  Uiso   1.00
C725   C     0.61268   0.54220   0.57681   0.00000  Uiso   1.00
Cu726  Cu    0.44043   0.49439   0.74435   0.00000  Uiso   1.00
Cu727  Cu    0.55957   0.50561   0.75564   0.00000  Uiso   1.00
H728   H     0.64778   0.55494   0.59981   0.00000  Uiso   1.00
H729   H     0.55538   0.57149   0.88219   0.00000  Uiso   1.00
H730   H     0.35767   0.66381   0.85385   0.00000  Uiso   1.00
H731   H     0.42486   0.38192   0.84163   0.00000  Uiso   1.00
H732   H     0.41806   0.60159   0.87241   0.00000  Uiso   1.00
H733   H     0.49111   0.64760   0.85378   0.00000  Uiso   1.00
H734   H     0.45959   0.37489   0.92478   0.00000  Uiso   1.00
H735   H     0.45397   0.64397   0.94869   0.00000  Uiso   1.00
H736   H     0.38364   0.66550   0.94335   0.00000  Uiso   1.00
H737   H     0.33591   0.53717   0.79117   0.00000  Uiso   1.00
H738   H     0.66466   0.46410   0.70797   0.00000  Uiso   1.00
H739   H     0.63403   0.59169   0.93302   0.00000  Uiso   1.00
H740   H     0.33707   0.58289   0.51101   0.00000  Uiso   1.00
H741   H     0.46609   0.47036   0.58457   0.00000  Uiso   1.00
H742   H     0.35144   0.45595   0.89972   0.00000  Uiso   1.00
H743   H     0.39314   0.46377   0.54670   0.00000  Uiso   1.00
H744   H     0.65328   0.43895   0.99125   0.00000  Uiso   1.00
I745   I     0.61082   0.35207   0.69025   0.00000  Uiso   1.00
N746   N     0.64908   0.51407   0.76416   0.00000  Uiso   1.00
N747   N     0.35092   0.48593   0.73584   0.00000  Uiso   1.00
O748   O     0.46131   0.57141   0.74633   0.00000  Uiso   1.00
O749   O     0.56191   0.58089   0.75586   0.00000  Uiso   1.00
O750   O     0.42515   0.49293   0.81839   0.00000  Uiso   1.00
O751   O     0.52575   0.50241   0.82793   0.00000  Uiso   1.00
O752   O     0.43809   0.41911   0.74413   0.00000  Uiso   1.00
O753   O     0.53869   0.42859   0.75367   0.00000  Uiso   1.00
O754   O     0.47425   0.49759   0.67207   0.00000  Uiso   1.00
O755   O     0.57485   0.50707   0.68160   0.00000  Uiso   1.00
O756   O     0.41919   0.65276   0.78694   0.00000  Uiso   1.00
C757   C     0.84839   0.59966   0.74958   0.00000  Uiso   1.00
C758   C     0.77890   0.49771   0.90323   0.00000  Uiso   1.00
C759   C     0.85753   0.65414   0.74099   0.00000  Uiso   1.00
C760   C     0.79979   0.49920   0.84721   0.00000  Uiso   1.00
C761   C     0.80980   0.34559   0.75884   0.00000  Uiso   1.00
C762   C     0.81872   0.40022   0.74945   0.00000  Uiso   1.00
C763   C     0.86717   0.50365   0.65294   0.00000  Uiso   1.00
C764   C     0.95840   0.55874   0.52654   0.00000  Uiso   1.00
C765   C     0.88725   0.51207   0.59786   0.00000  Uiso   1.00
C766   C     0.71814   0.47053   0.92390   0.00000  Uiso   1.00
C767   C     0.70042   0.45981   0.97564   0.00000  Uiso   1.00
C768   C     0.80564   0.50143   0.98766   0.00000  Uiso   1.00
C769   C     0.74366   0.47396   0.50713   0.00000  Uiso   1.00
C770   C     0.74248   0.33870   0.83819   0.00000  Uiso   1.00
C771   C     0.77364   0.64387   0.87099   0.00000  Uiso   1.00
C772   C     0.76714   0.33355   0.92531   0.00000  Uiso   1.00
C773   C     0.82119   0.51734   0.93605   0.00000  Uiso   1.00
C774   C     0.85256   0.51408   0.51772   0.00000  Uiso   1.00
C775   C     0.91182   0.54589   0.99727   0.00000  Uiso   1.00
C776   C     0.92336   0.56576   0.94840   0.00000  Uiso   1.00
C777   C     0.87836   0.55264   0.91865   0.00000  Uiso   1.00
C778   C     0.84251   0.49608   0.56759   0.00000  Uiso   1.00
C779   C     0.94602   0.54220   0.57681   0.00000  Uiso   1.00
Cu780  Cu    0.77377   0.49439   0.74435   0.00000  Uiso   1.00
Cu781  Cu    0.89290   0.50561   0.75564   0.00000  Uiso   1.00
H782   H     0.98111   0.55494   0.59981   0.00000  Uiso   1.00
H783   H     0.88871   0.57149   0.88219   0.00000  Uiso   1.00
H784   H     0.69100   0.66381   0.85385   0.00000  Uiso   1.00
H785   H     0.75819   0.38192   0.84163   0.00000  Uiso   1.00
H786   H     0.75139   0.60159   0.87241   0.00000  Uiso   1.00
H787   H     0.82444   0.64760   0.85378   0.00000  Uiso   1.00
H788   H     0.79292   0.37489   0.92478   0.00000  Uiso   1.00
H789   H     0.78730   0.64397   0.94869   0.00000  Uiso   1.00
H790   H     0.71697   0.66550   0.94335   0.00000  Uiso   1.00
H791   H     0.66924   0.53717   0.79117   0.00000  Uiso   1.00
H792   H     0.99800   0.46410   0.70797   0.00000  Uiso   1.00
H793   H     0.96736   0.59169   0.93302   0.00000  Uiso   1.00
H794   H     0.67040   0.58289   0.51101   0.00000  Uiso   1.00
H795   H     0.79942   0.47036   0.58457   0.00000  Uiso   1.00
H796   H     0.68478   0.45595   0.89972   0.00000  Uiso   1.00
H797   H     0.72648   0.46377   0.54670   0.00000  Uiso   1.00
H798   H     0.98662   0.43895   0.99125   0.00000  Uiso   1.00
I799   I     0.94415   0.35207   0.69025   0.00000  Uiso   1.00
N800   N     0.98241   0.51407   0.76416   0.00000  Uiso   1.00
N801   N     0.68426   0.48593   0.73584   0.00000  Uiso   1.00
O802   O     0.79464   0.57141   0.74633   0.00000  Uiso   1.00
O803   O     0.89524   0.58089   0.75586   0.00000  Uiso   1.00
O804   O     0.75848   0.49293   0.81839   0.00000  Uiso   1.00
O805   O     0.85908   0.50241   0.82793   0.00000  Uiso   1.00
O806   O     0.77142   0.41911   0.74413   0.00000  Uiso   1.00
O807   O     0.87203   0.42859   0.75367   0.00000  Uiso   1.00
O808   O     0.80758   0.49759   0.67207   0.00000  Uiso   1.00
O809   O     0.90819   0.50707   0.68160   0.00000  Uiso   1.00
O810   O     0.75253   0.65276   0.78694   0.00000  Uiso   1.00
C811   C     0.18172   0.93300   0.74958   0.00000  Uiso   1.00
C812   C     0.11224   0.83105   0.90323   0.00000  Uiso   1.00
C813   C     0.19087   0.98748   0.74099   0.00000  Uiso   1.00
C814   C     0.13313   0.83253   0.84721   0.00000  Uiso   1.00
C815   C     0.14313   0.67892   0.75884   0.00000  Uiso   1.00
C816   C     0.15205   0.73355   0.74945   0.00000  Uiso   1.00
C817   C     0.20050   0.83699   0.65294   0.00000  Uiso   1.00
C818   C     0.29173   0.89207   0.52654   0.00000  Uiso   1.00
C819   C     0.22059   0.84540   0.59786   0.00000  Uiso   1.00
C820   C     0.05147   0.80386   0.92390   0.00000  Uiso   1.00
C821   C     0.03376   0.79314   0.97564   0.00000  Uiso   1.00
C822   C     0.13897   0.83476   0.98766   0.00000  Uiso   1.00
C823   C     0.07699   0.80730   0.50713   0.00000  Uiso   1.00
C824   C     0.07581   0.67204   0.83819   0.00000  Uiso   1.00
C825   C     0.10697   0.97720   0.87099   0.00000  Uiso   1.00
C826   C     0.10047   0.66688   0.92531   0.00000  Uiso   1.00
C827   C     0.15452   0.85067   0.93605   0.00000  Uiso   1.00
C828   C     0.18589   0.84742   0.51772   0.00000  Uiso   1.00
C829   C     0.24515   0.87922   0.99727   0.00000  Uiso   1.00
C830   C     0.25669   0.89909   0.94840   0.00000  Uiso   1.00
C831   C     0.21170   0.88597   0.91865   0.00000  Uiso   1.00
C832   C     0.17584   0.82941   0.56759   0.00000  Uiso   1.00
C833   C     0.27935   0.87553   0.57681   0.00000  Uiso   1.00
Cu834  Cu    0.10710   0.82772   0.74435   0.00000  Uiso   1.00
Cu835  Cu    0.22623   0.83895   0.75564   0.00000  Uiso   1.00
H836   H     0.31445   0.88827   0.59981   0.00000  Uiso   1.00
H837   H     0.22204   0.90483   0.88219   0.00000  Uiso   1.00
H838   H     0.02433   0.99715   0.85385   0.00000  Uiso   1.00
H839   H     0.09152   0.71525   0.84163   0.00000  Uiso   1.00
H840   H     0.08473   0.93492   0.87241   0.00000  Uiso   1.00
H841   H     0.15778   0.98093   0.85378   0.00000  Uiso   1.00
H842   H     0.12626   0.70822   0.92478   0.00000  Uiso   1.00
H843   H     0.12063   0.97730   0.94869   0.00000  Uiso   1.00
H844   H     0.05031   0.99883   0.94335   0.00000  Uiso   1.00
H845   H     0.00258   0.87051   0.79117   0.00000  Uiso   1.00
H846   H     0.33133   0.79744   0.70797   0.00000  Uiso   1.00
H847   H     0.30069   0.92503   0.93302   0.00000  Uiso   1.00
H848   H     0.00373   0.91622   0.51101   0.00000  Uiso   1.00
H849   H     0.13276   0.80370   0.58457   0.00000  Uiso   1.00
H850   H     0.01811   0.78929   0.89972   0.00000  Uiso   1.00
H851   H     0.05981   0.79711   0.54670   0.00000  Uiso   1.00
H852   H     0.31995   0.77228   0.99125   0.00000  Uiso   1.00
I853   I     0.27749   0.68541   0.69025   0.00000  Uiso   1.00
N854   N     0.31574   0.84741   0.76416   0.00000  Uiso   1.00
N855   N     0.01759   0.81926   0.73584   0.00000  Uiso   1.00
O856   O     0.12797   0.90474   0.74633   0.00000  Uiso   1.00
O857   O     0.22858   0.91422   0.75586   0.00000  Uiso   1.00
O858   O     0.09181   0.82627   0.81839   0.00000  Uiso   1.00
O859   O     0.19242   0.83575   0.82793   0.00000  Uiso   1.00
O860   O     0.10476   0.75245   0.74413   0.00000  Uiso   1.00
O861   O     0.20536   0.76193   0.75367   0.00000  Uiso   1.00
O862   O     0.14092   0.83092   0.67207   0.00000  Uiso   1.00
O863   O     0.24152   0.84040   0.68160   0.00000  Uiso   1.00
O864   O     0.08586   0.98609   0.78694   0.00000  Uiso   1.00
C865   C     0.51506   0.93300   0.74958   0.00000  Uiso   1.00
C866   C     0.44557   0.83105   0.90323   0.00000  Uiso   1.00
C867   C     0.52420   0.98748   0.74099   0.00000  Uiso   1.00
C868   C     0.46646   0.83253   0.84721   0.00000  Uiso   1.00
C869   C     0.47647   0.67892   0.75884   0.00000  Uiso   1.00
C870   C     0.48538   0.73355   0.74945   0.00000  Uiso   1.00
C871   C     0.53384   0.83699   0.65294   0.00000  Uiso   1.00
C872   C     0.62507   0.89207   0.52654   0.00000  Uiso   1.00
C873   C     0.55392   0.84540   0.59786   0.00000  Uiso   1.00
C874   C     0.38480   0.80386   0.92390   0.00000  Uiso   1.00
C875   C     0.36709   0.79314   0.97564   0.00000  Uiso   1.00
C876   C     0.47230   0.83476   0.98766   0.00000  Uiso   1.00
C877   C     0.41033   0.80730   0.50713   0.00000  Uiso   1.00
C878   C     0.40914   0.67204   0.83819   0.00000  Uiso   1.00
C879   C     0.44030   0.97720   0.87099   0.00000  Uiso   1.00
C880   C     0.43381   0.66688   0.92531   0.00000  Uiso   1.00
C881   C     0.48785   0.85067   0.93605   0.00000  Uiso   1.00
C882   C     0.51922   0.84742   0.51772   0.00000  Uiso   1.00
C883   C     0.57849   0.87922   0.99727   0.00000  Uiso   1.00
C884   C     0.59002   0.89909   0.94840   0.00000  Uiso   1.00
C885   C     0.54503   0.88597   0.91865   0.00000  Uiso   1.00
C886   C     0.50917   0.82941   0.56759   0.00000  Uiso   1.00
C887   C     0.61268   0.87553   0.57681   0.00000  Uiso   1.00
Cu888  Cu    0.44043   0.82772   0.74435   0.00000  Uiso   1.00
Cu889  Cu    0.55957   0.83895   0.75564   0.00000  Uiso   1.00
H890   H     0.64778   0.88827   0.59981   0.00000  Uiso   1.00
H891   H     0.55538   0.90483   0.88219   0.00000  Uiso   1.00
H892   H     0.35767   0.99715   0.85385   0.00000  Uiso   1.00
H893   H     0.42486   0.71525   0.84163   0.00000  Uiso   1.00
H894   H     0.41806   0.93492   0.87241   0.00000  Uiso   1.00
H895   H     0.49111   0.98093   0.85378   0.00000  Uiso   1.00
H896   H     0.45959   0.70822   0.92478   0.00000  Uiso   1.00
H897   H     0.45397   0.97730   0.94869   0.00000  Uiso   1.00
H898   H     0.38364   0.99883   0.94335   0.00000  Uiso   1.00
H899   H     0.33591   0.87051   0.79117   0.00000  Uiso   1.00
H900   H     0.66466   0.79744   0.70797   0.00000  Uiso   1.00
H901   H     0.63403   0.92503   0.93302   0.00000  Uiso   1.00
H902   H     0.33707   0.91622   0.51101   0.00000  Uiso   1.00
H903   H     0.46609   0.80370   0.58457   0.00000  Uiso   1.00
H904   H     0.35144   0.78929   0.89972   0.00000  Uiso   1.00
H905   H     0.39314   0.79711   0.54670   0.00000  Uiso   1.00
H906   H     0.65328   0.77228   0.99125   0.00000  Uiso   1.00
I907   I     0.61082   0.68541   0.69025   0.00000  Uiso   1.00
N908   N     0.64908   0.84741   0.76416   0.00000  Uiso   1.00
N909   N     0.35092   0.81926   0.73584   0.00000  Uiso   1.00
O910   O     0.46131   0.90474   0.74633   0.00000  Uiso   1.00
O911   O     0.56191   0.91422   0.75586   0.00000  Uiso   1.00
O912   O     0.42515   0.82627   0.81839   0.00000  Uiso   1.00
O913   O     0.52575   0.83575   0.82793   0.00000  Uiso   1.00
O914   O     0.43809   0.75245   0.74413   0.00000  Uiso   1.00
O915   O     0.53869   0.76193   0.75367   0.00000  Uiso   1.00
O916   O     0.47425   0.83092   0.67207   0.00000  Uiso   1.00
O917   O     0.57485   0.84040   0.68160   0.00000  Uiso   1.00
O918   O     0.41919   0.98609   0.78694   0.00000  Uiso   1.00
C919   C     0.84839   0.93300   0.74958   0.00000  Uiso   1.00
C920   C     0.77890   0.83105   0.90323   0.00000  Uiso   1.00
C921   C     0.85753   0.98748   0.74099   0.00000  Uiso   1.00
C922   C     0.79979   0.83253   0.84721   0.00000  Uiso   1.00
C923   C     0.80980   0.67892   0.75884   0.00000  Uiso   1.00
C924   C     0.81872   0.73355   0.74945   0.00000  Uiso   1.00
C925   C     0.86717   0.83699   0.65294   0.00000  Uiso   1.00
C926   C     0.95840   0.89207   0.52654   0.00000  Uiso   1.00
C927   C     0.88725   0.84540   0.59786   0.00000  Uiso   1.00
C928   C     0.71814   0.80386   0.92390   0.00000  Uiso   1.00
C929   C     0.70042   0.79314   0.97564   0.00000  Uiso   1.00
C930   C     0.80564   0.83476   0.98766   0.00000  Uiso   1.00
C931   C     0.74366   0.80730   0.50713   0.00000  Uiso   1.00
C932   C     0.74248   0.67204   0.83819   0.00000  Uiso   1.00
C933   C     0.77364   0.97720   0.87099   0.00000  Uiso   1.00
C934   C     0.76714   0.66688   0.92531   0.00000  Uiso   1.00
C935   C     0.82119   0.85067   0.93605   0.00000  Uiso   1.00
C936   C     0.85256   0.84742   0.51772   0.00000  Uiso   1.00
C937   C     0.91182   0.87922   0.99727   0.00000  Uiso   1.00
C938   C     0.92336   0.89909   0.94840   0.00000  Uiso   1.00
C939   C     0.87836   0.88597   0.91865   0.00000  Uiso   1.00
C940   C     0.84251   0.82941   0.56759   0.00000  Uiso   1.00
C941   C     0.94602   0.87553   0.57681   0.00000  Uiso   1.00
Cu942  Cu    0.77377   0.82772   0.74435   0.00000  Uiso   1.00
Cu943  Cu    0.89290   0.83895   0.75564   0.00000  Uiso   1.00
H944   H     0.98111   0.88827   0.59981   0.00000  Uiso   1.00
H945   H     0.88871   0.90483   0.88219   0.00000  Uiso   1.00
H946   H     0.69100   0.99715   0.85385   0.00000  Uiso   1.00
H947   H     0.75819   0.71525   0.84163   0.00000  Uiso   1.00
H948   H     0.75139   0.93492   0.87241   0.00000  Uiso   1.00
H949   H     0.82444   0.98093   0.85378   0.00000  Uiso   1.00
H950   H     0.79292   0.70822   0.92478   0.00000  Uiso   1.00
H951   H     0.78730   0.97730   0.94869   0.00000  Uiso   1.00
H952   H     0.71697   0.99883   0.94335   0.00000  Uiso   1.00
H953   H     0.66924   0.87051   0.79117   0.00000  Uiso   1.00
H954   H     0.99800   0.79744   0.70797   0.00000  Uiso   1.00
H955   H     0.96736   0.92503   0.93302   0.00000  Uiso   1.00
H956   H     0.67040   0.91622   0.51101   0.00000  Uiso   1.00
H957   H     0.79942   0.80370   0.58457   0.00000  Uiso   1.00
H958   H     0.68478   0.78929   0.89972   0.00000  Uiso   1.00
H959   H     0.72648   0.79711   0.54670   0.00000  Uiso   1.00
H960   H     0.98662   0.77228   0.99125   0.00000  Uiso   1.00
I961   I     0.94415   0.68541   0.69025   0.00000  Uiso   1.00
N962   N     0.98241   0.84741   0.76416   0.00000  Uiso   1.00
N963   N     0.68426   0.81926   0.73584   0.00000  Uiso   1.00
O964   O     0.79464   0.90474   0.74633   0.00000  Uiso   1.00
O965   O     0.89524   0.91422   0.75586   0.00000  Uiso   1.00
O966   O     0.75848   0.82627   0.81839   0.00000  Uiso   1.00
O967   O     0.85908   0.83575   0.82793   0.00000  Uiso   1.00
O968   O     0.77142   0.75245   0.74413   0.00000  Uiso   1.00
O969   O     0.87203   0.76193   0.75367   0.00000  Uiso   1.00
O970   O     0.80758   0.83092   0.67207   0.00000  Uiso   1.00
O971   O     0.90819   0.84040   0.68160   0.00000  Uiso   1.00
O972   O     0.75253   0.98609   0.78694   0.00000  Uiso   1.00
loop_
_geom_bond_atom_site_label_1
_geom_bond_atom_site_label_2
_geom_bond_distance
_geom_bond_site_symmetry_2
_ccdc_geom_bond_type
C1     O46     1.285   .     A
C1     O47     1.286   .     A
C1     C3      1.421   .     S
C2     C4      1.473   .     S
C2     C17     1.421   .     A
C2     C10     1.402   .     A
C3     C167    1.342   .     S
C3     I205    2.140   .     S
C4     O49     1.295   .     A
C4     O48     1.302   .     A
C5     C6      1.430   .     S
C5     C327    1.342   1_545 S
C5     O378    1.395   1_545 S
C6     O50     1.289   .     A
C6     O51     1.284   .     A
C7     O52     1.294   .     A
C7     C9      1.464   .     S
C7     O53     1.300   .     A
C8     C23     1.394   .     A
C8     C505    1.405   1_554 S
C8     H92     1.084   .     S
C9     C22     1.398   .     A
C9     C23     1.398   .     A
C10    C11     1.387   .     A
C10    H40     1.083   .     S
C11    C499    1.391   .     S
C11    H150    1.083   1_455 S
C12    C17     1.419   .     A
C12    C499    1.418   .     S
C12    C504    1.426   .     S
C13    H41     1.077   .     S
C13    C498    1.418   1_554 S
C13    C497    1.391   1_554 S
C14    H29     1.114   .     S
C14    C339    1.534   1_545 S
C14    H352    1.111   1_545 S
C14    O378    1.419   1_545 S
C15    H31     1.111   .     S
C15    H30     1.111   .     S
C15    C176    1.534   .     S
C15    C178    1.527   .     S
C16    H32     1.111   .     S
C16    C339    1.527   1_545 S
C16    H357    1.111   1_545 S
C16    H358    1.110   1_545 S
C17    C21     1.412   .     A
C18    C22     1.402   .     A
C18    C498    1.426   1_554 S
C18    C505    1.420   1_554 S
C19    C20     1.392   .     A
C19    C504    1.420   .     S
C19    C494    1.405   .     S
C20    C21     1.386   .     A
C20    H37     1.083   .     S
C21    H27     1.081   .     S
C22    H39     1.077   .     S
C23    H26     1.083   .     S
Cu24   O52     1.920   .     S
Cu24   O46     1.968   .     S
Cu24   N45     2.018   .     S
Cu24   O50     1.955   .     S
Cu24   O48     1.940   .     S
Cu24   Cu25    2.685   .     S
Cu25   O51     1.968   .     S
Cu25   O47     1.955   .     S
Cu25   N44     2.018   .     S
Cu25   O53     1.940   .     S
Cu25   O49     1.920   .     S
H28    C176    1.111   .     S
H33    C178    1.111   .     S
H34    C178    1.110   .     S
H35    N152    1.029   1_455 S
H36    N99     1.027   .     S
H38    C116    1.084   1_455 S
H42    C65     1.083   .     S
I43    C327    2.140   1_545 S
N44    H89     1.029   .     S
N44    N99     1.280   .     S
N45    N152    1.280   1_455 S
N45    H144    1.027   1_455 S
O54    C167    1.395   .     S
O54    C176    1.419   .     S
C55    O100    1.285   .     A
C55    O101    1.286   .     A
C55    C57     1.421   .     S
C56    C58     1.473   .     S
C56    C71     1.421   .     A
C56    C64     1.402   .     A
C57    C221    1.342   .     S
C57    I259    2.140   .     S
C58    O103    1.295   .     A
C58    O102    1.302   .     A
C59    C60     1.430   .     S
C59    C381    1.342   1_545 S
C59    O432    1.395   1_545 S
C60    O104    1.289   .     A
C60    O105    1.284   .     A
C61    O106    1.294   .     A
C61    C63     1.464   .     S
C61    O107    1.300   .     A
C62    C77     1.394   .     A
C62    C559    1.405   1_554 S
C62    H146    1.084   .     S
C63    C76     1.398   .     A
C63    C77     1.398   .     A
C64    C65     1.387   .     A
C64    H94     1.083   .     S
C65    C553    1.391   .     S
C66    C71     1.419   .     A
C66    C553    1.418   .     S
C66    C558    1.426   .     S
C67    H95     1.077   .     S
C67    C552    1.418   1_554 S
C67    C551    1.391   1_554 S
C68    H83     1.114   .     S
C68    C393    1.534   1_545 S
C68    H406    1.111   1_545 S
C68    O432    1.419   1_545 S
C69    H85     1.111   .     S
C69    H84     1.111   .     S
C69    C230    1.534   .     S
C69    C232    1.527   .     S
C70    H86     1.111   .     S
C70    C393    1.527   1_545 S
C70    H411    1.111   1_545 S
C70    H412    1.110   1_545 S
C71    C75     1.412   .     A
C72    C76     1.402   .     A
C72    C552    1.426   1_554 S
C72    C559    1.420   1_554 S
C73    C74     1.392   .     A
C73    C558    1.420   .     S
C73    C548    1.405   .     S
C74    C75     1.386   .     A
C74    H91     1.083   .     S
C75    H81     1.081   .     S
C76    H93     1.077   .     S
C77    H80     1.083   .     S
Cu78   O106    1.920   .     S
Cu78   O100    1.968   .     S
Cu78   N99     2.018   .     S
Cu78   O104    1.955   .     S
Cu78   O102    1.940   .     S
Cu78   Cu79    2.685   .     S
Cu79   O105    1.968   .     S
Cu79   O101    1.955   .     S
Cu79   N98     2.018   .     S
Cu79   O107    1.940   .     S
Cu79   O103    1.920   .     S
H82    C230    1.111   .     S
H87    C232    1.111   .     S
H88    C232    1.110   .     S
H90    N153    1.027   .     S
H96    C119    1.083   .     S
I97    C381    2.140   1_545 S
N98    H143    1.029   .     S
N98    N153    1.280   .     S
O108   C221    1.395   .     S
O108   C230    1.419   .     S
C109   O154    1.285   .     A
C109   O155    1.286   .     A
C109   C111    1.421   .     S
C110   C112    1.473   .     S
C110   C125    1.421   .     A
C110   C118    1.402   .     A
C111   C275    1.342   .     S
C111   I313    2.140   .     S
C112   O157    1.295   .     A
C112   O156    1.302   .     A
C113   C114    1.430   .     S
C113   C435    1.342   1_545 S
C113   O486    1.395   1_545 S
C114   O158    1.289   .     A
C114   O159    1.284   .     A
C115   O160    1.294   .     A
C115   C117    1.464   .     S
C115   O161    1.300   .     A
C116   C131    1.394   .     A
C116   C613    1.405   1_554 S
C116   H38     1.084   1_655 S
C117   C130    1.398   .     A
C117   C131    1.398   .     A
C118   C119    1.387   .     A
C118   H148    1.083   .     S
C119   C607    1.391   .     S
C120   C125    1.419   .     A
C120   C607    1.418   .     S
C120   C612    1.426   .     S
C121   H149    1.077   .     S
C121   C606    1.418   1_554 S
C121   C605    1.391   1_554 S
C122   H137    1.114   .     S
C122   C447    1.534   1_545 S
C122   H460    1.111   1_545 S
C122   O486    1.419   1_545 S
C123   H139    1.111   .     S
C123   H138    1.111   .     S
C123   C284    1.534   .     S
C123   C286    1.527   .     S
C124   H140    1.111   .     S
C124   C447    1.527   1_545 S
C124   H465    1.111   1_545 S
C124   H466    1.110   1_545 S
C125   C129    1.412   .     A
C126   C130    1.402   .     A
C126   C606    1.426   1_554 S
C126   C613    1.420   1_554 S
C127   C128    1.392   .     A
C127   C612    1.420   .     S
C127   C602    1.405   .     S
C128   C129    1.386   .     A
C128   H145    1.083   .     S
C129   H135    1.081   .     S
C130   H147    1.077   .     S
C131   H134    1.083   .     S
Cu132  O160    1.920   .     S
Cu132  O154    1.968   .     S
Cu132  N153    2.018   .     S
Cu132  O158    1.955   .     S
Cu132  O156    1.940   .     S
Cu132  Cu133   2.685   .     S
Cu133  O159    1.968   .     S
Cu133  O155    1.955   .     S
Cu133  N152    2.018   .     S
Cu133  O161    1.940   .     S
Cu133  O157    1.920   .     S
H136   C284    1.111   .     S
H141   C286    1.111   .     S
H142   C286    1.110   .     S
H144   N45     1.027   1_655 S
H150   C11     1.083   1_655 S
I151   C435    2.140   1_545 S
N152   H35     1.029   1_655 S
N152   N45     1.280   1_655 S
O162   C275    1.395   .     S
O162   C284    1.419   .     S
C163   O208    1.285   .     A
C163   O209    1.286   .     A
C163   C165    1.421   .     S
C164   C166    1.473   .     S
C164   C179    1.421   .     A
C164   C172    1.402   .     A
C165   C329    1.342   .     S
C165   I367    2.140   .     S
C166   O211    1.295   .     A
C166   O210    1.302   .     A
C167   C168    1.430   .     S
C168   O212    1.289   .     A
C168   O213    1.284   .     A
C169   O214    1.294   .     A
C169   C171    1.464   .     S
C169   O215    1.300   .     A
C170   C185    1.394   .     A
C170   C667    1.405   1_554 S
C170   H254    1.084   .     S
C171   C184    1.398   .     A
C171   C185    1.398   .     A
C172   C173    1.387   .     A
C172   H202    1.083   .     S
C173   C661    1.391   .     S
C173   H312    1.083   1_455 S
C174   C179    1.419   .     A
C174   C661    1.418   .     S
C174   C666    1.426   .     S
C175   H203    1.077   .     S
C175   C660    1.418   1_554 S
C175   C659    1.391   1_554 S
C176   H191    1.114   .     S
C177   H193    1.111   .     S
C177   H192    1.111   .     S
C177   C338    1.534   .     S
C177   C340    1.527   .     S
C178   H194    1.111   .     S
C179   C183    1.412   .     A
C180   C184    1.402   .     A
C180   C660    1.426   1_554 S
C180   C667    1.420   1_554 S
C181   C182    1.392   .     A
C181   C666    1.420   .     S
C181   C656    1.405   .     S
C182   C183    1.386   .     A
C182   H199    1.083   .     S
C183   H189    1.081   .     S
C184   H201    1.077   .     S
C185   H188    1.083   .     S
Cu186  O214    1.920   .     S
Cu186  O208    1.968   .     S
Cu186  N207    2.018   .     S
Cu186  O212    1.955   .     S
Cu186  O210    1.940   .     S
Cu186  Cu187   2.685   .     S
Cu187  O213    1.968   .     S
Cu187  O209    1.955   .     S
Cu187  N206    2.018   .     S
Cu187  O215    1.940   .     S
Cu187  O211    1.920   .     S
H190   C338    1.111   .     S
H195   C340    1.111   .     S
H196   C340    1.110   .     S
H197   N314    1.029   1_455 S
H198   N261    1.027   .     S
H200   C278    1.084   1_455 S
H204   C227    1.083   .     S
N206   H251    1.029   .     S
N206   N261    1.280   .     S
N207   N314    1.280   1_455 S
N207   H306    1.027   1_455 S
O216   C329    1.395   .     S
O216   C338    1.419   .     S
C217   O262    1.285   .     A
C217   O263    1.286   .     A
C217   C219    1.421   .     S
C218   C220    1.473   .     S
C218   C233    1.421   .     A
C218   C226    1.402   .     A
C219   C383    1.342   .     S
C219   I421    2.140   .     S
C220   O265    1.295   .     A
C220   O264    1.302   .     A
C221   C222    1.430   .     S
C222   O266    1.289   .     A
C222   O267    1.284   .     A
C223   O268    1.294   .     A
C223   C225    1.464   .     S
C223   O269    1.300   .     A
C224   C239    1.394   .     A
C224   C721    1.405   1_554 S
C224   H308    1.084   .     S
C225   C238    1.398   .     A
C225   C239    1.398   .     A
C226   C227    1.387   .     A
C226   H256    1.083   .     S
C227   C715    1.391   .     S
C228   C233    1.419   .     A
C228   C715    1.418   .     S
C228   C720    1.426   .     S
C229   H257    1.077   .     S
C229   C714    1.418   1_554 S
C229   C713    1.391   1_554 S
C230   H245    1.114   .     S
C231   H247    1.111   .     S
C231   H246    1.111   .     S
C231   C392    1.534   .     S
C231   C394    1.527   .     S
C232   H248    1.111   .     S
C233   C237    1.412   .     A
C234   C238    1.402   .     A
C234   C714    1.426   1_554 S
C234   C721    1.420   1_554 S
C235   C236    1.392   .     A
C235   C720    1.420   .     S
C235   C710    1.405   .     S
C236   C237    1.386   .     A
C236   H253    1.083   .     S
C237   H243    1.081   .     S
C238   H255    1.077   .     S
C239   H242    1.083   .     S
Cu240  O268    1.920   .     S
Cu240  O262    1.968   .     S
Cu240  N261    2.018   .     S
Cu240  O266    1.955   .     S
Cu240  O264    1.940   .     S
Cu240  Cu241   2.685   .     S
Cu241  O267    1.968   .     S
Cu241  O263    1.955   .     S
Cu241  N260    2.018   .     S
Cu241  O269    1.940   .     S
Cu241  O265    1.920   .     S
H244   C392    1.111   .     S
H249   C394    1.111   .     S
H250   C394    1.110   .     S
H252   N315    1.027   .     S
H258   C281    1.083   .     S
N260   H305    1.029   .     S
N260   N315    1.280   .     S
O270   C383    1.395   .     S
O270   C392    1.419   .     S
C271   O316    1.285   .     A
C271   O317    1.286   .     A
C271   C273    1.421   .     S
C272   C274    1.473   .     S
C272   C287    1.421   .     A
C272   C280    1.402   .     A
C273   C437    1.342   .     S
C273   I475    2.140   .     S
C274   O319    1.295   .     A
C274   O318    1.302   .     A
C275   C276    1.430   .     S
C276   O320    1.289   .     A
C276   O321    1.284   .     A
C277   O322    1.294   .     A
C277   C279    1.464   .     S
C277   O323    1.300   .     A
C278   C293    1.394   .     A
C278   C775    1.405   1_554 S
C278   H200    1.084   1_655 S
C279   C292    1.398   .     A
C279   C293    1.398   .     A
C280   C281    1.387   .     A
C280   H310    1.083   .     S
C281   C769    1.391   .     S
C282   C287    1.419   .     A
C282   C769    1.418   .     S
C282   C774    1.426   .     S
C283   H311    1.077   .     S
C283   C768    1.418   1_554 S
C283   C767    1.391   1_554 S
C284   H299    1.114   .     S
C285   H301    1.111   .     S
C285   H300    1.111   .     S
C285   C446    1.534   .     S
C285   C448    1.527   .     S
C286   H302    1.111   .     S
C287   C291    1.412   .     A
C288   C292    1.402   .     A
C288   C768    1.426   1_554 S
C288   C775    1.420   1_554 S
C289   C290    1.392   .     A
C289   C774    1.420   .     S
C289   C764    1.405   .     S
C290   C291    1.386   .     A
C290   H307    1.083   .     S
C291   H297    1.081   .     S
C292   H309    1.077   .     S
C293   H296    1.083   .     S
Cu294  O322    1.920   .     S
Cu294  O316    1.968   .     S
Cu294  N315    2.018   .     S
Cu294  O320    1.955   .     S
Cu294  O318    1.940   .     S
Cu294  Cu295   2.685   .     S
Cu295  O321    1.968   .     S
Cu295  O317    1.955   .     S
Cu295  N314    2.018   .     S
Cu295  O323    1.940   .     S
Cu295  O319    1.920   .     S
H298   C446    1.111   .     S
H303   C448    1.111   .     S
H304   C448    1.110   .     S
H306   N207    1.027   1_655 S
H312   C173    1.083   1_655 S
N314   H197    1.029   1_655 S
N314   N207    1.280   1_655 S
O324   C437    1.395   .     S
O324   C446    1.419   .     S
C325   O370    1.285   .     A
C325   O371    1.286   .     A
C325   C327    1.421   .     S
C326   C328    1.473   .     S
C326   C341    1.421   .     A
C326   C334    1.402   .     A
C327   C5      1.342   1_565 S
C327   I43     2.140   1_565 S
C328   O373    1.295   .     A
C328   O372    1.302   .     A
C329   C330    1.430   .     S
C330   O374    1.289   .     A
C330   O375    1.284   .     A
C331   O376    1.294   .     A
C331   C333    1.464   .     S
C331   O377    1.300   .     A
C332   C347    1.394   .     A
C332   C829    1.405   1_554 S
C332   H416    1.084   .     S
C333   C346    1.398   .     A
C333   C347    1.398   .     A
C334   C335    1.387   .     A
C334   H364    1.083   .     S
C335   C823    1.391   .     S
C335   H474    1.083   1_455 S
C336   C341    1.419   .     A
C336   C823    1.418   .     S
C336   C828    1.426   .     S
C337   H365    1.077   .     S
C337   C822    1.418   1_554 S
C337   C821    1.391   1_554 S
C338   H353    1.114   .     S
C339   H355    1.111   .     S
C339   H354    1.111   .     S
C339   C14     1.534   1_565 S
C339   C16     1.527   1_565 S
C340   H356    1.111   .     S
C341   C345    1.412   .     A
C342   C346    1.402   .     A
C342   C822    1.426   1_554 S
C342   C829    1.420   1_554 S
C343   C344    1.392   .     A
C343   C828    1.420   .     S
C343   C818    1.405   .     S
C344   C345    1.386   .     A
C344   H361    1.083   .     S
C345   H351    1.081   .     S
C346   H363    1.077   .     S
C347   H350    1.083   .     S
Cu348  O376    1.920   .     S
Cu348  O370    1.968   .     S
Cu348  N369    2.018   .     S
Cu348  O374    1.955   .     S
Cu348  O372    1.940   .     S
Cu348  Cu349   2.685   .     S
Cu349  O375    1.968   .     S
Cu349  O371    1.955   .     S
Cu349  N368    2.018   .     S
Cu349  O377    1.940   .     S
Cu349  O373    1.920   .     S
H352   C14     1.111   1_565 S
H357   C16     1.111   1_565 S
H358   C16     1.110   1_565 S
H359   N476    1.029   1_455 S
H360   N423    1.027   .     S
H362   C440    1.084   1_455 S
H366   C389    1.083   .     S
N368   H413    1.029   .     S
N368   N423    1.280   .     S
N369   N476    1.280   1_455 S
N369   H468    1.027   1_455 S
O378   C5      1.395   1_565 S
O378   C14     1.419   1_565 S
C379   O424    1.285   .     A
C379   O425    1.286   .     A
C379   C381    1.421   .     S
C380   C382    1.473   .     S
C380   C395    1.421   .     A
C380   C388    1.402   .     A
C381   C59     1.342   1_565 S
C381   I97     2.140   1_565 S
C382   O427    1.295   .     A
C382   O426    1.302   .     A
C383   C384    1.430   .     S
C384   O428    1.289   .     A
C384   O429    1.284   .     A
C385   O430    1.294   .     A
C385   C387    1.464   .     S
C385   O431    1.300   .     A
C386   C401    1.394   .     A
C386   C883    1.405   1_554 S
C386   H470    1.084   .     S
C387   C400    1.398   .     A
C387   C401    1.398   .     A
C388   C389    1.387   .     A
C388   H418    1.083   .     S
C389   C877    1.391   .     S
C390   C395    1.419   .     A
C390   C877    1.418   .     S
C390   C882    1.426   .     S
C391   H419    1.077   .     S
C391   C876    1.418   1_554 S
C391   C875    1.391   1_554 S
C392   H407    1.114   .     S
C393   H409    1.111   .     S
C393   H408    1.111   .     S
C393   C68     1.534   1_565 S
C393   C70     1.527   1_565 S
C394   H410    1.111   .     S
C395   C399    1.412   .     A
C396   C400    1.402   .     A
C396   C876    1.426   1_554 S
C396   C883    1.420   1_554 S
C397   C398    1.392   .     A
C397   C882    1.420   .     S
C397   C872    1.405   .     S
C398   C399    1.386   .     A
C398   H415    1.083   .     S
C399   H405    1.081   .     S
C400   H417    1.077   .     S
C401   H404    1.083   .     S
Cu402  O430    1.920   .     S
Cu402  O424    1.968   .     S
Cu402  N423    2.018   .     S
Cu402  O428    1.955   .     S
Cu402  O426    1.940   .     S
Cu402  Cu403   2.685   .     S
Cu403  O429    1.968   .     S
Cu403  O425    1.955   .     S
Cu403  N422    2.018   .     S
Cu403  O431    1.940   .     S
Cu403  O427    1.920   .     S
H406   C68     1.111   1_565 S
H411   C70     1.111   1_565 S
H412   C70     1.110   1_565 S
H414   N477    1.027   .     S
H420   C443    1.083   .     S
N422   H467    1.029   .     S
N422   N477    1.280   .     S
O432   C59     1.395   1_565 S
O432   C68     1.419   1_565 S
C433   O478    1.285   .     A
C433   O479    1.286   .     A
C433   C435    1.421   .     S
C434   C436    1.473   .     S
C434   C449    1.421   .     A
C434   C442    1.402   .     A
C435   C113    1.342   1_565 S
C435   I151    2.140   1_565 S
C436   O481    1.295   .     A
C436   O480    1.302   .     A
C437   C438    1.430   .     S
C438   O482    1.289   .     A
C438   O483    1.284   .     A
C439   O484    1.294   .     A
C439   C441    1.464   .     S
C439   O485    1.300   .     A
C440   C455    1.394   .     A
C440   C937    1.405   1_554 S
C440   H362    1.084   1_655 S
C441   C454    1.398   .     A
C441   C455    1.398   .     A
C442   C443    1.387   .     A
C442   H472    1.083   .     S
C443   C931    1.391   .     S
C444   C449    1.419   .     A
C444   C931    1.418   .     S
C444   C936    1.426   .     S
C445   H473    1.077   .     S
C445   C930    1.418   1_554 S
C445   C929    1.391   1_554 S
C446   H461    1.114   .     S
C447   H463    1.111   .     S
C447   H462    1.111   .     S
C447   C122    1.534   1_565 S
C447   C124    1.527   1_565 S
C448   H464    1.111   .     S
C449   C453    1.412   .     A
C450   C454    1.402   .     A
C450   C930    1.426   1_554 S
C450   C937    1.420   1_554 S
C451   C452    1.392   .     A
C451   C936    1.420   .     S
C451   C926    1.405   .     S
C452   C453    1.386   .     A
C452   H469    1.083   .     S
C453   H459    1.081   .     S
C454   H471    1.077   .     S
C455   H458    1.083   .     S
Cu456  O484    1.920   .     S
Cu456  O478    1.968   .     S
Cu456  N477    2.018   .     S
Cu456  O482    1.955   .     S
Cu456  O480    1.940   .     S
Cu456  Cu457   2.685   .     S
Cu457  O483    1.968   .     S
Cu457  O479    1.955   .     S
Cu457  N476    2.018   .     S
Cu457  O485    1.940   .     S
Cu457  O481    1.920   .     S
H460   C122    1.111   1_565 S
H465   C124    1.111   1_565 S
H466   C124    1.110   1_565 S
H468   N369    1.027   1_655 S
H474   C335    1.083   1_655 S
N476   H359    1.029   1_655 S
N476   N369    1.280   1_655 S
O486   C113    1.395   1_565 S
O486   C122    1.419   1_565 S
C487   O532    1.285   .     A
C487   O533    1.286   .     A
C487   C489    1.421   .     S
C488   C490    1.473   .     S
C488   C503    1.421   .     A
C488   C496    1.402   .     A
C489   C653    1.342   .     S
C489   I691    2.140   .     S
C490   O535    1.295   .     A
C490   O534    1.302   .     A
C491   C492    1.430   .     S
C491   C813    1.342   1_545 S
C491   O864    1.395   1_545 S
C492   O536    1.289   .     A
C492   O537    1.284   .     A
C493   O538    1.294   .     A
C493   C495    1.464   .     S
C493   O539    1.300   .     A
C494   C509    1.394   .     A
C494   H578    1.084   .     S
C495   C508    1.398   .     A
C495   C509    1.398   .     A
C496   C497    1.387   .     A
C496   H526    1.083   .     S
C497   C13     1.391   1_556 S
C497   H636    1.083   1_455 S
C498   C503    1.419   .     A
C498   C13     1.418   1_556 S
C498   C18     1.426   1_556 S
C499   H527    1.077   .     S
C500   H515    1.114   .     S
C500   C825    1.534   1_545 S
C500   H838    1.111   1_545 S
C500   O864    1.419   1_545 S
C501   H517    1.111   .     S
C501   H516    1.111   .     S
C501   C662    1.534   .     S
C501   C664    1.527   .     S
C502   H518    1.111   .     S
C502   C825    1.527   1_545 S
C502   H843    1.111   1_545 S
C502   H844    1.110   1_545 S
C503   C507    1.412   .     A
C504   C508    1.402   .     A
C505   C506    1.392   .     A
C505   C18     1.420   1_556 S
C505   C8      1.405   1_556 S
C506   C507    1.386   .     A
C506   H523    1.083   .     S
C507   H513    1.081   .     S
C508   H525    1.077   .     S
C509   H512    1.083   .     S
Cu510  O538    1.920   .     S
Cu510  O532    1.968   .     S
Cu510  N531    2.018   .     S
Cu510  O536    1.955   .     S
Cu510  O534    1.940   .     S
Cu510  Cu511   2.685   .     S
Cu511  O537    1.968   .     S
Cu511  O533    1.955   .     S
Cu511  N530    2.018   .     S
Cu511  O539    1.940   .     S
Cu511  O535    1.920   .     S
H514   C662    1.111   .     S
H519   C664    1.111   .     S
H520   C664    1.110   .     S
H521   N638    1.029   1_455 S
H522   N585    1.027   .     S
H524   C602    1.084   1_455 S
H528   C551    1.083   .     S
I529   C813    2.140   1_545 S
N530   H575    1.029   .     S
N530   N585    1.280   .     S
N531   N638    1.280   1_455 S
N531   H630    1.027   1_455 S
O540   C653    1.395   .     S
O540   C662    1.419   .     S
C541   O586    1.285   .     A
C541   O587    1.286   .     A
C541   C543    1.421   .     S
C542   C544    1.473   .     S
C542   C557    1.421   .     A
C542   C550    1.402   .     A
C543   C707    1.342   .     S
C543   I745    2.140   .     S
C544   O589    1.295   .     A
C544   O588    1.302   .     A
C545   C546    1.430   .     S
C545   C867    1.342   1_545 S
C545   O918    1.395   1_545 S
C546   O590    1.289   .     A
C546   O591    1.284   .     A
C547   O592    1.294   .     A
C547   C549    1.464   .     S
C547   O593    1.300   .     A
C548   C563    1.394   .     A
C548   H632    1.084   .     S
C549   C562    1.398   .     A
C549   C563    1.398   .     A
C550   C551    1.387   .     A
C550   H580    1.083   .     S
C551   C67     1.391   1_556 S
C552   C557    1.419   .     A
C552   C67     1.418   1_556 S
C552   C72     1.426   1_556 S
C553   H581    1.077   .     S
C554   H569    1.114   .     S
C554   C879    1.534   1_545 S
C554   H892    1.111   1_545 S
C554   O918    1.419   1_545 S
C555   H571    1.111   .     S
C555   H570    1.111   .     S
C555   C716    1.534   .     S
C555   C718    1.527   .     S
C556   H572    1.111   .     S
C556   C879    1.527   1_545 S
C556   H897    1.111   1_545 S
C556   H898    1.110   1_545 S
C557   C561    1.412   .     A
C558   C562    1.402   .     A
C559   C560    1.392   .     A
C559   C72     1.420   1_556 S
C559   C62     1.405   1_556 S
C560   C561    1.386   .     A
C560   H577    1.083   .     S
C561   H567    1.081   .     S
C562   H579    1.077   .     S
C563   H566    1.083   .     S
Cu564  O592    1.920   .     S
Cu564  O586    1.968   .     S
Cu564  N585    2.018   .     S
Cu564  O590    1.955   .     S
Cu564  O588    1.940   .     S
Cu564  Cu565   2.685   .     S
Cu565  O591    1.968   .     S
Cu565  O587    1.955   .     S
Cu565  N584    2.018   .     S
Cu565  O593    1.940   .     S
Cu565  O589    1.920   .     S
H568   C716    1.111   .     S
H573   C718    1.111   .     S
H574   C718    1.110   .     S
H576   N639    1.027   .     S
H582   C605    1.083   .     S
I583   C867    2.140   1_545 S
N584   H629    1.029   .     S
N584   N639    1.280   .     S
O594   C707    1.395   .     S
O594   C716    1.419   .     S
C595   O640    1.285   .     A
C595   O641    1.286   .     A
C595   C597    1.421   .     S
C596   C598    1.473   .     S
C596   C611    1.421   .     A
C596   C604    1.402   .     A
C597   C761    1.342   .     S
C597   I799    2.140   .     S
C598   O643    1.295   .     A
C598   O642    1.302   .     A
C599   C600    1.430   .     S
C599   C921    1.342   1_545 S
C599   O972    1.395   1_545 S
C600   O644    1.289   .     A
C600   O645    1.284   .     A
C601   O646    1.294   .     A
C601   C603    1.464   .     S
C601   O647    1.300   .     A
C602   C617    1.394   .     A
C602   H524    1.084   1_655 S
C603   C616    1.398   .     A
C603   C617    1.398   .     A
C604   C605    1.387   .     A
C604   H634    1.083   .     S
C605   C121    1.391   1_556 S
C606   C611    1.419   .     A
C606   C121    1.418   1_556 S
C606   C126    1.426   1_556 S
C607   H635    1.077   .     S
C608   H623    1.114   .     S
C608   C933    1.534   1_545 S
C608   H946    1.111   1_545 S
C608   O972    1.419   1_545 S
C609   H625    1.111   .     S
C609   H624    1.111   .     S
C609   C770    1.534   .     S
C609   C772    1.527   .     S
C610   H626    1.111   .     S
C610   C933    1.527   1_545 S
C610   H951    1.111   1_545 S
C610   H952    1.110   1_545 S
C611   C615    1.412   .     A
C612   C616    1.402   .     A
C613   C614    1.392   .     A
C613   C126    1.420   1_556 S
C613   C116    1.405   1_556 S
C614   C615    1.386   .     A
C614   H631    1.083   .     S
C615   H621    1.081   .     S
C616   H633    1.077   .     S
C617   H620    1.083   .     S
Cu618  O646    1.920   .     S
Cu618  O640    1.968   .     S
Cu618  N639    2.018   .     S
Cu618  O644    1.955   .     S
Cu618  O642    1.940   .     S
Cu618  Cu619   2.685   .     S
Cu619  O645    1.968   .     S
Cu619  O641    1.955   .     S
Cu619  N638    2.018   .     S
Cu619  O647    1.940   .     S
Cu619  O643    1.920   .     S
H622   C770    1.111   .     S
H627   C772    1.111   .     S
H628   C772    1.110   .     S
H630   N531    1.027   1_655 S
H636   C497    1.083   1_655 S
I637   C921    2.140   1_545 S
N638   H521    1.029   1_655 S
N638   N531    1.280   1_655 S
O648   C761    1.395   .     S
O648   C770    1.419   .     S
C649   O694    1.285   .     A
C649   O695    1.286   .     A
C649   C651    1.421   .     S
C650   C652    1.473   .     S
C650   C665    1.421   .     A
C650   C658    1.402   .     A
C651   C815    1.342   .     S
C651   I853    2.140   .     S
C652   O697    1.295   .     A
C652   O696    1.302   .     A
C653   C654    1.430   .     S
C654   O698    1.289   .     A
C654   O699    1.284   .     A
C655   O700    1.294   .     A
C655   C657    1.464   .     S
C655   O701    1.300   .     A
C656   C671    1.394   .     A
C656   H740    1.084   .     S
C657   C670    1.398   .     A
C657   C671    1.398   .     A
C658   C659    1.387   .     A
C658   H688    1.083   .     S
C659   C175    1.391   1_556 S
C659   H798    1.083   1_455 S
C660   C665    1.419   .     A
C660   C175    1.418   1_556 S
C660   C180    1.426   1_556 S
C661   H689    1.077   .     S
C662   H677    1.114   .     S
C663   H679    1.111   .     S
C663   H678    1.111   .     S
C663   C824    1.534   .     S
C663   C826    1.527   .     S
C664   H680    1.111   .     S
C665   C669    1.412   .     A
C666   C670    1.402   .     A
C667   C668    1.392   .     A
C667   C180    1.420   1_556 S
C667   C170    1.405   1_556 S
C668   C669    1.386   .     A
C668   H685    1.083   .     S
C669   H675    1.081   .     S
C670   H687    1.077   .     S
C671   H674    1.083   .     S
Cu672  O700    1.920   .     S
Cu672  O694    1.968   .     S
Cu672  N693    2.018   .     S
Cu672  O698    1.955   .     S
Cu672  O696    1.940   .     S
Cu672  Cu673   2.685   .     S
Cu673  O699    1.968   .     S
Cu673  O695    1.955   .     S
Cu673  N692    2.018   .     S
Cu673  O701    1.940   .     S
Cu673  O697    1.920   .     S
H676   C824    1.111   .     S
H681   C826    1.111   .     S
H682   C826    1.110   .     S
H683   N800    1.029   1_455 S
H684   N747    1.027   .     S
H686   C764    1.084   1_455 S
H690   C713    1.083   .     S
N692   H737    1.029   .     S
N692   N747    1.280   .     S
N693   N800    1.280   1_455 S
N693   H792    1.027   1_455 S
O702   C815    1.395   .     S
O702   C824    1.419   .     S
C703   O748    1.285   .     A
C703   O749    1.286   .     A
C703   C705    1.421   .     S
C704   C706    1.473   .     S
C704   C719    1.421   .     A
C704   C712    1.402   .     A
C705   C869    1.342   .     S
C705   I907    2.140   .     S
C706   O751    1.295   .     A
C706   O750    1.302   .     A
C707   C708    1.430   .     S
C708   O752    1.289   .     A
C708   O753    1.284   .     A
C709   O754    1.294   .     A
C709   C711    1.464   .     S
C709   O755    1.300   .     A
C710   C725    1.394   .     A
C710   H794    1.084   .     S
C711   C724    1.398   .     A
C711   C725    1.398   .     A
C712   C713    1.387   .     A
C712   H742    1.083   .     S
C713   C229    1.391   1_556 S
C714   C719    1.419   .     A
C714   C229    1.418   1_556 S
C714   C234    1.426   1_556 S
C715   H743    1.077   .     S
C716   H731    1.114   .     S
C717   H733    1.111   .     S
C717   H732    1.111   .     S
C717   C878    1.534   .     S
C717   C880    1.527   .     S
C718   H734    1.111   .     S
C719   C723    1.412   .     A
C720   C724    1.402   .     A
C721   C722    1.392   .     A
C721   C234    1.420   1_556 S
C721   C224    1.405   1_556 S
C722   C723    1.386   .     A
C722   H739    1.083   .     S
C723   H729    1.081   .     S
C724   H741    1.077   .     S
C725   H728    1.083   .     S
Cu726  O754    1.920   .     S
Cu726  O748    1.968   .     S
Cu726  N747    2.018   .     S
Cu726  O752    1.955   .     S
Cu726  O750    1.940   .     S
Cu726  Cu727   2.685   .     S
Cu727  O753    1.968   .     S
Cu727  O749    1.955   .     S
Cu727  N746    2.018   .     S
Cu727  O755    1.940   .     S
Cu727  O751    1.920   .     S
H730   C878    1.111   .     S
H735   C880    1.111   .     S
H736   C880    1.110   .     S
H738   N801    1.027   .     S
H744   C767    1.083   .     S
N746   H791    1.029   .     S
N746   N801    1.280   .     S
O756   C869    1.395   .     S
O756   C878    1.419   .     S
C757   O802    1.285   .     A
C757   O803    1.286   .     A
C757   C759    1.421   .     S
C758   C760    1.473   .     S
C758   C773    1.421   .     A
C758   C766    1.402   .     A
C759   C923    1.342   .     S
C759   I961    2.140   .     S
C760   O805    1.295   .     A
C760   O804    1.302   .     A
C761   C762    1.430   .     S
C762   O806    1.289   .     A
C762   O807    1.284   .     A
C763   O808    1.294   .     A
C763   C765    1.464   .     S
C763   O809    1.300   .     A
C764   C779    1.394   .     A
C764   H686    1.084   1_655 S
C765   C778    1.398   .     A
C765   C779    1.398   .     A
C766   C767    1.387   .     A
C766   H796    1.083   .     S
C767   C283    1.391   1_556 S
C768   C773    1.419   .     A
C768   C283    1.418   1_556 S
C768   C288    1.426   1_556 S
C769   H797    1.077   .     S
C770   H785    1.114   .     S
C771   H787    1.111   .     S
C771   H786    1.111   .     S
C771   C932    1.534   .     S
C771   C934    1.527   .     S
C772   H788    1.111   .     S
C773   C777    1.412   .     A
C774   C778    1.402   .     A
C775   C776    1.392   .     A
C775   C288    1.420   1_556 S
C775   C278    1.405   1_556 S
C776   C777    1.386   .     A
C776   H793    1.083   .     S
C777   H783    1.081   .     S
C778   H795    1.077   .     S
C779   H782    1.083   .     S
Cu780  O808    1.920   .     S
Cu780  O802    1.968   .     S
Cu780  N801    2.018   .     S
Cu780  O806    1.955   .     S
Cu780  O804    1.940   .     S
Cu780  Cu781   2.685   .     S
Cu781  O807    1.968   .     S
Cu781  O803    1.955   .     S
Cu781  N800    2.018   .     S
Cu781  O809    1.940   .     S
Cu781  O805    1.920   .     S
H784   C932    1.111   .     S
H789   C934    1.111   .     S
H790   C934    1.110   .     S
H792   N693    1.027   1_655 S
H798   C659    1.083   1_655 S
N800   H683    1.029   1_655 S
N800   N693    1.280   1_655 S
O810   C923    1.395   .     S
O810   C932    1.419   .     S
C811   O856    1.285   .     A
C811   O857    1.286   .     A
C811   C813    1.421   .     S
C812   C814    1.473   .     S
C812   C827    1.421   .     A
C812   C820    1.402   .     A
C813   C491    1.342   1_565 S
C813   I529    2.140   1_565 S
C814   O859    1.295   .     A
C814   O858    1.302   .     A
C815   C816    1.430   .     S
C816   O860    1.289   .     A
C816   O861    1.284   .     A
C817   O862    1.294   .     A
C817   C819    1.464   .     S
C817   O863    1.300   .     A
C818   C833    1.394   .     A
C818   H902    1.084   .     S
C819   C832    1.398   .     A
C819   C833    1.398   .     A
C820   C821    1.387   .     A
C820   H850    1.083   .     S
C821   C337    1.391   1_556 S
C821   H960    1.083   1_455 S
C822   C827    1.419   .     A
C822   C337    1.418   1_556 S
C822   C342    1.426   1_556 S
C823   H851    1.077   .     S
C824   H839    1.114   .     S
C825   H841    1.111   .     S
C825   H840    1.111   .     S
C825   C500    1.534   1_565 S
C825   C502    1.527   1_565 S
C826   H842    1.111   .     S
C827   C831    1.412   .     A
C828   C832    1.402   .     A
C829   C830    1.392   .     A
C829   C342    1.420   1_556 S
C829   C332    1.405   1_556 S
C830   C831    1.386   .     A
C830   H847    1.083   .     S
C831   H837    1.081   .     S
C832   H849    1.077   .     S
C833   H836    1.083   .     S
Cu834  O862    1.920   .     S
Cu834  O856    1.968   .     S
Cu834  N855    2.018   .     S
Cu834  O860    1.955   .     S
Cu834  O858    1.940   .     S
Cu834  Cu835   2.685   .     S
Cu835  O861    1.968   .     S
Cu835  O857    1.955   .     S
Cu835  N854    2.018   .     S
Cu835  O863    1.940   .     S
Cu835  O859    1.920   .     S
H838   C500    1.111   1_565 S
H843   C502    1.111   1_565 S
H844   C502    1.110   1_565 S
H845   N962    1.029   1_455 S
H846   N909    1.027   .     S
H848   C926    1.084   1_455 S
H852   C875    1.083   .     S
N854   H899    1.029   .     S
N854   N909    1.280   .     S
N855   N962    1.280   1_455 S
N855   H954    1.027   1_455 S
O864   C491    1.395   1_565 S
O864   C500    1.419   1_565 S
C865   O910    1.285   .     A
C865   O911    1.286   .     A
C865   C867    1.421   .     S
C866   C868    1.473   .     S
C866   C881    1.421   .     A
C866   C874    1.402   .     A
C867   C545    1.342   1_565 S
C867   I583    2.140   1_565 S
C868   O913    1.295   .     A
C868   O912    1.302   .     A
C869   C870    1.430   .     S
C870   O914    1.289   .     A
C870   O915    1.284   .     A
C871   O916    1.294   .     A
C871   C873    1.464   .     S
C871   O917    1.300   .     A
C872   C887    1.394   .     A
C872   H956    1.084   .     S
C873   C886    1.398   .     A
C873   C887    1.398   .     A
C874   C875    1.387   .     A
C874   H904    1.083   .     S
C875   C391    1.391   1_556 S
C876   C881    1.419   .     A
C876   C391    1.418   1_556 S
C876   C396    1.426   1_556 S
C877   H905    1.077   .     S
C878   H893    1.114   .     S
C879   H895    1.111   .     S
C879   H894    1.111   .     S
C879   C554    1.534   1_565 S
C879   C556    1.527   1_565 S
C880   H896    1.111   .     S
C881   C885    1.412   .     A
C882   C886    1.402   .     A
C883   C884    1.392   .     A
C883   C396    1.420   1_556 S
C883   C386    1.405   1_556 S
C884   C885    1.386   .     A
C884   H901    1.083   .     S
C885   H891    1.081   .     S
C886   H903    1.077   .     S
C887   H890    1.083   .     S
Cu888  O916    1.920   .     S
Cu888  O910    1.968   .     S
Cu888  N909    2.018   .     S
Cu888  O914    1.955   .     S
Cu888  O912    1.940   .     S
Cu888  Cu889   2.685   .     S
Cu889  O915    1.968   .     S
Cu889  O911    1.955   .     S
Cu889  N908    2.018   .     S
Cu889  O917    1.940   .     S
Cu889  O913    1.920   .     S
H892   C554    1.111   1_565 S
H897   C556    1.111   1_565 S
H898   C556    1.110   1_565 S
H900   N963    1.027   .     S
H906   C929    1.083   .     S
N908   H953    1.029   .     S
N908   N963    1.280   .     S
O918   C545    1.395   1_565 S
O918   C554    1.419   1_565 S
C919   O964    1.285   .     A
C919   O965    1.286   .     A
C919   C921    1.421   .     S
C920   C922    1.473   .     S
C920   C935    1.421   .     A
C920   C928    1.402   .     A
C921   C599    1.342   1_565 S
C921   I637    2.140   1_565 S
C922   O967    1.295   .     A
C922   O966    1.302   .     A
C923   C924    1.430   .     S
C924   O968    1.289   .     A
C924   O969    1.284   .     A
C925   O970    1.294   .     A
C925   C927    1.464   .     S
C925   O971    1.300   .     A
C926   C941    1.394   .     A
C926   H848    1.084   1_655 S
C927   C940    1.398   .     A
C927   C941    1.398   .     A
C928   C929    1.387   .     A
C928   H958    1.083   .     S
C929   C445    1.391   1_556 S
C930   C935    1.419   .     A
C930   C445    1.418   1_556 S
C930   C450    1.426   1_556 S
C931   H959    1.077   .     S
C932   H947    1.114   .     S
C933   H949    1.111   .     S
C933   H948    1.111   .     S
C933   C608    1.534   1_565 S
C933   C610    1.527   1_565 S
C934   H950    1.111   .     S
C935   C939    1.412   .     A
C936   C940    1.402   .     A
C937   C938    1.392   .     A
C937   C450    1.420   1_556 S
C937   C440    1.405   1_556 S
C938   C939    1.386   .     A
C938   H955    1.083   .     S
C939   H945    1.081   .     S
C940   H957    1.077   .     S
C941   H944    1.083   .     S
Cu942  O970    1.920   .     S
Cu942  O964    1.968   .     S
Cu942  N963    2.018   .     S
Cu942  O968    1.955   .     S
Cu942  O966    1.940   .     S
Cu942  Cu943   2.685   .     S
Cu943  O969    1.968   .     S
Cu943  O965    1.955   .     S
Cu943  N962    2.018   .     S
Cu943  O971    1.940   .     S
Cu943  O967    1.920   .     S
H946   C608    1.111   1_565 S
H951   C610    1.111   1_565 S
H952   C610    1.110   1_565 S
H954   N855    1.027   1_655 S
H960   C821    1.083   1_655 S
N962   H845    1.029   1_655 S
N962   N855    1.280   1_655 S
O972   C599    1.395   1_565 S
O972   C608    1.419   1_565 S
