data_str_m2_o1_o18_pcu_sym.167
_audit_creation_date              2020-01-03
_audit_creation_method            'Materials Studio'
_symmetry_space_group_name_H-M    'P1'
_symmetry_Int_Tables_number       1
_symmetry_cell_setting            triclinic
loop_
_symmetry_equiv_pos_as_xyz
  x,y,z
_cell_length_a                    28.7343
_cell_length_b                    32.5330
_cell_length_c                    31.2299
_cell_angle_alpha                 85.7037
_cell_angle_beta                  73.7512
_cell_angle_gamma                 90.3131
loop_
_atom_site_label
_atom_site_type_symbol
_atom_site_fract_x
_atom_site_fract_y
_atom_site_fract_z
_atom_site_U_iso_or_equiv
_atom_site_adp_type
_atom_site_occupancy
C1     C     0.00124   0.08772   0.24559   0.00000  Uiso   1.00
C2     C     0.33229   0.24552   0.25417   0.00000  Uiso   1.00
C3     C     0.19906   0.16143   0.04987   0.00000  Uiso   1.00
C4     C     0.15684   0.21526   0.46042   0.00000  Uiso   1.00
C5     C     0.24775   0.15688   0.02683   0.00000  Uiso   1.00
C6     C     0.11085   0.22646   0.48365   0.00000  Uiso   1.00
C7     C     0.29136   0.02027   0.24803   0.00000  Uiso   1.00
C8     C     0.04177   0.31252   0.25320   0.00000  Uiso   1.00
C9     C     0.28833   0.31148   0.26177   0.00000  Uiso   1.00
C10    C     0.04567   0.02088   0.23783   0.00000  Uiso   1.00
C11    C     0.33150   0.29023   0.25870   0.00000  Uiso   1.00
C12    C     0.00222   0.04271   0.24143   0.00000  Uiso   1.00
C13    C     0.18341   0.13748   0.27581   0.00000  Uiso   1.00
C14    C     0.14979   0.19521   0.22333   0.00000  Uiso   1.00
C15    C     0.13373   0.13729   0.27576   0.00000  Uiso   1.00
C16    C     0.19915   0.19682   0.22473   0.00000  Uiso   1.00
C17    C     0.30583   0.16795   0.33619   0.00000  Uiso   1.00
C18    C     0.02758   0.16673   0.16372   0.00000  Uiso   1.00
C19    C     0.29122   0.17075   0.38576   0.00000  Uiso   1.00
C20    C     0.04402   0.17274   0.11394   0.00000  Uiso   1.00
C21    C     0.31319   0.16362   0.45618   0.00000  Uiso   1.00
C22    C     0.03934   0.21519   0.04741   0.00000  Uiso   1.00
C23    C     0.32669   0.17335   0.40944   0.00000  Uiso   1.00
C24    C     0.01656   0.19550   0.08981   0.00000  Uiso   1.00
C25    C     0.24166   0.17021   0.41074   0.00000  Uiso   1.00
C26    C     0.09129   0.16132   0.09092   0.00000  Uiso   1.00
C27    C     0.22982   0.17575   0.45698   0.00000  Uiso   1.00
C28    C     0.11574   0.18250   0.04911   0.00000  Uiso   1.00
C29    C     0.26386   0.16473   0.48021   0.00000  Uiso   1.00
C30    C     0.08883   0.20895   0.02717   0.00000  Uiso   1.00
C31    C     0.18372   0.18864   0.48107   0.00000  Uiso   1.00
C32    C     0.16577   0.17683   0.02726   0.00000  Uiso   1.00
Cu33   Cu    0.04689   0.16667   0.25000   0.00000  Uiso   1.00
Cu34   Cu    0.28645   0.16666   0.25000   0.00000  Uiso   1.00
H35    H     0.27257   0.14679   0.04561   0.00000  Uiso   1.00
H36    H     0.09159   0.24697   0.46607   0.00000  Uiso   1.00
H37    H     0.18895   0.15571   0.08581   0.00000  Uiso   1.00
H38    H     0.17185   0.22840   0.42640   0.00000  Uiso   1.00
N39    N     0.11736   0.16668   0.24999   0.00000  Uiso   1.00
N40    N     0.21597   0.16666   0.25001   0.00000  Uiso   1.00
O41    O     0.03958   0.10655   0.25000   0.00000  Uiso   1.00
O42    O     0.29375   0.22678   0.25000   0.00000  Uiso   1.00
O43    O     0.29372   0.10654   0.25000   0.00000  Uiso   1.00
O44    O     0.03961   0.22679   0.24999   0.00000  Uiso   1.00
O45    O     0.01852   0.16668   0.31491   0.00000  Uiso   1.00
O46    O     0.31481   0.16666   0.18508   0.00000  Uiso   1.00
O47    O     0.27267   0.16667   0.31492   0.00000  Uiso   1.00
O48    O     0.06067   0.16667   0.18508   0.00000  Uiso   1.00
N49    N     0.11003   0.12377   0.10536   0.00000  Uiso   1.00
H50    H     0.09873   0.11499   0.13903   0.00000  Uiso   1.00
C51    C     0.10701   0.08949   0.07912   0.00000  Uiso   1.00
H52    H     0.12680   0.06310   0.08938   0.00000  Uiso   1.00
H53    H     0.12392   0.09777   0.04291   0.00000  Uiso   1.00
H54    H     0.06847   0.07990   0.08459   0.00000  Uiso   1.00
N55    N     0.20448   0.15872   0.39119   0.00000  Uiso   1.00
H56    H     0.19359   0.18121   0.37129   0.00000  Uiso   1.00
C57    C     0.16745   0.12859   0.41646   0.00000  Uiso   1.00
H58    H     0.16102   0.10556   0.39454   0.00000  Uiso   1.00
H59    H     0.13270   0.14395   0.43036   0.00000  Uiso   1.00
H60    H     0.17849   0.11141   0.44401   0.00000  Uiso   1.00
C61    C     0.29769   0.19507   0.10527   0.00000  Uiso   1.00
N62    N     0.25577   0.19423   0.11618   0.00000  Uiso   1.00
C63    C     0.04213   0.18903   0.38737   0.00000  Uiso   1.00
N64    N     0.08088   0.20225   0.37001   0.00000  Uiso   1.00
N65    N     0.01558   0.15482   0.47911   0.00000  Uiso   1.00
H66    H     0.04736   0.17188   0.46659   0.00000  Uiso   1.00
C67    C     0.02470   0.11141   0.48504   0.00000  Uiso   1.00
H68    H     0.04082   0.09905   0.45203   0.00000  Uiso   1.00
H69    H     0.32392   0.09388   0.00266   0.00000  Uiso   1.00
H70    H     0.05055   0.10710   0.00550   0.00000  Uiso   1.00
N71    N     0.01246   0.24098   0.02446   0.00000  Uiso   1.00
H72    H     0.31214   0.22926   0.02525   0.00000  Uiso   1.00
C73    C     0.01111   0.28352   0.03512   0.00000  Uiso   1.00
H74    H     0.32438   0.28590   0.07084   0.00000  Uiso   1.00
H75    H     0.32575   0.30193   0.01383   0.00000  Uiso   1.00
H76    H     0.04850   0.29656   0.02855   0.00000  Uiso   1.00
C77    C     0.25129   0.03830   0.23426   0.00000  Uiso   1.00
N78    N     0.21943   0.05220   0.22265   0.00000  Uiso   1.00
C79    C     0.07998   0.29486   0.27006   0.00000  Uiso   1.00
N80    N     0.10997   0.28082   0.28434   0.00000  Uiso   1.00
N81    N     0.24211   0.29086   0.28080   0.00000  Uiso   1.00
H82    H     0.21277   0.30561   0.27464   0.00000  Uiso   1.00
C83    C     0.23203   0.27671   0.32767   0.00000  Uiso   1.00
H84    H     0.26045   0.25584   0.33350   0.00000  Uiso   1.00
H85    H     0.22985   0.30349   0.34819   0.00000  Uiso   1.00
H86    H     0.19678   0.25933   0.33866   0.00000  Uiso   1.00
N87    N     0.09278   0.03901   0.21528   0.00000  Uiso   1.00
H88    H     0.09397   0.06966   0.20470   0.00000  Uiso   1.00
C89    C     0.12151   0.01709   0.17856   0.00000  Uiso   1.00
H90    H     0.10090   0.01285   0.15386   0.00000  Uiso   1.00
H91    H     0.13189   0.32000   0.19053   0.00000  Uiso   1.00
H92    H     0.15558   0.03496   0.16154   0.00000  Uiso   1.00
C93    C     0.19973   0.10595   0.30270   0.00000  Uiso   1.00
N94    N     0.21283   0.08030   0.32399   0.00000  Uiso   1.00
C95    C     0.13444   0.22098   0.19043   0.00000  Uiso   1.00
N96    N     0.12230   0.24153   0.16382   0.00000  Uiso   1.00
N97    N     0.10228   0.10348   0.29772   0.00000  Uiso   1.00
H98    H     0.11287   0.07583   0.28439   0.00000  Uiso   1.00
C99    C     0.08723   0.09999   0.34615   0.00000  Uiso   1.00
H100   H     0.10053   0.07096   0.35911   0.00000  Uiso   1.00
H101   H     0.04705   0.09916   0.35821   0.00000  Uiso   1.00
H102   H     0.10153   0.12607   0.35987   0.00000  Uiso   1.00
N103   N     0.23204   0.22774   0.19709   0.00000  Uiso   1.00
H104   H     0.26832   0.22281   0.18699   0.00000  Uiso   1.00
C105   C     0.21890   0.27030   0.19175   0.00000  Uiso   1.00
H106   H     0.24917   0.29097   0.19307   0.00000  Uiso   1.00
H107   H     0.18619   0.27740   0.21831   0.00000  Uiso   1.00
H108   H     0.21287   0.27670   0.15835   0.00000  Uiso   1.00
C109   C     0.33457   0.08772   0.24559   0.00000  Uiso   1.00
C110   C     0.66562   0.24552   0.25417   0.00000  Uiso   1.00
C111   C     0.53239   0.16143   0.04987   0.00000  Uiso   1.00
C112   C     0.49018   0.21526   0.46042   0.00000  Uiso   1.00
C113   C     0.58109   0.15688   0.02683   0.00000  Uiso   1.00
C114   C     0.44419   0.22646   0.48365   0.00000  Uiso   1.00
C115   C     0.62470   0.02027   0.24803   0.00000  Uiso   1.00
C116   C     0.37510   0.31252   0.25320   0.00000  Uiso   1.00
C117   C     0.62166   0.31148   0.26177   0.00000  Uiso   1.00
C118   C     0.37900   0.02088   0.23783   0.00000  Uiso   1.00
C119   C     0.66483   0.29023   0.25870   0.00000  Uiso   1.00
C120   C     0.33555   0.04271   0.24143   0.00000  Uiso   1.00
C121   C     0.51674   0.13748   0.27581   0.00000  Uiso   1.00
C122   C     0.48312   0.19521   0.22333   0.00000  Uiso   1.00
C123   C     0.46706   0.13729   0.27576   0.00000  Uiso   1.00
C124   C     0.53248   0.19682   0.22473   0.00000  Uiso   1.00
C125   C     0.63916   0.16795   0.33619   0.00000  Uiso   1.00
C126   C     0.36092   0.16673   0.16372   0.00000  Uiso   1.00
C127   C     0.62455   0.17075   0.38576   0.00000  Uiso   1.00
C128   C     0.37736   0.17274   0.11394   0.00000  Uiso   1.00
C129   C     0.64653   0.16362   0.45618   0.00000  Uiso   1.00
C130   C     0.37267   0.21519   0.04741   0.00000  Uiso   1.00
C131   C     0.66002   0.17335   0.40944   0.00000  Uiso   1.00
C132   C     0.34990   0.19550   0.08981   0.00000  Uiso   1.00
C133   C     0.57500   0.17021   0.41074   0.00000  Uiso   1.00
C134   C     0.42462   0.16132   0.09092   0.00000  Uiso   1.00
C135   C     0.56315   0.17575   0.45698   0.00000  Uiso   1.00
C136   C     0.44908   0.18250   0.04911   0.00000  Uiso   1.00
C137   C     0.59720   0.16473   0.48021   0.00000  Uiso   1.00
C138   C     0.42216   0.20895   0.02717   0.00000  Uiso   1.00
C139   C     0.51705   0.18864   0.48107   0.00000  Uiso   1.00
C140   C     0.49910   0.17683   0.02726   0.00000  Uiso   1.00
Cu141  Cu    0.38022   0.16667   0.25000   0.00000  Uiso   1.00
Cu142  Cu    0.61978   0.16666   0.25000   0.00000  Uiso   1.00
H143   H     0.60590   0.14679   0.04561   0.00000  Uiso   1.00
H144   H     0.42492   0.24697   0.46607   0.00000  Uiso   1.00
H145   H     0.52228   0.15571   0.08581   0.00000  Uiso   1.00
H146   H     0.50518   0.22840   0.42640   0.00000  Uiso   1.00
N147   N     0.45069   0.16668   0.24999   0.00000  Uiso   1.00
N148   N     0.54931   0.16666   0.25001   0.00000  Uiso   1.00
O149   O     0.37291   0.10655   0.25000   0.00000  Uiso   1.00
O150   O     0.62709   0.22678   0.25000   0.00000  Uiso   1.00
O151   O     0.62706   0.10654   0.25000   0.00000  Uiso   1.00
O152   O     0.37294   0.22679   0.24999   0.00000  Uiso   1.00
O153   O     0.35186   0.16668   0.31491   0.00000  Uiso   1.00
O154   O     0.64814   0.16666   0.18508   0.00000  Uiso   1.00
O155   O     0.60600   0.16667   0.31492   0.00000  Uiso   1.00
O156   O     0.39400   0.16667   0.18508   0.00000  Uiso   1.00
N157   N     0.44336   0.12377   0.10536   0.00000  Uiso   1.00
H158   H     0.43206   0.11499   0.13903   0.00000  Uiso   1.00
C159   C     0.44034   0.08949   0.07912   0.00000  Uiso   1.00
H160   H     0.46014   0.06310   0.08938   0.00000  Uiso   1.00
H161   H     0.45725   0.09777   0.04291   0.00000  Uiso   1.00
H162   H     0.40181   0.07990   0.08459   0.00000  Uiso   1.00
N163   N     0.53782   0.15872   0.39119   0.00000  Uiso   1.00
H164   H     0.52693   0.18121   0.37129   0.00000  Uiso   1.00
C165   C     0.50078   0.12859   0.41646   0.00000  Uiso   1.00
H166   H     0.49435   0.10556   0.39454   0.00000  Uiso   1.00
H167   H     0.46604   0.14395   0.43036   0.00000  Uiso   1.00
H168   H     0.51182   0.11141   0.44401   0.00000  Uiso   1.00
C169   C     0.63102   0.19507   0.10527   0.00000  Uiso   1.00
N170   N     0.58911   0.19423   0.11618   0.00000  Uiso   1.00
C171   C     0.37546   0.18903   0.38737   0.00000  Uiso   1.00
N172   N     0.41421   0.20225   0.37001   0.00000  Uiso   1.00
N173   N     0.34891   0.15482   0.47911   0.00000  Uiso   1.00
H174   H     0.38069   0.17188   0.46659   0.00000  Uiso   1.00
C175   C     0.35804   0.11141   0.48504   0.00000  Uiso   1.00
H176   H     0.37415   0.09905   0.45203   0.00000  Uiso   1.00
H177   H     0.65726   0.09388   0.00266   0.00000  Uiso   1.00
H178   H     0.38388   0.10710   0.00550   0.00000  Uiso   1.00
N179   N     0.34579   0.24098   0.02446   0.00000  Uiso   1.00
H180   H     0.64547   0.22926   0.02525   0.00000  Uiso   1.00
C181   C     0.34444   0.28352   0.03512   0.00000  Uiso   1.00
H182   H     0.65771   0.28590   0.07084   0.00000  Uiso   1.00
H183   H     0.65909   0.30193   0.01383   0.00000  Uiso   1.00
H184   H     0.38184   0.29656   0.02855   0.00000  Uiso   1.00
C185   C     0.58463   0.03830   0.23426   0.00000  Uiso   1.00
N186   N     0.55276   0.05220   0.22265   0.00000  Uiso   1.00
C187   C     0.41332   0.29486   0.27006   0.00000  Uiso   1.00
N188   N     0.44330   0.28082   0.28434   0.00000  Uiso   1.00
N189   N     0.57544   0.29086   0.28080   0.00000  Uiso   1.00
H190   H     0.54610   0.30561   0.27464   0.00000  Uiso   1.00
C191   C     0.56536   0.27671   0.32767   0.00000  Uiso   1.00
H192   H     0.59378   0.25584   0.33350   0.00000  Uiso   1.00
H193   H     0.56318   0.30349   0.34819   0.00000  Uiso   1.00
H194   H     0.53011   0.25933   0.33866   0.00000  Uiso   1.00
N195   N     0.42611   0.03901   0.21528   0.00000  Uiso   1.00
H196   H     0.42730   0.06966   0.20470   0.00000  Uiso   1.00
C197   C     0.45484   0.01709   0.17856   0.00000  Uiso   1.00
H198   H     0.43424   0.01285   0.15386   0.00000  Uiso   1.00
H199   H     0.46522   0.32000   0.19053   0.00000  Uiso   1.00
H200   H     0.48891   0.03496   0.16154   0.00000  Uiso   1.00
C201   C     0.53306   0.10595   0.30270   0.00000  Uiso   1.00
N202   N     0.54616   0.08030   0.32399   0.00000  Uiso   1.00
C203   C     0.46778   0.22098   0.19043   0.00000  Uiso   1.00
N204   N     0.45563   0.24153   0.16382   0.00000  Uiso   1.00
N205   N     0.43561   0.10348   0.29772   0.00000  Uiso   1.00
H206   H     0.44621   0.07583   0.28439   0.00000  Uiso   1.00
C207   C     0.42056   0.09999   0.34615   0.00000  Uiso   1.00
H208   H     0.43387   0.07096   0.35911   0.00000  Uiso   1.00
H209   H     0.38038   0.09916   0.35821   0.00000  Uiso   1.00
H210   H     0.43486   0.12607   0.35987   0.00000  Uiso   1.00
N211   N     0.56537   0.22774   0.19709   0.00000  Uiso   1.00
H212   H     0.60165   0.22281   0.18699   0.00000  Uiso   1.00
C213   C     0.55223   0.27030   0.19175   0.00000  Uiso   1.00
H214   H     0.58250   0.29097   0.19307   0.00000  Uiso   1.00
H215   H     0.51953   0.27740   0.21831   0.00000  Uiso   1.00
H216   H     0.54620   0.27670   0.15835   0.00000  Uiso   1.00
C217   C     0.66791   0.08772   0.24559   0.00000  Uiso   1.00
C218   C     0.99896   0.24552   0.25417   0.00000  Uiso   1.00
C219   C     0.86573   0.16143   0.04987   0.00000  Uiso   1.00
C220   C     0.82351   0.21526   0.46042   0.00000  Uiso   1.00
C221   C     0.91442   0.15688   0.02683   0.00000  Uiso   1.00
C222   C     0.77752   0.22646   0.48365   0.00000  Uiso   1.00
C223   C     0.95803   0.02027   0.24803   0.00000  Uiso   1.00
C224   C     0.70844   0.31252   0.25320   0.00000  Uiso   1.00
C225   C     0.95500   0.31148   0.26177   0.00000  Uiso   1.00
C226   C     0.71233   0.02088   0.23783   0.00000  Uiso   1.00
C227   C     0.99816   0.29023   0.25870   0.00000  Uiso   1.00
C228   C     0.66888   0.04271   0.24143   0.00000  Uiso   1.00
C229   C     0.85007   0.13748   0.27581   0.00000  Uiso   1.00
C230   C     0.81645   0.19521   0.22333   0.00000  Uiso   1.00
C231   C     0.80040   0.13729   0.27576   0.00000  Uiso   1.00
C232   C     0.86582   0.19682   0.22473   0.00000  Uiso   1.00
C233   C     0.97249   0.16795   0.33619   0.00000  Uiso   1.00
C234   C     0.69425   0.16673   0.16372   0.00000  Uiso   1.00
C235   C     0.95789   0.17075   0.38576   0.00000  Uiso   1.00
C236   C     0.71069   0.17274   0.11394   0.00000  Uiso   1.00
C237   C     0.97986   0.16362   0.45618   0.00000  Uiso   1.00
C238   C     0.70601   0.21519   0.04741   0.00000  Uiso   1.00
C239   C     0.99336   0.17335   0.40944   0.00000  Uiso   1.00
C240   C     0.68323   0.19550   0.08981   0.00000  Uiso   1.00
C241   C     0.90833   0.17021   0.41074   0.00000  Uiso   1.00
C242   C     0.75796   0.16132   0.09092   0.00000  Uiso   1.00
C243   C     0.89648   0.17575   0.45698   0.00000  Uiso   1.00
C244   C     0.78241   0.18250   0.04911   0.00000  Uiso   1.00
C245   C     0.93053   0.16473   0.48021   0.00000  Uiso   1.00
C246   C     0.75549   0.20895   0.02717   0.00000  Uiso   1.00
C247   C     0.85039   0.18864   0.48107   0.00000  Uiso   1.00
C248   C     0.83243   0.17683   0.02726   0.00000  Uiso   1.00
Cu249  Cu    0.71355   0.16667   0.25000   0.00000  Uiso   1.00
Cu250  Cu    0.95311   0.16666   0.25000   0.00000  Uiso   1.00
H251   H     0.93923   0.14679   0.04561   0.00000  Uiso   1.00
H252   H     0.75826   0.24697   0.46607   0.00000  Uiso   1.00
H253   H     0.85562   0.15571   0.08581   0.00000  Uiso   1.00
H254   H     0.83851   0.22840   0.42640   0.00000  Uiso   1.00
N255   N     0.78403   0.16668   0.24999   0.00000  Uiso   1.00
N256   N     0.88264   0.16666   0.25001   0.00000  Uiso   1.00
O257   O     0.70625   0.10655   0.25000   0.00000  Uiso   1.00
O258   O     0.96042   0.22678   0.25000   0.00000  Uiso   1.00
O259   O     0.96039   0.10654   0.25000   0.00000  Uiso   1.00
O260   O     0.70628   0.22679   0.24999   0.00000  Uiso   1.00
O261   O     0.68519   0.16668   0.31491   0.00000  Uiso   1.00
O262   O     0.98148   0.16666   0.18508   0.00000  Uiso   1.00
O263   O     0.93933   0.16667   0.31492   0.00000  Uiso   1.00
O264   O     0.72733   0.16667   0.18508   0.00000  Uiso   1.00
N265   N     0.77670   0.12377   0.10536   0.00000  Uiso   1.00
H266   H     0.76540   0.11499   0.13903   0.00000  Uiso   1.00
C267   C     0.77368   0.08949   0.07912   0.00000  Uiso   1.00
H268   H     0.79347   0.06310   0.08938   0.00000  Uiso   1.00
H269   H     0.79058   0.09777   0.04291   0.00000  Uiso   1.00
H270   H     0.73514   0.07990   0.08459   0.00000  Uiso   1.00
N271   N     0.87115   0.15872   0.39119   0.00000  Uiso   1.00
H272   H     0.86026   0.18121   0.37129   0.00000  Uiso   1.00
C273   C     0.83412   0.12859   0.41646   0.00000  Uiso   1.00
H274   H     0.82768   0.10556   0.39454   0.00000  Uiso   1.00
H275   H     0.79937   0.14395   0.43036   0.00000  Uiso   1.00
H276   H     0.84515   0.11141   0.44401   0.00000  Uiso   1.00
C277   C     0.96436   0.19507   0.10527   0.00000  Uiso   1.00
N278   N     0.92244   0.19423   0.11618   0.00000  Uiso   1.00
C279   C     0.70880   0.18903   0.38737   0.00000  Uiso   1.00
N280   N     0.74754   0.20225   0.37001   0.00000  Uiso   1.00
N281   N     0.68225   0.15482   0.47911   0.00000  Uiso   1.00
H282   H     0.71403   0.17188   0.46659   0.00000  Uiso   1.00
C283   C     0.69137   0.11141   0.48504   0.00000  Uiso   1.00
H284   H     0.70749   0.09905   0.45203   0.00000  Uiso   1.00
H285   H     0.99059   0.09388   0.00266   0.00000  Uiso   1.00
H286   H     0.71721   0.10710   0.00550   0.00000  Uiso   1.00
N287   N     0.67912   0.24098   0.02446   0.00000  Uiso   1.00
H288   H     0.97881   0.22926   0.02525   0.00000  Uiso   1.00
C289   C     0.67778   0.28352   0.03512   0.00000  Uiso   1.00
H290   H     0.99105   0.28590   0.07084   0.00000  Uiso   1.00
H291   H     0.99242   0.30193   0.01383   0.00000  Uiso   1.00
H292   H     0.71517   0.29656   0.02855   0.00000  Uiso   1.00
C293   C     0.91796   0.03830   0.23426   0.00000  Uiso   1.00
N294   N     0.88609   0.05220   0.22265   0.00000  Uiso   1.00
C295   C     0.74665   0.29486   0.27006   0.00000  Uiso   1.00
N296   N     0.77663   0.28082   0.28434   0.00000  Uiso   1.00
N297   N     0.90878   0.29086   0.28080   0.00000  Uiso   1.00
H298   H     0.87944   0.30561   0.27464   0.00000  Uiso   1.00
C299   C     0.89869   0.27671   0.32767   0.00000  Uiso   1.00
H300   H     0.92711   0.25584   0.33350   0.00000  Uiso   1.00
H301   H     0.89652   0.30349   0.34819   0.00000  Uiso   1.00
H302   H     0.86344   0.25933   0.33866   0.00000  Uiso   1.00
N303   N     0.75944   0.03901   0.21528   0.00000  Uiso   1.00
H304   H     0.76064   0.06966   0.20470   0.00000  Uiso   1.00
C305   C     0.78818   0.01709   0.17856   0.00000  Uiso   1.00
H306   H     0.76757   0.01285   0.15386   0.00000  Uiso   1.00
H307   H     0.79856   0.32000   0.19053   0.00000  Uiso   1.00
H308   H     0.82225   0.03496   0.16154   0.00000  Uiso   1.00
C309   C     0.86640   0.10595   0.30270   0.00000  Uiso   1.00
N310   N     0.87949   0.08030   0.32399   0.00000  Uiso   1.00
C311   C     0.80111   0.22098   0.19043   0.00000  Uiso   1.00
N312   N     0.78896   0.24153   0.16382   0.00000  Uiso   1.00
N313   N     0.76894   0.10348   0.29772   0.00000  Uiso   1.00
H314   H     0.77954   0.07583   0.28439   0.00000  Uiso   1.00
C315   C     0.75389   0.09999   0.34615   0.00000  Uiso   1.00
H316   H     0.76720   0.07096   0.35911   0.00000  Uiso   1.00
H317   H     0.71372   0.09916   0.35821   0.00000  Uiso   1.00
H318   H     0.76820   0.12607   0.35987   0.00000  Uiso   1.00
N319   N     0.89870   0.22774   0.19709   0.00000  Uiso   1.00
H320   H     0.93498   0.22281   0.18699   0.00000  Uiso   1.00
C321   C     0.88557   0.27030   0.19175   0.00000  Uiso   1.00
H322   H     0.91584   0.29097   0.19307   0.00000  Uiso   1.00
H323   H     0.85286   0.27740   0.21831   0.00000  Uiso   1.00
H324   H     0.87954   0.27670   0.15835   0.00000  Uiso   1.00
C325   C     0.00124   0.42105   0.24559   0.00000  Uiso   1.00
C326   C     0.33229   0.57885   0.25417   0.00000  Uiso   1.00
C327   C     0.19906   0.49477   0.04987   0.00000  Uiso   1.00
C328   C     0.15684   0.54859   0.46042   0.00000  Uiso   1.00
C329   C     0.24775   0.49021   0.02683   0.00000  Uiso   1.00
C330   C     0.11085   0.55979   0.48365   0.00000  Uiso   1.00
C331   C     0.29136   0.35360   0.24803   0.00000  Uiso   1.00
C332   C     0.04177   0.64585   0.25320   0.00000  Uiso   1.00
C333   C     0.28833   0.64481   0.26177   0.00000  Uiso   1.00
C334   C     0.04567   0.35421   0.23783   0.00000  Uiso   1.00
C335   C     0.33150   0.62357   0.25870   0.00000  Uiso   1.00
C336   C     0.00222   0.37605   0.24143   0.00000  Uiso   1.00
C337   C     0.18341   0.47082   0.27581   0.00000  Uiso   1.00
C338   C     0.14979   0.52854   0.22333   0.00000  Uiso   1.00
C339   C     0.13373   0.47062   0.27576   0.00000  Uiso   1.00
C340   C     0.19915   0.53015   0.22473   0.00000  Uiso   1.00
C341   C     0.30583   0.50128   0.33619   0.00000  Uiso   1.00
C342   C     0.02758   0.50007   0.16372   0.00000  Uiso   1.00
C343   C     0.29122   0.50409   0.38576   0.00000  Uiso   1.00
C344   C     0.04402   0.50607   0.11394   0.00000  Uiso   1.00
C345   C     0.31319   0.49695   0.45618   0.00000  Uiso   1.00
C346   C     0.03934   0.54852   0.04741   0.00000  Uiso   1.00
C347   C     0.32669   0.50668   0.40944   0.00000  Uiso   1.00
C348   C     0.01656   0.52883   0.08981   0.00000  Uiso   1.00
C349   C     0.24166   0.50354   0.41074   0.00000  Uiso   1.00
C350   C     0.09129   0.49466   0.09092   0.00000  Uiso   1.00
C351   C     0.22982   0.50908   0.45698   0.00000  Uiso   1.00
C352   C     0.11574   0.51583   0.04911   0.00000  Uiso   1.00
C353   C     0.26386   0.49806   0.48021   0.00000  Uiso   1.00
C354   C     0.08883   0.54228   0.02717   0.00000  Uiso   1.00
C355   C     0.18372   0.52197   0.48107   0.00000  Uiso   1.00
C356   C     0.16577   0.51016   0.02726   0.00000  Uiso   1.00
Cu357  Cu    0.04689   0.50001   0.25000   0.00000  Uiso   1.00
Cu358  Cu    0.28645   0.49999   0.25000   0.00000  Uiso   1.00
H359   H     0.27257   0.48012   0.04561   0.00000  Uiso   1.00
H360   H     0.09159   0.58031   0.46607   0.00000  Uiso   1.00
H361   H     0.18895   0.48905   0.08581   0.00000  Uiso   1.00
H362   H     0.17185   0.56173   0.42640   0.00000  Uiso   1.00
N363   N     0.11736   0.50001   0.24999   0.00000  Uiso   1.00
N364   N     0.21597   0.49999   0.25001   0.00000  Uiso   1.00
O365   O     0.03958   0.43989   0.25000   0.00000  Uiso   1.00
O366   O     0.29375   0.56011   0.25000   0.00000  Uiso   1.00
O367   O     0.29372   0.43988   0.25000   0.00000  Uiso   1.00
O368   O     0.03961   0.56012   0.24999   0.00000  Uiso   1.00
O369   O     0.01852   0.50001   0.31491   0.00000  Uiso   1.00
O370   O     0.31481   0.49999   0.18508   0.00000  Uiso   1.00
O371   O     0.27267   0.50000   0.31492   0.00000  Uiso   1.00
O372   O     0.06067   0.50000   0.18508   0.00000  Uiso   1.00
N373   N     0.11003   0.45710   0.10536   0.00000  Uiso   1.00
H374   H     0.09873   0.44832   0.13903   0.00000  Uiso   1.00
C375   C     0.10701   0.42283   0.07912   0.00000  Uiso   1.00
H376   H     0.12680   0.39643   0.08938   0.00000  Uiso   1.00
H377   H     0.12392   0.43110   0.04291   0.00000  Uiso   1.00
H378   H     0.06847   0.41323   0.08459   0.00000  Uiso   1.00
N379   N     0.20448   0.49205   0.39119   0.00000  Uiso   1.00
H380   H     0.19359   0.51454   0.37129   0.00000  Uiso   1.00
C381   C     0.16745   0.46192   0.41646   0.00000  Uiso   1.00
H382   H     0.16102   0.43889   0.39454   0.00000  Uiso   1.00
H383   H     0.13270   0.47728   0.43036   0.00000  Uiso   1.00
H384   H     0.17849   0.44474   0.44401   0.00000  Uiso   1.00
C385   C     0.29769   0.52840   0.10527   0.00000  Uiso   1.00
N386   N     0.25577   0.52756   0.11618   0.00000  Uiso   1.00
C387   C     0.04213   0.52236   0.38737   0.00000  Uiso   1.00
N388   N     0.08088   0.53558   0.37001   0.00000  Uiso   1.00
N389   N     0.01558   0.48815   0.47911   0.00000  Uiso   1.00
H390   H     0.04736   0.50521   0.46659   0.00000  Uiso   1.00
C391   C     0.02470   0.44474   0.48504   0.00000  Uiso   1.00
H392   H     0.04082   0.43239   0.45203   0.00000  Uiso   1.00
H393   H     0.32392   0.42721   0.00266   0.00000  Uiso   1.00
H394   H     0.05055   0.44044   0.00550   0.00000  Uiso   1.00
N395   N     0.01246   0.57431   0.02446   0.00000  Uiso   1.00
H396   H     0.31214   0.56259   0.02525   0.00000  Uiso   1.00
C397   C     0.01111   0.61686   0.03512   0.00000  Uiso   1.00
H398   H     0.32438   0.61923   0.07084   0.00000  Uiso   1.00
H399   H     0.32575   0.63526   0.01383   0.00000  Uiso   1.00
H400   H     0.04850   0.62989   0.02855   0.00000  Uiso   1.00
C401   C     0.25129   0.37164   0.23426   0.00000  Uiso   1.00
N402   N     0.21943   0.38553   0.22265   0.00000  Uiso   1.00
C403   C     0.07998   0.62819   0.27006   0.00000  Uiso   1.00
N404   N     0.10997   0.61415   0.28434   0.00000  Uiso   1.00
N405   N     0.24211   0.62420   0.28080   0.00000  Uiso   1.00
H406   H     0.21277   0.63894   0.27464   0.00000  Uiso   1.00
C407   C     0.23203   0.61005   0.32767   0.00000  Uiso   1.00
H408   H     0.26045   0.58917   0.33350   0.00000  Uiso   1.00
H409   H     0.22985   0.63682   0.34819   0.00000  Uiso   1.00
H410   H     0.19678   0.59267   0.33866   0.00000  Uiso   1.00
N411   N     0.09278   0.37234   0.21528   0.00000  Uiso   1.00
H412   H     0.09397   0.40299   0.20470   0.00000  Uiso   1.00
C413   C     0.12151   0.35042   0.17856   0.00000  Uiso   1.00
H414   H     0.10090   0.34619   0.15386   0.00000  Uiso   1.00
H415   H     0.13189   0.65334   0.19053   0.00000  Uiso   1.00
H416   H     0.15558   0.36829   0.16154   0.00000  Uiso   1.00
C417   C     0.19973   0.43929   0.30270   0.00000  Uiso   1.00
N418   N     0.21283   0.41363   0.32399   0.00000  Uiso   1.00
C419   C     0.13444   0.55432   0.19043   0.00000  Uiso   1.00
N420   N     0.12230   0.57486   0.16382   0.00000  Uiso   1.00
N421   N     0.10228   0.43681   0.29772   0.00000  Uiso   1.00
H422   H     0.11287   0.40917   0.28439   0.00000  Uiso   1.00
C423   C     0.08723   0.43332   0.34615   0.00000  Uiso   1.00
H424   H     0.10053   0.40429   0.35911   0.00000  Uiso   1.00
H425   H     0.04705   0.43249   0.35821   0.00000  Uiso   1.00
H426   H     0.10153   0.45941   0.35987   0.00000  Uiso   1.00
N427   N     0.23204   0.56108   0.19709   0.00000  Uiso   1.00
H428   H     0.26832   0.55614   0.18699   0.00000  Uiso   1.00
C429   C     0.21890   0.60364   0.19175   0.00000  Uiso   1.00
H430   H     0.24917   0.62430   0.19307   0.00000  Uiso   1.00
H431   H     0.18619   0.61073   0.21831   0.00000  Uiso   1.00
H432   H     0.21287   0.61004   0.15835   0.00000  Uiso   1.00
C433   C     0.33457   0.42105   0.24559   0.00000  Uiso   1.00
C434   C     0.66562   0.57885   0.25417   0.00000  Uiso   1.00
C435   C     0.53239   0.49477   0.04987   0.00000  Uiso   1.00
C436   C     0.49018   0.54859   0.46042   0.00000  Uiso   1.00
C437   C     0.58109   0.49021   0.02683   0.00000  Uiso   1.00
C438   C     0.44419   0.55979   0.48365   0.00000  Uiso   1.00
C439   C     0.62470   0.35360   0.24803   0.00000  Uiso   1.00
C440   C     0.37510   0.64585   0.25320   0.00000  Uiso   1.00
C441   C     0.62166   0.64481   0.26177   0.00000  Uiso   1.00
C442   C     0.37900   0.35421   0.23783   0.00000  Uiso   1.00
C443   C     0.66483   0.62357   0.25870   0.00000  Uiso   1.00
C444   C     0.33555   0.37605   0.24143   0.00000  Uiso   1.00
C445   C     0.51674   0.47082   0.27581   0.00000  Uiso   1.00
C446   C     0.48312   0.52854   0.22333   0.00000  Uiso   1.00
C447   C     0.46706   0.47062   0.27576   0.00000  Uiso   1.00
C448   C     0.53248   0.53015   0.22473   0.00000  Uiso   1.00
C449   C     0.63916   0.50128   0.33619   0.00000  Uiso   1.00
C450   C     0.36092   0.50007   0.16372   0.00000  Uiso   1.00
C451   C     0.62455   0.50409   0.38576   0.00000  Uiso   1.00
C452   C     0.37736   0.50607   0.11394   0.00000  Uiso   1.00
C453   C     0.64653   0.49695   0.45618   0.00000  Uiso   1.00
C454   C     0.37267   0.54852   0.04741   0.00000  Uiso   1.00
C455   C     0.66002   0.50668   0.40944   0.00000  Uiso   1.00
C456   C     0.34990   0.52883   0.08981   0.00000  Uiso   1.00
C457   C     0.57500   0.50354   0.41074   0.00000  Uiso   1.00
C458   C     0.42462   0.49466   0.09092   0.00000  Uiso   1.00
C459   C     0.56315   0.50908   0.45698   0.00000  Uiso   1.00
C460   C     0.44908   0.51583   0.04911   0.00000  Uiso   1.00
C461   C     0.59720   0.49806   0.48021   0.00000  Uiso   1.00
C462   C     0.42216   0.54228   0.02717   0.00000  Uiso   1.00
C463   C     0.51705   0.52197   0.48107   0.00000  Uiso   1.00
C464   C     0.49910   0.51016   0.02726   0.00000  Uiso   1.00
Cu465  Cu    0.38022   0.50001   0.25000   0.00000  Uiso   1.00
Cu466  Cu    0.61978   0.49999   0.25000   0.00000  Uiso   1.00
H467   H     0.60590   0.48012   0.04561   0.00000  Uiso   1.00
H468   H     0.42492   0.58031   0.46607   0.00000  Uiso   1.00
H469   H     0.52228   0.48905   0.08581   0.00000  Uiso   1.00
H470   H     0.50518   0.56173   0.42640   0.00000  Uiso   1.00
N471   N     0.45069   0.50001   0.24999   0.00000  Uiso   1.00
N472   N     0.54931   0.49999   0.25001   0.00000  Uiso   1.00
O473   O     0.37291   0.43989   0.25000   0.00000  Uiso   1.00
O474   O     0.62709   0.56011   0.25000   0.00000  Uiso   1.00
O475   O     0.62706   0.43988   0.25000   0.00000  Uiso   1.00
O476   O     0.37294   0.56012   0.24999   0.00000  Uiso   1.00
O477   O     0.35186   0.50001   0.31491   0.00000  Uiso   1.00
O478   O     0.64814   0.49999   0.18508   0.00000  Uiso   1.00
O479   O     0.60600   0.50000   0.31492   0.00000  Uiso   1.00
O480   O     0.39400   0.50000   0.18508   0.00000  Uiso   1.00
N481   N     0.44336   0.45710   0.10536   0.00000  Uiso   1.00
H482   H     0.43206   0.44832   0.13903   0.00000  Uiso   1.00
C483   C     0.44034   0.42283   0.07912   0.00000  Uiso   1.00
H484   H     0.46014   0.39643   0.08938   0.00000  Uiso   1.00
H485   H     0.45725   0.43110   0.04291   0.00000  Uiso   1.00
H486   H     0.40181   0.41323   0.08459   0.00000  Uiso   1.00
N487   N     0.53782   0.49205   0.39119   0.00000  Uiso   1.00
H488   H     0.52693   0.51454   0.37129   0.00000  Uiso   1.00
C489   C     0.50078   0.46192   0.41646   0.00000  Uiso   1.00
H490   H     0.49435   0.43889   0.39454   0.00000  Uiso   1.00
H491   H     0.46604   0.47728   0.43036   0.00000  Uiso   1.00
H492   H     0.51182   0.44474   0.44401   0.00000  Uiso   1.00
C493   C     0.63102   0.52840   0.10527   0.00000  Uiso   1.00
N494   N     0.58911   0.52756   0.11618   0.00000  Uiso   1.00
C495   C     0.37546   0.52236   0.38737   0.00000  Uiso   1.00
N496   N     0.41421   0.53558   0.37001   0.00000  Uiso   1.00
N497   N     0.34891   0.48815   0.47911   0.00000  Uiso   1.00
H498   H     0.38069   0.50521   0.46659   0.00000  Uiso   1.00
C499   C     0.35804   0.44474   0.48504   0.00000  Uiso   1.00
H500   H     0.37415   0.43239   0.45203   0.00000  Uiso   1.00
H501   H     0.65726   0.42721   0.00266   0.00000  Uiso   1.00
H502   H     0.38388   0.44044   0.00550   0.00000  Uiso   1.00
N503   N     0.34579   0.57431   0.02446   0.00000  Uiso   1.00
H504   H     0.64547   0.56259   0.02525   0.00000  Uiso   1.00
C505   C     0.34444   0.61686   0.03512   0.00000  Uiso   1.00
H506   H     0.65771   0.61923   0.07084   0.00000  Uiso   1.00
H507   H     0.65909   0.63526   0.01383   0.00000  Uiso   1.00
H508   H     0.38184   0.62989   0.02855   0.00000  Uiso   1.00
C509   C     0.58463   0.37164   0.23426   0.00000  Uiso   1.00
N510   N     0.55276   0.38553   0.22265   0.00000  Uiso   1.00
C511   C     0.41332   0.62819   0.27006   0.00000  Uiso   1.00
N512   N     0.44330   0.61415   0.28434   0.00000  Uiso   1.00
N513   N     0.57544   0.62420   0.28080   0.00000  Uiso   1.00
H514   H     0.54610   0.63894   0.27464   0.00000  Uiso   1.00
C515   C     0.56536   0.61005   0.32767   0.00000  Uiso   1.00
H516   H     0.59378   0.58917   0.33350   0.00000  Uiso   1.00
H517   H     0.56318   0.63682   0.34819   0.00000  Uiso   1.00
H518   H     0.53011   0.59267   0.33866   0.00000  Uiso   1.00
N519   N     0.42611   0.37234   0.21528   0.00000  Uiso   1.00
H520   H     0.42730   0.40299   0.20470   0.00000  Uiso   1.00
C521   C     0.45484   0.35042   0.17856   0.00000  Uiso   1.00
H522   H     0.43424   0.34619   0.15386   0.00000  Uiso   1.00
H523   H     0.46522   0.65334   0.19053   0.00000  Uiso   1.00
H524   H     0.48891   0.36829   0.16154   0.00000  Uiso   1.00
C525   C     0.53306   0.43929   0.30270   0.00000  Uiso   1.00
N526   N     0.54616   0.41363   0.32399   0.00000  Uiso   1.00
C527   C     0.46778   0.55432   0.19043   0.00000  Uiso   1.00
N528   N     0.45563   0.57486   0.16382   0.00000  Uiso   1.00
N529   N     0.43561   0.43681   0.29772   0.00000  Uiso   1.00
H530   H     0.44621   0.40917   0.28439   0.00000  Uiso   1.00
C531   C     0.42056   0.43332   0.34615   0.00000  Uiso   1.00
H532   H     0.43387   0.40429   0.35911   0.00000  Uiso   1.00
H533   H     0.38038   0.43249   0.35821   0.00000  Uiso   1.00
H534   H     0.43486   0.45941   0.35987   0.00000  Uiso   1.00
N535   N     0.56537   0.56108   0.19709   0.00000  Uiso   1.00
H536   H     0.60165   0.55614   0.18699   0.00000  Uiso   1.00
C537   C     0.55223   0.60364   0.19175   0.00000  Uiso   1.00
H538   H     0.58250   0.62430   0.19307   0.00000  Uiso   1.00
H539   H     0.51953   0.61073   0.21831   0.00000  Uiso   1.00
H540   H     0.54620   0.61004   0.15835   0.00000  Uiso   1.00
C541   C     0.66791   0.42105   0.24559   0.00000  Uiso   1.00
C542   C     0.99896   0.57885   0.25417   0.00000  Uiso   1.00
C543   C     0.86573   0.49477   0.04987   0.00000  Uiso   1.00
C544   C     0.82351   0.54859   0.46042   0.00000  Uiso   1.00
C545   C     0.91442   0.49021   0.02683   0.00000  Uiso   1.00
C546   C     0.77752   0.55979   0.48365   0.00000  Uiso   1.00
C547   C     0.95803   0.35360   0.24803   0.00000  Uiso   1.00
C548   C     0.70844   0.64585   0.25320   0.00000  Uiso   1.00
C549   C     0.95500   0.64481   0.26177   0.00000  Uiso   1.00
C550   C     0.71233   0.35421   0.23783   0.00000  Uiso   1.00
C551   C     0.99816   0.62357   0.25870   0.00000  Uiso   1.00
C552   C     0.66888   0.37605   0.24143   0.00000  Uiso   1.00
C553   C     0.85007   0.47082   0.27581   0.00000  Uiso   1.00
C554   C     0.81645   0.52854   0.22333   0.00000  Uiso   1.00
C555   C     0.80040   0.47062   0.27576   0.00000  Uiso   1.00
C556   C     0.86582   0.53015   0.22473   0.00000  Uiso   1.00
C557   C     0.97249   0.50128   0.33619   0.00000  Uiso   1.00
C558   C     0.69425   0.50007   0.16372   0.00000  Uiso   1.00
C559   C     0.95789   0.50409   0.38576   0.00000  Uiso   1.00
C560   C     0.71069   0.50607   0.11394   0.00000  Uiso   1.00
C561   C     0.97986   0.49695   0.45618   0.00000  Uiso   1.00
C562   C     0.70601   0.54852   0.04741   0.00000  Uiso   1.00
C563   C     0.99336   0.50668   0.40944   0.00000  Uiso   1.00
C564   C     0.68323   0.52883   0.08981   0.00000  Uiso   1.00
C565   C     0.90833   0.50354   0.41074   0.00000  Uiso   1.00
C566   C     0.75796   0.49466   0.09092   0.00000  Uiso   1.00
C567   C     0.89648   0.50908   0.45698   0.00000  Uiso   1.00
C568   C     0.78241   0.51583   0.04911   0.00000  Uiso   1.00
C569   C     0.93053   0.49806   0.48021   0.00000  Uiso   1.00
C570   C     0.75549   0.54228   0.02717   0.00000  Uiso   1.00
C571   C     0.85039   0.52197   0.48107   0.00000  Uiso   1.00
C572   C     0.83243   0.51016   0.02726   0.00000  Uiso   1.00
Cu573  Cu    0.71355   0.50001   0.25000   0.00000  Uiso   1.00
Cu574  Cu    0.95311   0.49999   0.25000   0.00000  Uiso   1.00
H575   H     0.93923   0.48012   0.04561   0.00000  Uiso   1.00
H576   H     0.75826   0.58031   0.46607   0.00000  Uiso   1.00
H577   H     0.85562   0.48905   0.08581   0.00000  Uiso   1.00
H578   H     0.83851   0.56173   0.42640   0.00000  Uiso   1.00
N579   N     0.78403   0.50001   0.24999   0.00000  Uiso   1.00
N580   N     0.88264   0.49999   0.25001   0.00000  Uiso   1.00
O581   O     0.70625   0.43989   0.25000   0.00000  Uiso   1.00
O582   O     0.96042   0.56011   0.25000   0.00000  Uiso   1.00
O583   O     0.96039   0.43988   0.25000   0.00000  Uiso   1.00
O584   O     0.70628   0.56012   0.24999   0.00000  Uiso   1.00
O585   O     0.68519   0.50001   0.31491   0.00000  Uiso   1.00
O586   O     0.98148   0.49999   0.18508   0.00000  Uiso   1.00
O587   O     0.93933   0.50000   0.31492   0.00000  Uiso   1.00
O588   O     0.72733   0.50000   0.18508   0.00000  Uiso   1.00
N589   N     0.77670   0.45710   0.10536   0.00000  Uiso   1.00
H590   H     0.76540   0.44832   0.13903   0.00000  Uiso   1.00
C591   C     0.77368   0.42283   0.07912   0.00000  Uiso   1.00
H592   H     0.79347   0.39643   0.08938   0.00000  Uiso   1.00
H593   H     0.79058   0.43110   0.04291   0.00000  Uiso   1.00
H594   H     0.73514   0.41323   0.08459   0.00000  Uiso   1.00
N595   N     0.87115   0.49205   0.39119   0.00000  Uiso   1.00
H596   H     0.86026   0.51454   0.37129   0.00000  Uiso   1.00
C597   C     0.83412   0.46192   0.41646   0.00000  Uiso   1.00
H598   H     0.82768   0.43889   0.39454   0.00000  Uiso   1.00
H599   H     0.79937   0.47728   0.43036   0.00000  Uiso   1.00
H600   H     0.84515   0.44474   0.44401   0.00000  Uiso   1.00
C601   C     0.96436   0.52840   0.10527   0.00000  Uiso   1.00
N602   N     0.92244   0.52756   0.11618   0.00000  Uiso   1.00
C603   C     0.70880   0.52236   0.38737   0.00000  Uiso   1.00
N604   N     0.74754   0.53558   0.37001   0.00000  Uiso   1.00
N605   N     0.68225   0.48815   0.47911   0.00000  Uiso   1.00
H606   H     0.71403   0.50521   0.46659   0.00000  Uiso   1.00
C607   C     0.69137   0.44474   0.48504   0.00000  Uiso   1.00
H608   H     0.70749   0.43239   0.45203   0.00000  Uiso   1.00
H609   H     0.99059   0.42721   0.00266   0.00000  Uiso   1.00
H610   H     0.71721   0.44044   0.00550   0.00000  Uiso   1.00
N611   N     0.67912   0.57431   0.02446   0.00000  Uiso   1.00
H612   H     0.97881   0.56259   0.02525   0.00000  Uiso   1.00
C613   C     0.67778   0.61686   0.03512   0.00000  Uiso   1.00
H614   H     0.99105   0.61923   0.07084   0.00000  Uiso   1.00
H615   H     0.99242   0.63526   0.01383   0.00000  Uiso   1.00
H616   H     0.71517   0.62989   0.02855   0.00000  Uiso   1.00
C617   C     0.91796   0.37164   0.23426   0.00000  Uiso   1.00
N618   N     0.88609   0.38553   0.22265   0.00000  Uiso   1.00
C619   C     0.74665   0.62819   0.27006   0.00000  Uiso   1.00
N620   N     0.77663   0.61415   0.28434   0.00000  Uiso   1.00
N621   N     0.90878   0.62420   0.28080   0.00000  Uiso   1.00
H622   H     0.87944   0.63894   0.27464   0.00000  Uiso   1.00
C623   C     0.89869   0.61005   0.32767   0.00000  Uiso   1.00
H624   H     0.92711   0.58917   0.33350   0.00000  Uiso   1.00
H625   H     0.89652   0.63682   0.34819   0.00000  Uiso   1.00
H626   H     0.86344   0.59267   0.33866   0.00000  Uiso   1.00
N627   N     0.75944   0.37234   0.21528   0.00000  Uiso   1.00
H628   H     0.76064   0.40299   0.20470   0.00000  Uiso   1.00
C629   C     0.78818   0.35042   0.17856   0.00000  Uiso   1.00
H630   H     0.76757   0.34619   0.15386   0.00000  Uiso   1.00
H631   H     0.79856   0.65334   0.19053   0.00000  Uiso   1.00
H632   H     0.82225   0.36829   0.16154   0.00000  Uiso   1.00
C633   C     0.86640   0.43929   0.30270   0.00000  Uiso   1.00
N634   N     0.87949   0.41363   0.32399   0.00000  Uiso   1.00
C635   C     0.80111   0.55432   0.19043   0.00000  Uiso   1.00
N636   N     0.78896   0.57486   0.16382   0.00000  Uiso   1.00
N637   N     0.76894   0.43681   0.29772   0.00000  Uiso   1.00
H638   H     0.77954   0.40917   0.28439   0.00000  Uiso   1.00
C639   C     0.75389   0.43332   0.34615   0.00000  Uiso   1.00
H640   H     0.76720   0.40429   0.35911   0.00000  Uiso   1.00
H641   H     0.71372   0.43249   0.35821   0.00000  Uiso   1.00
H642   H     0.76820   0.45941   0.35987   0.00000  Uiso   1.00
N643   N     0.89870   0.56108   0.19709   0.00000  Uiso   1.00
H644   H     0.93498   0.55614   0.18699   0.00000  Uiso   1.00
C645   C     0.88557   0.60364   0.19175   0.00000  Uiso   1.00
H646   H     0.91584   0.62430   0.19307   0.00000  Uiso   1.00
H647   H     0.85286   0.61073   0.21831   0.00000  Uiso   1.00
H648   H     0.87954   0.61004   0.15835   0.00000  Uiso   1.00
C649   C     0.00124   0.75438   0.24559   0.00000  Uiso   1.00
C650   C     0.33229   0.91219   0.25417   0.00000  Uiso   1.00
C651   C     0.19906   0.82810   0.04987   0.00000  Uiso   1.00
C652   C     0.15684   0.88193   0.46042   0.00000  Uiso   1.00
C653   C     0.24775   0.82354   0.02683   0.00000  Uiso   1.00
C654   C     0.11085   0.89313   0.48365   0.00000  Uiso   1.00
C655   C     0.29136   0.68693   0.24803   0.00000  Uiso   1.00
C656   C     0.04177   0.97919   0.25320   0.00000  Uiso   1.00
C657   C     0.28833   0.97814   0.26177   0.00000  Uiso   1.00
C658   C     0.04567   0.68754   0.23783   0.00000  Uiso   1.00
C659   C     0.33150   0.95690   0.25870   0.00000  Uiso   1.00
C660   C     0.00222   0.70938   0.24143   0.00000  Uiso   1.00
C661   C     0.18341   0.80415   0.27581   0.00000  Uiso   1.00
C662   C     0.14979   0.86188   0.22333   0.00000  Uiso   1.00
C663   C     0.13373   0.80396   0.27576   0.00000  Uiso   1.00
C664   C     0.19915   0.86348   0.22473   0.00000  Uiso   1.00
C665   C     0.30583   0.83462   0.33619   0.00000  Uiso   1.00
C666   C     0.02758   0.83340   0.16372   0.00000  Uiso   1.00
C667   C     0.29122   0.83742   0.38576   0.00000  Uiso   1.00
C668   C     0.04402   0.83941   0.11394   0.00000  Uiso   1.00
C669   C     0.31319   0.83028   0.45618   0.00000  Uiso   1.00
C670   C     0.03934   0.88186   0.04741   0.00000  Uiso   1.00
C671   C     0.32669   0.84002   0.40944   0.00000  Uiso   1.00
C672   C     0.01656   0.86216   0.08981   0.00000  Uiso   1.00
C673   C     0.24166   0.83688   0.41074   0.00000  Uiso   1.00
C674   C     0.09129   0.82799   0.09092   0.00000  Uiso   1.00
C675   C     0.22982   0.84242   0.45698   0.00000  Uiso   1.00
C676   C     0.11574   0.84916   0.04911   0.00000  Uiso   1.00
C677   C     0.26386   0.83140   0.48021   0.00000  Uiso   1.00
C678   C     0.08883   0.87561   0.02717   0.00000  Uiso   1.00
C679   C     0.18372   0.85531   0.48107   0.00000  Uiso   1.00
C680   C     0.16577   0.84349   0.02726   0.00000  Uiso   1.00
Cu681  Cu    0.04689   0.83334   0.25000   0.00000  Uiso   1.00
Cu682  Cu    0.28645   0.83333   0.25000   0.00000  Uiso   1.00
H683   H     0.27257   0.81345   0.04561   0.00000  Uiso   1.00
H684   H     0.09159   0.91364   0.46607   0.00000  Uiso   1.00
H685   H     0.18895   0.82238   0.08581   0.00000  Uiso   1.00
H686   H     0.17185   0.89506   0.42640   0.00000  Uiso   1.00
N687   N     0.11736   0.83334   0.24999   0.00000  Uiso   1.00
N688   N     0.21597   0.83332   0.25001   0.00000  Uiso   1.00
O689   O     0.03958   0.77322   0.25000   0.00000  Uiso   1.00
O690   O     0.29375   0.89345   0.25000   0.00000  Uiso   1.00
O691   O     0.29372   0.77321   0.25000   0.00000  Uiso   1.00
O692   O     0.03961   0.89346   0.24999   0.00000  Uiso   1.00
O693   O     0.01852   0.83334   0.31491   0.00000  Uiso   1.00
O694   O     0.31481   0.83332   0.18508   0.00000  Uiso   1.00
O695   O     0.27267   0.83333   0.31492   0.00000  Uiso   1.00
O696   O     0.06067   0.83333   0.18508   0.00000  Uiso   1.00
N697   N     0.11003   0.79043   0.10536   0.00000  Uiso   1.00
H698   H     0.09873   0.78166   0.13903   0.00000  Uiso   1.00
C699   C     0.10701   0.75616   0.07912   0.00000  Uiso   1.00
H700   H     0.12680   0.72976   0.08938   0.00000  Uiso   1.00
H701   H     0.12392   0.76444   0.04291   0.00000  Uiso   1.00
H702   H     0.06847   0.74656   0.08459   0.00000  Uiso   1.00
N703   N     0.20448   0.82538   0.39119   0.00000  Uiso   1.00
H704   H     0.19359   0.84787   0.37129   0.00000  Uiso   1.00
C705   C     0.16745   0.79526   0.41646   0.00000  Uiso   1.00
H706   H     0.16102   0.77222   0.39454   0.00000  Uiso   1.00
H707   H     0.13270   0.81061   0.43036   0.00000  Uiso   1.00
H708   H     0.17849   0.77808   0.44401   0.00000  Uiso   1.00
C709   C     0.29769   0.86174   0.10527   0.00000  Uiso   1.00
N710   N     0.25577   0.86090   0.11618   0.00000  Uiso   1.00
C711   C     0.04213   0.85569   0.38737   0.00000  Uiso   1.00
N712   N     0.08088   0.86891   0.37001   0.00000  Uiso   1.00
N713   N     0.01558   0.82148   0.47911   0.00000  Uiso   1.00
H714   H     0.04736   0.83854   0.46659   0.00000  Uiso   1.00
C715   C     0.02470   0.77807   0.48504   0.00000  Uiso   1.00
H716   H     0.04082   0.76572   0.45203   0.00000  Uiso   1.00
H717   H     0.32392   0.76055   0.00266   0.00000  Uiso   1.00
H718   H     0.05055   0.77377   0.00550   0.00000  Uiso   1.00
N719   N     0.01246   0.90764   0.02446   0.00000  Uiso   1.00
H720   H     0.31214   0.89593   0.02525   0.00000  Uiso   1.00
C721   C     0.01111   0.95019   0.03512   0.00000  Uiso   1.00
H722   H     0.32438   0.95256   0.07084   0.00000  Uiso   1.00
H723   H     0.32575   0.96860   0.01383   0.00000  Uiso   1.00
H724   H     0.04850   0.96323   0.02855   0.00000  Uiso   1.00
C725   C     0.25129   0.70497   0.23426   0.00000  Uiso   1.00
N726   N     0.21943   0.71887   0.22265   0.00000  Uiso   1.00
C727   C     0.07998   0.96153   0.27006   0.00000  Uiso   1.00
N728   N     0.10997   0.94748   0.28434   0.00000  Uiso   1.00
N729   N     0.24211   0.95753   0.28080   0.00000  Uiso   1.00
H730   H     0.21277   0.97228   0.27464   0.00000  Uiso   1.00
C731   C     0.23203   0.94338   0.32767   0.00000  Uiso   1.00
H732   H     0.26045   0.92251   0.33350   0.00000  Uiso   1.00
H733   H     0.22985   0.97015   0.34819   0.00000  Uiso   1.00
H734   H     0.19678   0.92600   0.33866   0.00000  Uiso   1.00
N735   N     0.09278   0.70567   0.21528   0.00000  Uiso   1.00
H736   H     0.09397   0.73633   0.20470   0.00000  Uiso   1.00
C737   C     0.12151   0.68375   0.17856   0.00000  Uiso   1.00
H738   H     0.10090   0.67952   0.15386   0.00000  Uiso   1.00
H739   H     0.13189   0.98667   0.19053   0.00000  Uiso   1.00
H740   H     0.15558   0.70162   0.16154   0.00000  Uiso   1.00
C741   C     0.19973   0.77262   0.30270   0.00000  Uiso   1.00
N742   N     0.21283   0.74697   0.32399   0.00000  Uiso   1.00
C743   C     0.13444   0.88765   0.19043   0.00000  Uiso   1.00
N744   N     0.12230   0.90820   0.16382   0.00000  Uiso   1.00
N745   N     0.10228   0.77015   0.29772   0.00000  Uiso   1.00
H746   H     0.11287   0.74250   0.28439   0.00000  Uiso   1.00
C747   C     0.08723   0.76665   0.34615   0.00000  Uiso   1.00
H748   H     0.10053   0.73763   0.35911   0.00000  Uiso   1.00
H749   H     0.04705   0.76582   0.35821   0.00000  Uiso   1.00
H750   H     0.10153   0.79274   0.35987   0.00000  Uiso   1.00
N751   N     0.23204   0.89441   0.19709   0.00000  Uiso   1.00
H752   H     0.26832   0.88948   0.18699   0.00000  Uiso   1.00
C753   C     0.21890   0.93697   0.19175   0.00000  Uiso   1.00
H754   H     0.24917   0.95764   0.19307   0.00000  Uiso   1.00
H755   H     0.18619   0.94406   0.21831   0.00000  Uiso   1.00
H756   H     0.21287   0.94337   0.15835   0.00000  Uiso   1.00
C757   C     0.33457   0.75438   0.24559   0.00000  Uiso   1.00
C758   C     0.66562   0.91219   0.25417   0.00000  Uiso   1.00
C759   C     0.53239   0.82810   0.04987   0.00000  Uiso   1.00
C760   C     0.49018   0.88193   0.46042   0.00000  Uiso   1.00
C761   C     0.58109   0.82354   0.02683   0.00000  Uiso   1.00
C762   C     0.44419   0.89313   0.48365   0.00000  Uiso   1.00
C763   C     0.62470   0.68693   0.24803   0.00000  Uiso   1.00
C764   C     0.37510   0.97919   0.25320   0.00000  Uiso   1.00
C765   C     0.62166   0.97814   0.26177   0.00000  Uiso   1.00
C766   C     0.37900   0.68754   0.23783   0.00000  Uiso   1.00
C767   C     0.66483   0.95690   0.25870   0.00000  Uiso   1.00
C768   C     0.33555   0.70938   0.24143   0.00000  Uiso   1.00
C769   C     0.51674   0.80415   0.27581   0.00000  Uiso   1.00
C770   C     0.48312   0.86188   0.22333   0.00000  Uiso   1.00
C771   C     0.46706   0.80396   0.27576   0.00000  Uiso   1.00
C772   C     0.53248   0.86348   0.22473   0.00000  Uiso   1.00
C773   C     0.63916   0.83462   0.33619   0.00000  Uiso   1.00
C774   C     0.36092   0.83340   0.16372   0.00000  Uiso   1.00
C775   C     0.62455   0.83742   0.38576   0.00000  Uiso   1.00
C776   C     0.37736   0.83941   0.11394   0.00000  Uiso   1.00
C777   C     0.64653   0.83028   0.45618   0.00000  Uiso   1.00
C778   C     0.37267   0.88186   0.04741   0.00000  Uiso   1.00
C779   C     0.66002   0.84002   0.40944   0.00000  Uiso   1.00
C780   C     0.34990   0.86216   0.08981   0.00000  Uiso   1.00
C781   C     0.57500   0.83688   0.41074   0.00000  Uiso   1.00
C782   C     0.42462   0.82799   0.09092   0.00000  Uiso   1.00
C783   C     0.56315   0.84242   0.45698   0.00000  Uiso   1.00
C784   C     0.44908   0.84916   0.04911   0.00000  Uiso   1.00
C785   C     0.59720   0.83140   0.48021   0.00000  Uiso   1.00
C786   C     0.42216   0.87561   0.02717   0.00000  Uiso   1.00
C787   C     0.51705   0.85531   0.48107   0.00000  Uiso   1.00
C788   C     0.49910   0.84349   0.02726   0.00000  Uiso   1.00
Cu789  Cu    0.38022   0.83334   0.25000   0.00000  Uiso   1.00
Cu790  Cu    0.61978   0.83333   0.25000   0.00000  Uiso   1.00
H791   H     0.60590   0.81345   0.04561   0.00000  Uiso   1.00
H792   H     0.42492   0.91364   0.46607   0.00000  Uiso   1.00
H793   H     0.52228   0.82238   0.08581   0.00000  Uiso   1.00
H794   H     0.50518   0.89506   0.42640   0.00000  Uiso   1.00
N795   N     0.45069   0.83334   0.24999   0.00000  Uiso   1.00
N796   N     0.54931   0.83332   0.25001   0.00000  Uiso   1.00
O797   O     0.37291   0.77322   0.25000   0.00000  Uiso   1.00
O798   O     0.62709   0.89345   0.25000   0.00000  Uiso   1.00
O799   O     0.62706   0.77321   0.25000   0.00000  Uiso   1.00
O800   O     0.37294   0.89346   0.24999   0.00000  Uiso   1.00
O801   O     0.35186   0.83334   0.31491   0.00000  Uiso   1.00
O802   O     0.64814   0.83332   0.18508   0.00000  Uiso   1.00
O803   O     0.60600   0.83333   0.31492   0.00000  Uiso   1.00
O804   O     0.39400   0.83333   0.18508   0.00000  Uiso   1.00
N805   N     0.44336   0.79043   0.10536   0.00000  Uiso   1.00
H806   H     0.43206   0.78166   0.13903   0.00000  Uiso   1.00
C807   C     0.44034   0.75616   0.07912   0.00000  Uiso   1.00
H808   H     0.46014   0.72976   0.08938   0.00000  Uiso   1.00
H809   H     0.45725   0.76444   0.04291   0.00000  Uiso   1.00
H810   H     0.40181   0.74656   0.08459   0.00000  Uiso   1.00
N811   N     0.53782   0.82538   0.39119   0.00000  Uiso   1.00
H812   H     0.52693   0.84787   0.37129   0.00000  Uiso   1.00
C813   C     0.50078   0.79526   0.41646   0.00000  Uiso   1.00
H814   H     0.49435   0.77222   0.39454   0.00000  Uiso   1.00
H815   H     0.46604   0.81061   0.43036   0.00000  Uiso   1.00
H816   H     0.51182   0.77808   0.44401   0.00000  Uiso   1.00
C817   C     0.63102   0.86174   0.10527   0.00000  Uiso   1.00
N818   N     0.58911   0.86090   0.11618   0.00000  Uiso   1.00
C819   C     0.37546   0.85569   0.38737   0.00000  Uiso   1.00
N820   N     0.41421   0.86891   0.37001   0.00000  Uiso   1.00
N821   N     0.34891   0.82148   0.47911   0.00000  Uiso   1.00
H822   H     0.38069   0.83854   0.46659   0.00000  Uiso   1.00
C823   C     0.35804   0.77807   0.48504   0.00000  Uiso   1.00
H824   H     0.37415   0.76572   0.45203   0.00000  Uiso   1.00
H825   H     0.65726   0.76055   0.00266   0.00000  Uiso   1.00
H826   H     0.38388   0.77377   0.00550   0.00000  Uiso   1.00
N827   N     0.34579   0.90764   0.02446   0.00000  Uiso   1.00
H828   H     0.64547   0.89593   0.02525   0.00000  Uiso   1.00
C829   C     0.34444   0.95019   0.03512   0.00000  Uiso   1.00
H830   H     0.65771   0.95256   0.07084   0.00000  Uiso   1.00
H831   H     0.65909   0.96860   0.01383   0.00000  Uiso   1.00
H832   H     0.38184   0.96323   0.02855   0.00000  Uiso   1.00
C833   C     0.58463   0.70497   0.23426   0.00000  Uiso   1.00
N834   N     0.55276   0.71887   0.22265   0.00000  Uiso   1.00
C835   C     0.41332   0.96153   0.27006   0.00000  Uiso   1.00
N836   N     0.44330   0.94748   0.28434   0.00000  Uiso   1.00
N837   N     0.57544   0.95753   0.28080   0.00000  Uiso   1.00
H838   H     0.54610   0.97228   0.27464   0.00000  Uiso   1.00
C839   C     0.56536   0.94338   0.32767   0.00000  Uiso   1.00
H840   H     0.59378   0.92251   0.33350   0.00000  Uiso   1.00
H841   H     0.56318   0.97015   0.34819   0.00000  Uiso   1.00
H842   H     0.53011   0.92600   0.33866   0.00000  Uiso   1.00
N843   N     0.42611   0.70567   0.21528   0.00000  Uiso   1.00
H844   H     0.42730   0.73633   0.20470   0.00000  Uiso   1.00
C845   C     0.45484   0.68375   0.17856   0.00000  Uiso   1.00
H846   H     0.43424   0.67952   0.15386   0.00000  Uiso   1.00
H847   H     0.46522   0.98667   0.19053   0.00000  Uiso   1.00
H848   H     0.48891   0.70162   0.16154   0.00000  Uiso   1.00
C849   C     0.53306   0.77262   0.30270   0.00000  Uiso   1.00
N850   N     0.54616   0.74697   0.32399   0.00000  Uiso   1.00
C851   C     0.46778   0.88765   0.19043   0.00000  Uiso   1.00
N852   N     0.45563   0.90820   0.16382   0.00000  Uiso   1.00
N853   N     0.43561   0.77015   0.29772   0.00000  Uiso   1.00
H854   H     0.44621   0.74250   0.28439   0.00000  Uiso   1.00
C855   C     0.42056   0.76665   0.34615   0.00000  Uiso   1.00
H856   H     0.43387   0.73763   0.35911   0.00000  Uiso   1.00
H857   H     0.38038   0.76582   0.35821   0.00000  Uiso   1.00
H858   H     0.43486   0.79274   0.35987   0.00000  Uiso   1.00
N859   N     0.56537   0.89441   0.19709   0.00000  Uiso   1.00
H860   H     0.60165   0.88948   0.18699   0.00000  Uiso   1.00
C861   C     0.55223   0.93697   0.19175   0.00000  Uiso   1.00
H862   H     0.58250   0.95764   0.19307   0.00000  Uiso   1.00
H863   H     0.51953   0.94406   0.21831   0.00000  Uiso   1.00
H864   H     0.54620   0.94337   0.15835   0.00000  Uiso   1.00
C865   C     0.66791   0.75438   0.24559   0.00000  Uiso   1.00
C866   C     0.99896   0.91219   0.25417   0.00000  Uiso   1.00
C867   C     0.86573   0.82810   0.04987   0.00000  Uiso   1.00
C868   C     0.82351   0.88193   0.46042   0.00000  Uiso   1.00
C869   C     0.91442   0.82354   0.02683   0.00000  Uiso   1.00
C870   C     0.77752   0.89313   0.48365   0.00000  Uiso   1.00
C871   C     0.95803   0.68693   0.24803   0.00000  Uiso   1.00
C872   C     0.70844   0.97919   0.25320   0.00000  Uiso   1.00
C873   C     0.95500   0.97814   0.26177   0.00000  Uiso   1.00
C874   C     0.71233   0.68754   0.23783   0.00000  Uiso   1.00
C875   C     0.99816   0.95690   0.25870   0.00000  Uiso   1.00
C876   C     0.66888   0.70938   0.24143   0.00000  Uiso   1.00
C877   C     0.85007   0.80415   0.27581   0.00000  Uiso   1.00
C878   C     0.81645   0.86188   0.22333   0.00000  Uiso   1.00
C879   C     0.80040   0.80396   0.27576   0.00000  Uiso   1.00
C880   C     0.86582   0.86348   0.22473   0.00000  Uiso   1.00
C881   C     0.97249   0.83462   0.33619   0.00000  Uiso   1.00
C882   C     0.69425   0.83340   0.16372   0.00000  Uiso   1.00
C883   C     0.95789   0.83742   0.38576   0.00000  Uiso   1.00
C884   C     0.71069   0.83941   0.11394   0.00000  Uiso   1.00
C885   C     0.97986   0.83028   0.45618   0.00000  Uiso   1.00
C886   C     0.70601   0.88186   0.04741   0.00000  Uiso   1.00
C887   C     0.99336   0.84002   0.40944   0.00000  Uiso   1.00
C888   C     0.68323   0.86216   0.08981   0.00000  Uiso   1.00
C889   C     0.90833   0.83688   0.41074   0.00000  Uiso   1.00
C890   C     0.75796   0.82799   0.09092   0.00000  Uiso   1.00
C891   C     0.89648   0.84242   0.45698   0.00000  Uiso   1.00
C892   C     0.78241   0.84916   0.04911   0.00000  Uiso   1.00
C893   C     0.93053   0.83140   0.48021   0.00000  Uiso   1.00
C894   C     0.75549   0.87561   0.02717   0.00000  Uiso   1.00
C895   C     0.85039   0.85531   0.48107   0.00000  Uiso   1.00
C896   C     0.83243   0.84349   0.02726   0.00000  Uiso   1.00
Cu897  Cu    0.71355   0.83334   0.25000   0.00000  Uiso   1.00
Cu898  Cu    0.95311   0.83333   0.25000   0.00000  Uiso   1.00
H899   H     0.93923   0.81345   0.04561   0.00000  Uiso   1.00
H900   H     0.75826   0.91364   0.46607   0.00000  Uiso   1.00
H901   H     0.85562   0.82238   0.08581   0.00000  Uiso   1.00
H902   H     0.83851   0.89506   0.42640   0.00000  Uiso   1.00
N903   N     0.78403   0.83334   0.24999   0.00000  Uiso   1.00
N904   N     0.88264   0.83332   0.25001   0.00000  Uiso   1.00
O905   O     0.70625   0.77322   0.25000   0.00000  Uiso   1.00
O906   O     0.96042   0.89345   0.25000   0.00000  Uiso   1.00
O907   O     0.96039   0.77321   0.25000   0.00000  Uiso   1.00
O908   O     0.70628   0.89346   0.24999   0.00000  Uiso   1.00
O909   O     0.68519   0.83334   0.31491   0.00000  Uiso   1.00
O910   O     0.98148   0.83332   0.18508   0.00000  Uiso   1.00
O911   O     0.93933   0.83333   0.31492   0.00000  Uiso   1.00
O912   O     0.72733   0.83333   0.18508   0.00000  Uiso   1.00
N913   N     0.77670   0.79043   0.10536   0.00000  Uiso   1.00
H914   H     0.76540   0.78166   0.13903   0.00000  Uiso   1.00
C915   C     0.77368   0.75616   0.07912   0.00000  Uiso   1.00
H916   H     0.79347   0.72976   0.08938   0.00000  Uiso   1.00
H917   H     0.79058   0.76444   0.04291   0.00000  Uiso   1.00
H918   H     0.73514   0.74656   0.08459   0.00000  Uiso   1.00
N919   N     0.87115   0.82538   0.39119   0.00000  Uiso   1.00
H920   H     0.86026   0.84787   0.37129   0.00000  Uiso   1.00
C921   C     0.83412   0.79526   0.41646   0.00000  Uiso   1.00
H922   H     0.82768   0.77222   0.39454   0.00000  Uiso   1.00
H923   H     0.79937   0.81061   0.43036   0.00000  Uiso   1.00
H924   H     0.84515   0.77808   0.44401   0.00000  Uiso   1.00
C925   C     0.96436   0.86174   0.10527   0.00000  Uiso   1.00
N926   N     0.92244   0.86090   0.11618   0.00000  Uiso   1.00
C927   C     0.70880   0.85569   0.38737   0.00000  Uiso   1.00
N928   N     0.74754   0.86891   0.37001   0.00000  Uiso   1.00
N929   N     0.68225   0.82148   0.47911   0.00000  Uiso   1.00
H930   H     0.71403   0.83854   0.46659   0.00000  Uiso   1.00
C931   C     0.69137   0.77807   0.48504   0.00000  Uiso   1.00
H932   H     0.70749   0.76572   0.45203   0.00000  Uiso   1.00
H933   H     0.99059   0.76055   0.00266   0.00000  Uiso   1.00
H934   H     0.71721   0.77377   0.00550   0.00000  Uiso   1.00
N935   N     0.67912   0.90764   0.02446   0.00000  Uiso   1.00
H936   H     0.97881   0.89593   0.02525   0.00000  Uiso   1.00
C937   C     0.67778   0.95019   0.03512   0.00000  Uiso   1.00
H938   H     0.99105   0.95256   0.07084   0.00000  Uiso   1.00
H939   H     0.99242   0.96860   0.01383   0.00000  Uiso   1.00
H940   H     0.71517   0.96323   0.02855   0.00000  Uiso   1.00
C941   C     0.91796   0.70497   0.23426   0.00000  Uiso   1.00
N942   N     0.88609   0.71887   0.22265   0.00000  Uiso   1.00
C943   C     0.74665   0.96153   0.27006   0.00000  Uiso   1.00
N944   N     0.77663   0.94748   0.28434   0.00000  Uiso   1.00
N945   N     0.90878   0.95753   0.28080   0.00000  Uiso   1.00
H946   H     0.87944   0.97228   0.27464   0.00000  Uiso   1.00
C947   C     0.89869   0.94338   0.32767   0.00000  Uiso   1.00
H948   H     0.92711   0.92251   0.33350   0.00000  Uiso   1.00
H949   H     0.89652   0.97015   0.34819   0.00000  Uiso   1.00
H950   H     0.86344   0.92600   0.33866   0.00000  Uiso   1.00
N951   N     0.75944   0.70567   0.21528   0.00000  Uiso   1.00
H952   H     0.76064   0.73633   0.20470   0.00000  Uiso   1.00
C953   C     0.78818   0.68375   0.17856   0.00000  Uiso   1.00
H954   H     0.76757   0.67952   0.15386   0.00000  Uiso   1.00
H955   H     0.79856   0.98667   0.19053   0.00000  Uiso   1.00
H956   H     0.82225   0.70162   0.16154   0.00000  Uiso   1.00
C957   C     0.86640   0.77262   0.30270   0.00000  Uiso   1.00
N958   N     0.87949   0.74697   0.32399   0.00000  Uiso   1.00
C959   C     0.80111   0.88765   0.19043   0.00000  Uiso   1.00
N960   N     0.78896   0.90820   0.16382   0.00000  Uiso   1.00
N961   N     0.76894   0.77015   0.29772   0.00000  Uiso   1.00
H962   H     0.77954   0.74250   0.28439   0.00000  Uiso   1.00
C963   C     0.75389   0.76665   0.34615   0.00000  Uiso   1.00
H964   H     0.76720   0.73763   0.35911   0.00000  Uiso   1.00
H965   H     0.71372   0.76582   0.35821   0.00000  Uiso   1.00
H966   H     0.76820   0.79274   0.35987   0.00000  Uiso   1.00
N967   N     0.89870   0.89441   0.19709   0.00000  Uiso   1.00
H968   H     0.93498   0.88948   0.18699   0.00000  Uiso   1.00
C969   C     0.88557   0.93697   0.19175   0.00000  Uiso   1.00
H970   H     0.91584   0.95764   0.19307   0.00000  Uiso   1.00
H971   H     0.85286   0.94406   0.21831   0.00000  Uiso   1.00
H972   H     0.87954   0.94337   0.15835   0.00000  Uiso   1.00
C973   C     0.00124   0.08772   0.74559   0.00000  Uiso   1.00
C974   C     0.33229   0.24552   0.75417   0.00000  Uiso   1.00
C975   C     0.19906   0.16143   0.54987   0.00000  Uiso   1.00
C976   C     0.15684   0.21526   0.96042   0.00000  Uiso   1.00
C977   C     0.24775   0.15688   0.52683   0.00000  Uiso   1.00
C978   C     0.11085   0.22646   0.98365   0.00000  Uiso   1.00
C979   C     0.29136   0.02027   0.74803   0.00000  Uiso   1.00
C980   C     0.04177   0.31252   0.75320   0.00000  Uiso   1.00
C981   C     0.28833   0.31148   0.76177   0.00000  Uiso   1.00
C982   C     0.04567   0.02088   0.73783   0.00000  Uiso   1.00
C983   C     0.33150   0.29023   0.75870   0.00000  Uiso   1.00
C984   C     0.00222   0.04271   0.74143   0.00000  Uiso   1.00
C985   C     0.18341   0.13748   0.77581   0.00000  Uiso   1.00
C986   C     0.14979   0.19521   0.72333   0.00000  Uiso   1.00
C987   C     0.13373   0.13729   0.77576   0.00000  Uiso   1.00
C988   C     0.19915   0.19682   0.72473   0.00000  Uiso   1.00
C989   C     0.30583   0.16795   0.83619   0.00000  Uiso   1.00
C990   C     0.02758   0.16673   0.66372   0.00000  Uiso   1.00
C991   C     0.29122   0.17075   0.88576   0.00000  Uiso   1.00
C992   C     0.04402   0.17274   0.61394   0.00000  Uiso   1.00
C993   C     0.31319   0.16362   0.95618   0.00000  Uiso   1.00
C994   C     0.03934   0.21519   0.54741   0.00000  Uiso   1.00
C995   C     0.32669   0.17335   0.90944   0.00000  Uiso   1.00
C996   C     0.01656   0.19550   0.58981   0.00000  Uiso   1.00
C997   C     0.24166   0.17021   0.91074   0.00000  Uiso   1.00
C998   C     0.09129   0.16132   0.59092   0.00000  Uiso   1.00
C999   C     0.22982   0.17575   0.95698   0.00000  Uiso   1.00
C1000  C     0.11574   0.18250   0.54911   0.00000  Uiso   1.00
C1001  C     0.26386   0.16473   0.98021   0.00000  Uiso   1.00
C1002  C     0.08883   0.20895   0.52717   0.00000  Uiso   1.00
C1003  C     0.18372   0.18864   0.98107   0.00000  Uiso   1.00
C1004  C     0.16577   0.17683   0.52726   0.00000  Uiso   1.00
Cu1005 Cu    0.04689   0.16667   0.75000   0.00000  Uiso   1.00
Cu1006 Cu    0.28645   0.16666   0.75000   0.00000  Uiso   1.00
H1007  H     0.27257   0.14679   0.54561   0.00000  Uiso   1.00
H1008  H     0.09159   0.24697   0.96607   0.00000  Uiso   1.00
H1009  H     0.18895   0.15571   0.58581   0.00000  Uiso   1.00
H1010  H     0.17185   0.22840   0.92640   0.00000  Uiso   1.00
N1011  N     0.11736   0.16668   0.74999   0.00000  Uiso   1.00
N1012  N     0.21597   0.16666   0.75001   0.00000  Uiso   1.00
O1013  O     0.03958   0.10655   0.75000   0.00000  Uiso   1.00
O1014  O     0.29375   0.22678   0.75000   0.00000  Uiso   1.00
O1015  O     0.29372   0.10654   0.75000   0.00000  Uiso   1.00
O1016  O     0.03961   0.22679   0.74999   0.00000  Uiso   1.00
O1017  O     0.01852   0.16668   0.81491   0.00000  Uiso   1.00
O1018  O     0.31481   0.16666   0.68508   0.00000  Uiso   1.00
O1019  O     0.27267   0.16667   0.81492   0.00000  Uiso   1.00
O1020  O     0.06067   0.16667   0.68508   0.00000  Uiso   1.00
N1021  N     0.11003   0.12377   0.60536   0.00000  Uiso   1.00
H1022  H     0.09873   0.11499   0.63903   0.00000  Uiso   1.00
C1023  C     0.10701   0.08949   0.57912   0.00000  Uiso   1.00
H1024  H     0.12680   0.06310   0.58938   0.00000  Uiso   1.00
H1025  H     0.12392   0.09777   0.54291   0.00000  Uiso   1.00
H1026  H     0.06847   0.07990   0.58459   0.00000  Uiso   1.00
N1027  N     0.20448   0.15872   0.89119   0.00000  Uiso   1.00
H1028  H     0.19359   0.18121   0.87129   0.00000  Uiso   1.00
C1029  C     0.16745   0.12859   0.91646   0.00000  Uiso   1.00
H1030  H     0.16102   0.10556   0.89454   0.00000  Uiso   1.00
H1031  H     0.13270   0.14395   0.93036   0.00000  Uiso   1.00
H1032  H     0.17849   0.11141   0.94401   0.00000  Uiso   1.00
C1033  C     0.29769   0.19507   0.60527   0.00000  Uiso   1.00
N1034  N     0.25577   0.19423   0.61618   0.00000  Uiso   1.00
C1035  C     0.04213   0.18903   0.88737   0.00000  Uiso   1.00
N1036  N     0.08088   0.20225   0.87001   0.00000  Uiso   1.00
N1037  N     0.01558   0.15482   0.97911   0.00000  Uiso   1.00
H1038  H     0.04736   0.17188   0.96659   0.00000  Uiso   1.00
C1039  C     0.02470   0.11141   0.98504   0.00000  Uiso   1.00
H1040  H     0.04082   0.09905   0.95203   0.00000  Uiso   1.00
H1041  H     0.32392   0.09388   0.50266   0.00000  Uiso   1.00
H1042  H     0.05055   0.10710   0.50550   0.00000  Uiso   1.00
N1043  N     0.01246   0.24098   0.52446   0.00000  Uiso   1.00
H1044  H     0.31214   0.22926   0.52525   0.00000  Uiso   1.00
C1045  C     0.01111   0.28352   0.53512   0.00000  Uiso   1.00
H1046  H     0.32438   0.28590   0.57084   0.00000  Uiso   1.00
H1047  H     0.32575   0.30193   0.51383   0.00000  Uiso   1.00
H1048  H     0.04850   0.29656   0.52855   0.00000  Uiso   1.00
C1049  C     0.25129   0.03830   0.73426   0.00000  Uiso   1.00
N1050  N     0.21943   0.05220   0.72265   0.00000  Uiso   1.00
C1051  C     0.07998   0.29486   0.77006   0.00000  Uiso   1.00
N1052  N     0.10997   0.28082   0.78434   0.00000  Uiso   1.00
N1053  N     0.24211   0.29086   0.78080   0.00000  Uiso   1.00
H1054  H     0.21277   0.30561   0.77464   0.00000  Uiso   1.00
C1055  C     0.23203   0.27671   0.82767   0.00000  Uiso   1.00
H1056  H     0.26045   0.25584   0.83350   0.00000  Uiso   1.00
H1057  H     0.22985   0.30349   0.84819   0.00000  Uiso   1.00
H1058  H     0.19678   0.25933   0.83866   0.00000  Uiso   1.00
N1059  N     0.09278   0.03901   0.71528   0.00000  Uiso   1.00
H1060  H     0.09397   0.06966   0.70470   0.00000  Uiso   1.00
C1061  C     0.12151   0.01709   0.67856   0.00000  Uiso   1.00
H1062  H     0.10090   0.01285   0.65386   0.00000  Uiso   1.00
H1063  H     0.13189   0.32000   0.69053   0.00000  Uiso   1.00
H1064  H     0.15558   0.03496   0.66154   0.00000  Uiso   1.00
C1065  C     0.19973   0.10595   0.80270   0.00000  Uiso   1.00
N1066  N     0.21283   0.08030   0.82399   0.00000  Uiso   1.00
C1067  C     0.13444   0.22098   0.69043   0.00000  Uiso   1.00
N1068  N     0.12230   0.24153   0.66382   0.00000  Uiso   1.00
N1069  N     0.10228   0.10348   0.79772   0.00000  Uiso   1.00
H1070  H     0.11287   0.07583   0.78439   0.00000  Uiso   1.00
C1071  C     0.08723   0.09999   0.84615   0.00000  Uiso   1.00
H1072  H     0.10053   0.07096   0.85911   0.00000  Uiso   1.00
H1073  H     0.04705   0.09916   0.85821   0.00000  Uiso   1.00
H1074  H     0.10153   0.12607   0.85987   0.00000  Uiso   1.00
N1075  N     0.23204   0.22774   0.69709   0.00000  Uiso   1.00
H1076  H     0.26832   0.22281   0.68699   0.00000  Uiso   1.00
C1077  C     0.21890   0.27030   0.69175   0.00000  Uiso   1.00
H1078  H     0.24917   0.29097   0.69307   0.00000  Uiso   1.00
H1079  H     0.18619   0.27740   0.71831   0.00000  Uiso   1.00
H1080  H     0.21287   0.27670   0.65835   0.00000  Uiso   1.00
C1081  C     0.33457   0.08772   0.74559   0.00000  Uiso   1.00
C1082  C     0.66562   0.24552   0.75417   0.00000  Uiso   1.00
C1083  C     0.53239   0.16143   0.54987   0.00000  Uiso   1.00
C1084  C     0.49018   0.21526   0.96042   0.00000  Uiso   1.00
C1085  C     0.58109   0.15688   0.52683   0.00000  Uiso   1.00
C1086  C     0.44419   0.22646   0.98365   0.00000  Uiso   1.00
C1087  C     0.62470   0.02027   0.74803   0.00000  Uiso   1.00
C1088  C     0.37510   0.31252   0.75320   0.00000  Uiso   1.00
C1089  C     0.62166   0.31148   0.76177   0.00000  Uiso   1.00
C1090  C     0.37900   0.02088   0.73783   0.00000  Uiso   1.00
C1091  C     0.66483   0.29023   0.75870   0.00000  Uiso   1.00
C1092  C     0.33555   0.04271   0.74143   0.00000  Uiso   1.00
C1093  C     0.51674   0.13748   0.77581   0.00000  Uiso   1.00
C1094  C     0.48312   0.19521   0.72333   0.00000  Uiso   1.00
C1095  C     0.46706   0.13729   0.77576   0.00000  Uiso   1.00
C1096  C     0.53248   0.19682   0.72473   0.00000  Uiso   1.00
C1097  C     0.63916   0.16795   0.83619   0.00000  Uiso   1.00
C1098  C     0.36092   0.16673   0.66372   0.00000  Uiso   1.00
C1099  C     0.62455   0.17075   0.88576   0.00000  Uiso   1.00
C1100  C     0.37736   0.17274   0.61394   0.00000  Uiso   1.00
C1101  C     0.64653   0.16362   0.95618   0.00000  Uiso   1.00
C1102  C     0.37267   0.21519   0.54741   0.00000  Uiso   1.00
C1103  C     0.66002   0.17335   0.90944   0.00000  Uiso   1.00
C1104  C     0.34990   0.19550   0.58981   0.00000  Uiso   1.00
C1105  C     0.57500   0.17021   0.91074   0.00000  Uiso   1.00
C1106  C     0.42462   0.16132   0.59092   0.00000  Uiso   1.00
C1107  C     0.56315   0.17575   0.95698   0.00000  Uiso   1.00
C1108  C     0.44908   0.18250   0.54911   0.00000  Uiso   1.00
C1109  C     0.59720   0.16473   0.98021   0.00000  Uiso   1.00
C1110  C     0.42216   0.20895   0.52717   0.00000  Uiso   1.00
C1111  C     0.51705   0.18864   0.98107   0.00000  Uiso   1.00
C1112  C     0.49910   0.17683   0.52726   0.00000  Uiso   1.00
Cu1113 Cu    0.38022   0.16667   0.75000   0.00000  Uiso   1.00
Cu1114 Cu    0.61978   0.16666   0.75000   0.00000  Uiso   1.00
H1115  H     0.60590   0.14679   0.54561   0.00000  Uiso   1.00
H1116  H     0.42492   0.24697   0.96607   0.00000  Uiso   1.00
H1117  H     0.52228   0.15571   0.58581   0.00000  Uiso   1.00
H1118  H     0.50518   0.22840   0.92640   0.00000  Uiso   1.00
N1119  N     0.45069   0.16668   0.74999   0.00000  Uiso   1.00
N1120  N     0.54931   0.16666   0.75001   0.00000  Uiso   1.00
O1121  O     0.37291   0.10655   0.75000   0.00000  Uiso   1.00
O1122  O     0.62709   0.22678   0.75000   0.00000  Uiso   1.00
O1123  O     0.62706   0.10654   0.75000   0.00000  Uiso   1.00
O1124  O     0.37294   0.22679   0.74999   0.00000  Uiso   1.00
O1125  O     0.35186   0.16668   0.81491   0.00000  Uiso   1.00
O1126  O     0.64814   0.16666   0.68508   0.00000  Uiso   1.00
O1127  O     0.60600   0.16667   0.81492   0.00000  Uiso   1.00
O1128  O     0.39400   0.16667   0.68508   0.00000  Uiso   1.00
N1129  N     0.44336   0.12377   0.60536   0.00000  Uiso   1.00
H1130  H     0.43206   0.11499   0.63903   0.00000  Uiso   1.00
C1131  C     0.44034   0.08949   0.57912   0.00000  Uiso   1.00
H1132  H     0.46014   0.06310   0.58938   0.00000  Uiso   1.00
H1133  H     0.45725   0.09777   0.54291   0.00000  Uiso   1.00
H1134  H     0.40181   0.07990   0.58459   0.00000  Uiso   1.00
N1135  N     0.53782   0.15872   0.89119   0.00000  Uiso   1.00
H1136  H     0.52693   0.18121   0.87129   0.00000  Uiso   1.00
C1137  C     0.50078   0.12859   0.91646   0.00000  Uiso   1.00
H1138  H     0.49435   0.10556   0.89454   0.00000  Uiso   1.00
H1139  H     0.46604   0.14395   0.93036   0.00000  Uiso   1.00
H1140  H     0.51182   0.11141   0.94401   0.00000  Uiso   1.00
C1141  C     0.63102   0.19507   0.60527   0.00000  Uiso   1.00
N1142  N     0.58911   0.19423   0.61618   0.00000  Uiso   1.00
C1143  C     0.37546   0.18903   0.88737   0.00000  Uiso   1.00
N1144  N     0.41421   0.20225   0.87001   0.00000  Uiso   1.00
N1145  N     0.34891   0.15482   0.97911   0.00000  Uiso   1.00
H1146  H     0.38069   0.17188   0.96659   0.00000  Uiso   1.00
C1147  C     0.35804   0.11141   0.98504   0.00000  Uiso   1.00
H1148  H     0.37415   0.09905   0.95203   0.00000  Uiso   1.00
H1149  H     0.65726   0.09388   0.50266   0.00000  Uiso   1.00
H1150  H     0.38388   0.10710   0.50550   0.00000  Uiso   1.00
N1151  N     0.34579   0.24098   0.52446   0.00000  Uiso   1.00
H1152  H     0.64547   0.22926   0.52525   0.00000  Uiso   1.00
C1153  C     0.34444   0.28352   0.53512   0.00000  Uiso   1.00
H1154  H     0.65771   0.28590   0.57084   0.00000  Uiso   1.00
H1155  H     0.65909   0.30193   0.51383   0.00000  Uiso   1.00
H1156  H     0.38184   0.29656   0.52855   0.00000  Uiso   1.00
C1157  C     0.58463   0.03830   0.73426   0.00000  Uiso   1.00
N1158  N     0.55276   0.05220   0.72265   0.00000  Uiso   1.00
C1159  C     0.41332   0.29486   0.77006   0.00000  Uiso   1.00
N1160  N     0.44330   0.28082   0.78434   0.00000  Uiso   1.00
N1161  N     0.57544   0.29086   0.78080   0.00000  Uiso   1.00
H1162  H     0.54610   0.30561   0.77464   0.00000  Uiso   1.00
C1163  C     0.56536   0.27671   0.82767   0.00000  Uiso   1.00
H1164  H     0.59378   0.25584   0.83350   0.00000  Uiso   1.00
H1165  H     0.56318   0.30349   0.84819   0.00000  Uiso   1.00
H1166  H     0.53011   0.25933   0.83866   0.00000  Uiso   1.00
N1167  N     0.42611   0.03901   0.71528   0.00000  Uiso   1.00
H1168  H     0.42730   0.06966   0.70470   0.00000  Uiso   1.00
C1169  C     0.45484   0.01709   0.67856   0.00000  Uiso   1.00
H1170  H     0.43424   0.01285   0.65386   0.00000  Uiso   1.00
H1171  H     0.46522   0.32000   0.69053   0.00000  Uiso   1.00
H1172  H     0.48891   0.03496   0.66154   0.00000  Uiso   1.00
C1173  C     0.53306   0.10595   0.80270   0.00000  Uiso   1.00
N1174  N     0.54616   0.08030   0.82399   0.00000  Uiso   1.00
C1175  C     0.46778   0.22098   0.69043   0.00000  Uiso   1.00
N1176  N     0.45563   0.24153   0.66382   0.00000  Uiso   1.00
N1177  N     0.43561   0.10348   0.79772   0.00000  Uiso   1.00
H1178  H     0.44621   0.07583   0.78439   0.00000  Uiso   1.00
C1179  C     0.42056   0.09999   0.84615   0.00000  Uiso   1.00
H1180  H     0.43387   0.07096   0.85911   0.00000  Uiso   1.00
H1181  H     0.38038   0.09916   0.85821   0.00000  Uiso   1.00
H1182  H     0.43486   0.12607   0.85987   0.00000  Uiso   1.00
N1183  N     0.56537   0.22774   0.69709   0.00000  Uiso   1.00
H1184  H     0.60165   0.22281   0.68699   0.00000  Uiso   1.00
C1185  C     0.55223   0.27030   0.69175   0.00000  Uiso   1.00
H1186  H     0.58250   0.29097   0.69307   0.00000  Uiso   1.00
H1187  H     0.51953   0.27740   0.71831   0.00000  Uiso   1.00
H1188  H     0.54620   0.27670   0.65835   0.00000  Uiso   1.00
C1189  C     0.66791   0.08772   0.74559   0.00000  Uiso   1.00
C1190  C     0.99896   0.24552   0.75417   0.00000  Uiso   1.00
C1191  C     0.86573   0.16143   0.54987   0.00000  Uiso   1.00
C1192  C     0.82351   0.21526   0.96042   0.00000  Uiso   1.00
C1193  C     0.91442   0.15688   0.52683   0.00000  Uiso   1.00
C1194  C     0.77752   0.22646   0.98365   0.00000  Uiso   1.00
C1195  C     0.95803   0.02027   0.74803   0.00000  Uiso   1.00
C1196  C     0.70844   0.31252   0.75320   0.00000  Uiso   1.00
C1197  C     0.95500   0.31148   0.76177   0.00000  Uiso   1.00
C1198  C     0.71233   0.02088   0.73783   0.00000  Uiso   1.00
C1199  C     0.99816   0.29023   0.75870   0.00000  Uiso   1.00
C1200  C     0.66888   0.04271   0.74143   0.00000  Uiso   1.00
C1201  C     0.85007   0.13748   0.77581   0.00000  Uiso   1.00
C1202  C     0.81645   0.19521   0.72333   0.00000  Uiso   1.00
C1203  C     0.80040   0.13729   0.77576   0.00000  Uiso   1.00
C1204  C     0.86582   0.19682   0.72473   0.00000  Uiso   1.00
C1205  C     0.97249   0.16795   0.83619   0.00000  Uiso   1.00
C1206  C     0.69425   0.16673   0.66372   0.00000  Uiso   1.00
C1207  C     0.95789   0.17075   0.88576   0.00000  Uiso   1.00
C1208  C     0.71069   0.17274   0.61394   0.00000  Uiso   1.00
C1209  C     0.97986   0.16362   0.95618   0.00000  Uiso   1.00
C1210  C     0.70601   0.21519   0.54741   0.00000  Uiso   1.00
C1211  C     0.99336   0.17335   0.90944   0.00000  Uiso   1.00
C1212  C     0.68323   0.19550   0.58981   0.00000  Uiso   1.00
C1213  C     0.90833   0.17021   0.91074   0.00000  Uiso   1.00
C1214  C     0.75796   0.16132   0.59092   0.00000  Uiso   1.00
C1215  C     0.89648   0.17575   0.95698   0.00000  Uiso   1.00
C1216  C     0.78241   0.18250   0.54911   0.00000  Uiso   1.00
C1217  C     0.93053   0.16473   0.98021   0.00000  Uiso   1.00
C1218  C     0.75549   0.20895   0.52717   0.00000  Uiso   1.00
C1219  C     0.85039   0.18864   0.98107   0.00000  Uiso   1.00
C1220  C     0.83243   0.17683   0.52726   0.00000  Uiso   1.00
Cu1221 Cu    0.71355   0.16667   0.75000   0.00000  Uiso   1.00
Cu1222 Cu    0.95311   0.16666   0.75000   0.00000  Uiso   1.00
H1223  H     0.93923   0.14679   0.54561   0.00000  Uiso   1.00
H1224  H     0.75826   0.24697   0.96607   0.00000  Uiso   1.00
H1225  H     0.85562   0.15571   0.58581   0.00000  Uiso   1.00
H1226  H     0.83851   0.22840   0.92640   0.00000  Uiso   1.00
N1227  N     0.78403   0.16668   0.74999   0.00000  Uiso   1.00
N1228  N     0.88264   0.16666   0.75001   0.00000  Uiso   1.00
O1229  O     0.70625   0.10655   0.75000   0.00000  Uiso   1.00
O1230  O     0.96042   0.22678   0.75000   0.00000  Uiso   1.00
O1231  O     0.96039   0.10654   0.75000   0.00000  Uiso   1.00
O1232  O     0.70628   0.22679   0.74999   0.00000  Uiso   1.00
O1233  O     0.68519   0.16668   0.81491   0.00000  Uiso   1.00
O1234  O     0.98148   0.16666   0.68508   0.00000  Uiso   1.00
O1235  O     0.93933   0.16667   0.81492   0.00000  Uiso   1.00
O1236  O     0.72733   0.16667   0.68508   0.00000  Uiso   1.00
N1237  N     0.77670   0.12377   0.60536   0.00000  Uiso   1.00
H1238  H     0.76540   0.11499   0.63903   0.00000  Uiso   1.00
C1239  C     0.77368   0.08949   0.57912   0.00000  Uiso   1.00
H1240  H     0.79347   0.06310   0.58938   0.00000  Uiso   1.00
H1241  H     0.79058   0.09777   0.54291   0.00000  Uiso   1.00
H1242  H     0.73514   0.07990   0.58459   0.00000  Uiso   1.00
N1243  N     0.87115   0.15872   0.89119   0.00000  Uiso   1.00
H1244  H     0.86026   0.18121   0.87129   0.00000  Uiso   1.00
C1245  C     0.83412   0.12859   0.91646   0.00000  Uiso   1.00
H1246  H     0.82768   0.10556   0.89454   0.00000  Uiso   1.00
H1247  H     0.79937   0.14395   0.93036   0.00000  Uiso   1.00
H1248  H     0.84515   0.11141   0.94401   0.00000  Uiso   1.00
C1249  C     0.96436   0.19507   0.60527   0.00000  Uiso   1.00
N1250  N     0.92244   0.19423   0.61618   0.00000  Uiso   1.00
C1251  C     0.70880   0.18903   0.88737   0.00000  Uiso   1.00
N1252  N     0.74754   0.20225   0.87001   0.00000  Uiso   1.00
N1253  N     0.68225   0.15482   0.97911   0.00000  Uiso   1.00
H1254  H     0.71403   0.17188   0.96659   0.00000  Uiso   1.00
C1255  C     0.69137   0.11141   0.98504   0.00000  Uiso   1.00
H1256  H     0.70749   0.09905   0.95203   0.00000  Uiso   1.00
H1257  H     0.99059   0.09388   0.50266   0.00000  Uiso   1.00
H1258  H     0.71721   0.10710   0.50550   0.00000  Uiso   1.00
N1259  N     0.67912   0.24098   0.52446   0.00000  Uiso   1.00
H1260  H     0.97881   0.22926   0.52525   0.00000  Uiso   1.00
C1261  C     0.67778   0.28352   0.53512   0.00000  Uiso   1.00
H1262  H     0.99105   0.28590   0.57084   0.00000  Uiso   1.00
H1263  H     0.99242   0.30193   0.51383   0.00000  Uiso   1.00
H1264  H     0.71517   0.29656   0.52855   0.00000  Uiso   1.00
C1265  C     0.91796   0.03830   0.73426   0.00000  Uiso   1.00
N1266  N     0.88609   0.05220   0.72265   0.00000  Uiso   1.00
C1267  C     0.74665   0.29486   0.77006   0.00000  Uiso   1.00
N1268  N     0.77663   0.28082   0.78434   0.00000  Uiso   1.00
N1269  N     0.90878   0.29086   0.78080   0.00000  Uiso   1.00
H1270  H     0.87944   0.30561   0.77464   0.00000  Uiso   1.00
C1271  C     0.89869   0.27671   0.82767   0.00000  Uiso   1.00
H1272  H     0.92711   0.25584   0.83350   0.00000  Uiso   1.00
H1273  H     0.89652   0.30349   0.84819   0.00000  Uiso   1.00
H1274  H     0.86344   0.25933   0.83866   0.00000  Uiso   1.00
N1275  N     0.75944   0.03901   0.71528   0.00000  Uiso   1.00
H1276  H     0.76064   0.06966   0.70470   0.00000  Uiso   1.00
C1277  C     0.78818   0.01709   0.67856   0.00000  Uiso   1.00
H1278  H     0.76757   0.01285   0.65386   0.00000  Uiso   1.00
H1279  H     0.79856   0.32000   0.69053   0.00000  Uiso   1.00
H1280  H     0.82225   0.03496   0.66154   0.00000  Uiso   1.00
C1281  C     0.86640   0.10595   0.80270   0.00000  Uiso   1.00
N1282  N     0.87949   0.08030   0.82399   0.00000  Uiso   1.00
C1283  C     0.80111   0.22098   0.69043   0.00000  Uiso   1.00
N1284  N     0.78896   0.24153   0.66382   0.00000  Uiso   1.00
N1285  N     0.76894   0.10348   0.79772   0.00000  Uiso   1.00
H1286  H     0.77954   0.07583   0.78439   0.00000  Uiso   1.00
C1287  C     0.75389   0.09999   0.84615   0.00000  Uiso   1.00
H1288  H     0.76720   0.07096   0.85911   0.00000  Uiso   1.00
H1289  H     0.71372   0.09916   0.85821   0.00000  Uiso   1.00
H1290  H     0.76820   0.12607   0.85987   0.00000  Uiso   1.00
N1291  N     0.89870   0.22774   0.69709   0.00000  Uiso   1.00
H1292  H     0.93498   0.22281   0.68699   0.00000  Uiso   1.00
C1293  C     0.88557   0.27030   0.69175   0.00000  Uiso   1.00
H1294  H     0.91584   0.29097   0.69307   0.00000  Uiso   1.00
H1295  H     0.85286   0.27740   0.71831   0.00000  Uiso   1.00
H1296  H     0.87954   0.27670   0.65835   0.00000  Uiso   1.00
C1297  C     0.00124   0.42105   0.74559   0.00000  Uiso   1.00
C1298  C     0.33229   0.57885   0.75417   0.00000  Uiso   1.00
C1299  C     0.19906   0.49477   0.54987   0.00000  Uiso   1.00
C1300  C     0.15684   0.54859   0.96042   0.00000  Uiso   1.00
C1301  C     0.24775   0.49021   0.52683   0.00000  Uiso   1.00
C1302  C     0.11085   0.55979   0.98365   0.00000  Uiso   1.00
C1303  C     0.29136   0.35360   0.74803   0.00000  Uiso   1.00
C1304  C     0.04177   0.64585   0.75320   0.00000  Uiso   1.00
C1305  C     0.28833   0.64481   0.76177   0.00000  Uiso   1.00
C1306  C     0.04567   0.35421   0.73783   0.00000  Uiso   1.00
C1307  C     0.33150   0.62357   0.75870   0.00000  Uiso   1.00
C1308  C     0.00222   0.37605   0.74143   0.00000  Uiso   1.00
C1309  C     0.18341   0.47082   0.77581   0.00000  Uiso   1.00
C1310  C     0.14979   0.52854   0.72333   0.00000  Uiso   1.00
C1311  C     0.13373   0.47062   0.77576   0.00000  Uiso   1.00
C1312  C     0.19915   0.53015   0.72473   0.00000  Uiso   1.00
C1313  C     0.30583   0.50128   0.83619   0.00000  Uiso   1.00
C1314  C     0.02758   0.50007   0.66372   0.00000  Uiso   1.00
C1315  C     0.29122   0.50409   0.88576   0.00000  Uiso   1.00
C1316  C     0.04402   0.50607   0.61394   0.00000  Uiso   1.00
C1317  C     0.31319   0.49695   0.95618   0.00000  Uiso   1.00
C1318  C     0.03934   0.54852   0.54741   0.00000  Uiso   1.00
C1319  C     0.32669   0.50668   0.90944   0.00000  Uiso   1.00
C1320  C     0.01656   0.52883   0.58981   0.00000  Uiso   1.00
C1321  C     0.24166   0.50354   0.91074   0.00000  Uiso   1.00
C1322  C     0.09129   0.49466   0.59092   0.00000  Uiso   1.00
C1323  C     0.22982   0.50908   0.95698   0.00000  Uiso   1.00
C1324  C     0.11574   0.51583   0.54911   0.00000  Uiso   1.00
C1325  C     0.26386   0.49806   0.98021   0.00000  Uiso   1.00
C1326  C     0.08883   0.54228   0.52717   0.00000  Uiso   1.00
C1327  C     0.18372   0.52197   0.98107   0.00000  Uiso   1.00
C1328  C     0.16577   0.51016   0.52726   0.00000  Uiso   1.00
Cu1329 Cu    0.04689   0.50001   0.75000   0.00000  Uiso   1.00
Cu1330 Cu    0.28645   0.49999   0.75000   0.00000  Uiso   1.00
H1331  H     0.27257   0.48012   0.54561   0.00000  Uiso   1.00
H1332  H     0.09159   0.58031   0.96607   0.00000  Uiso   1.00
H1333  H     0.18895   0.48905   0.58581   0.00000  Uiso   1.00
H1334  H     0.17185   0.56173   0.92640   0.00000  Uiso   1.00
N1335  N     0.11736   0.50001   0.74999   0.00000  Uiso   1.00
N1336  N     0.21597   0.49999   0.75001   0.00000  Uiso   1.00
O1337  O     0.03958   0.43989   0.75000   0.00000  Uiso   1.00
O1338  O     0.29375   0.56011   0.75000   0.00000  Uiso   1.00
O1339  O     0.29372   0.43988   0.75000   0.00000  Uiso   1.00
O1340  O     0.03961   0.56012   0.74999   0.00000  Uiso   1.00
O1341  O     0.01852   0.50001   0.81491   0.00000  Uiso   1.00
O1342  O     0.31481   0.49999   0.68508   0.00000  Uiso   1.00
O1343  O     0.27267   0.50000   0.81492   0.00000  Uiso   1.00
O1344  O     0.06067   0.50000   0.68508   0.00000  Uiso   1.00
N1345  N     0.11003   0.45710   0.60536   0.00000  Uiso   1.00
H1346  H     0.09873   0.44832   0.63903   0.00000  Uiso   1.00
C1347  C     0.10701   0.42283   0.57912   0.00000  Uiso   1.00
H1348  H     0.12680   0.39643   0.58938   0.00000  Uiso   1.00
H1349  H     0.12392   0.43110   0.54291   0.00000  Uiso   1.00
H1350  H     0.06847   0.41323   0.58459   0.00000  Uiso   1.00
N1351  N     0.20448   0.49205   0.89119   0.00000  Uiso   1.00
H1352  H     0.19359   0.51454   0.87129   0.00000  Uiso   1.00
C1353  C     0.16745   0.46192   0.91646   0.00000  Uiso   1.00
H1354  H     0.16102   0.43889   0.89454   0.00000  Uiso   1.00
H1355  H     0.13270   0.47728   0.93036   0.00000  Uiso   1.00
H1356  H     0.17849   0.44474   0.94401   0.00000  Uiso   1.00
C1357  C     0.29769   0.52840   0.60527   0.00000  Uiso   1.00
N1358  N     0.25577   0.52756   0.61618   0.00000  Uiso   1.00
C1359  C     0.04213   0.52236   0.88737   0.00000  Uiso   1.00
N1360  N     0.08088   0.53558   0.87001   0.00000  Uiso   1.00
N1361  N     0.01558   0.48815   0.97911   0.00000  Uiso   1.00
H1362  H     0.04736   0.50521   0.96659   0.00000  Uiso   1.00
C1363  C     0.02470   0.44474   0.98504   0.00000  Uiso   1.00
H1364  H     0.04082   0.43239   0.95203   0.00000  Uiso   1.00
H1365  H     0.32392   0.42721   0.50266   0.00000  Uiso   1.00
H1366  H     0.05055   0.44044   0.50550   0.00000  Uiso   1.00
N1367  N     0.01246   0.57431   0.52446   0.00000  Uiso   1.00
H1368  H     0.31214   0.56259   0.52525   0.00000  Uiso   1.00
C1369  C     0.01111   0.61686   0.53512   0.00000  Uiso   1.00
H1370  H     0.32438   0.61923   0.57084   0.00000  Uiso   1.00
H1371  H     0.32575   0.63526   0.51383   0.00000  Uiso   1.00
H1372  H     0.04850   0.62989   0.52855   0.00000  Uiso   1.00
C1373  C     0.25129   0.37164   0.73426   0.00000  Uiso   1.00
N1374  N     0.21943   0.38553   0.72265   0.00000  Uiso   1.00
C1375  C     0.07998   0.62819   0.77006   0.00000  Uiso   1.00
N1376  N     0.10997   0.61415   0.78434   0.00000  Uiso   1.00
N1377  N     0.24211   0.62420   0.78080   0.00000  Uiso   1.00
H1378  H     0.21277   0.63894   0.77464   0.00000  Uiso   1.00
C1379  C     0.23203   0.61005   0.82767   0.00000  Uiso   1.00
H1380  H     0.26045   0.58917   0.83350   0.00000  Uiso   1.00
H1381  H     0.22985   0.63682   0.84819   0.00000  Uiso   1.00
H1382  H     0.19678   0.59267   0.83866   0.00000  Uiso   1.00
N1383  N     0.09278   0.37234   0.71528   0.00000  Uiso   1.00
H1384  H     0.09397   0.40299   0.70470   0.00000  Uiso   1.00
C1385  C     0.12151   0.35042   0.67856   0.00000  Uiso   1.00
H1386  H     0.10090   0.34619   0.65386   0.00000  Uiso   1.00
H1387  H     0.13189   0.65334   0.69053   0.00000  Uiso   1.00
H1388  H     0.15558   0.36829   0.66154   0.00000  Uiso   1.00
C1389  C     0.19973   0.43929   0.80270   0.00000  Uiso   1.00
N1390  N     0.21283   0.41363   0.82399   0.00000  Uiso   1.00
C1391  C     0.13444   0.55432   0.69043   0.00000  Uiso   1.00
N1392  N     0.12230   0.57486   0.66382   0.00000  Uiso   1.00
N1393  N     0.10228   0.43681   0.79772   0.00000  Uiso   1.00
H1394  H     0.11287   0.40917   0.78439   0.00000  Uiso   1.00
C1395  C     0.08723   0.43332   0.84615   0.00000  Uiso   1.00
H1396  H     0.10053   0.40429   0.85911   0.00000  Uiso   1.00
H1397  H     0.04705   0.43249   0.85821   0.00000  Uiso   1.00
H1398  H     0.10153   0.45941   0.85987   0.00000  Uiso   1.00
N1399  N     0.23204   0.56108   0.69709   0.00000  Uiso   1.00
H1400  H     0.26832   0.55614   0.68699   0.00000  Uiso   1.00
C1401  C     0.21890   0.60364   0.69175   0.00000  Uiso   1.00
H1402  H     0.24917   0.62430   0.69307   0.00000  Uiso   1.00
H1403  H     0.18619   0.61073   0.71831   0.00000  Uiso   1.00
H1404  H     0.21287   0.61004   0.65835   0.00000  Uiso   1.00
C1405  C     0.33457   0.42105   0.74559   0.00000  Uiso   1.00
C1406  C     0.66562   0.57885   0.75417   0.00000  Uiso   1.00
C1407  C     0.53239   0.49477   0.54987   0.00000  Uiso   1.00
C1408  C     0.49018   0.54859   0.96042   0.00000  Uiso   1.00
C1409  C     0.58109   0.49021   0.52683   0.00000  Uiso   1.00
C1410  C     0.44419   0.55979   0.98365   0.00000  Uiso   1.00
C1411  C     0.62470   0.35360   0.74803   0.00000  Uiso   1.00
C1412  C     0.37510   0.64585   0.75320   0.00000  Uiso   1.00
C1413  C     0.62166   0.64481   0.76177   0.00000  Uiso   1.00
C1414  C     0.37900   0.35421   0.73783   0.00000  Uiso   1.00
C1415  C     0.66483   0.62357   0.75870   0.00000  Uiso   1.00
C1416  C     0.33555   0.37605   0.74143   0.00000  Uiso   1.00
C1417  C     0.51674   0.47082   0.77581   0.00000  Uiso   1.00
C1418  C     0.48312   0.52854   0.72333   0.00000  Uiso   1.00
C1419  C     0.46706   0.47062   0.77576   0.00000  Uiso   1.00
C1420  C     0.53248   0.53015   0.72473   0.00000  Uiso   1.00
C1421  C     0.63916   0.50128   0.83619   0.00000  Uiso   1.00
C1422  C     0.36092   0.50007   0.66372   0.00000  Uiso   1.00
C1423  C     0.62455   0.50409   0.88576   0.00000  Uiso   1.00
C1424  C     0.37736   0.50607   0.61394   0.00000  Uiso   1.00
C1425  C     0.64653   0.49695   0.95618   0.00000  Uiso   1.00
C1426  C     0.37267   0.54852   0.54741   0.00000  Uiso   1.00
C1427  C     0.66002   0.50668   0.90944   0.00000  Uiso   1.00
C1428  C     0.34990   0.52883   0.58981   0.00000  Uiso   1.00
C1429  C     0.57500   0.50354   0.91074   0.00000  Uiso   1.00
C1430  C     0.42462   0.49466   0.59092   0.00000  Uiso   1.00
C1431  C     0.56315   0.50908   0.95698   0.00000  Uiso   1.00
C1432  C     0.44908   0.51583   0.54911   0.00000  Uiso   1.00
C1433  C     0.59720   0.49806   0.98021   0.00000  Uiso   1.00
C1434  C     0.42216   0.54228   0.52717   0.00000  Uiso   1.00
C1435  C     0.51705   0.52197   0.98107   0.00000  Uiso   1.00
C1436  C     0.49910   0.51016   0.52726   0.00000  Uiso   1.00
Cu1437 Cu    0.38022   0.50001   0.75000   0.00000  Uiso   1.00
Cu1438 Cu    0.61978   0.49999   0.75000   0.00000  Uiso   1.00
H1439  H     0.60590   0.48012   0.54561   0.00000  Uiso   1.00
H1440  H     0.42492   0.58031   0.96607   0.00000  Uiso   1.00
H1441  H     0.52228   0.48905   0.58581   0.00000  Uiso   1.00
H1442  H     0.50518   0.56173   0.92640   0.00000  Uiso   1.00
N1443  N     0.45069   0.50001   0.74999   0.00000  Uiso   1.00
N1444  N     0.54931   0.49999   0.75001   0.00000  Uiso   1.00
O1445  O     0.37291   0.43989   0.75000   0.00000  Uiso   1.00
O1446  O     0.62709   0.56011   0.75000   0.00000  Uiso   1.00
O1447  O     0.62706   0.43988   0.75000   0.00000  Uiso   1.00
O1448  O     0.37294   0.56012   0.74999   0.00000  Uiso   1.00
O1449  O     0.35186   0.50001   0.81491   0.00000  Uiso   1.00
O1450  O     0.64814   0.49999   0.68508   0.00000  Uiso   1.00
O1451  O     0.60600   0.50000   0.81492   0.00000  Uiso   1.00
O1452  O     0.39400   0.50000   0.68508   0.00000  Uiso   1.00
N1453  N     0.44336   0.45710   0.60536   0.00000  Uiso   1.00
H1454  H     0.43206   0.44832   0.63903   0.00000  Uiso   1.00
C1455  C     0.44034   0.42283   0.57912   0.00000  Uiso   1.00
H1456  H     0.46014   0.39643   0.58938   0.00000  Uiso   1.00
H1457  H     0.45725   0.43110   0.54291   0.00000  Uiso   1.00
H1458  H     0.40181   0.41323   0.58459   0.00000  Uiso   1.00
N1459  N     0.53782   0.49205   0.89119   0.00000  Uiso   1.00
H1460  H     0.52693   0.51454   0.87129   0.00000  Uiso   1.00
C1461  C     0.50078   0.46192   0.91646   0.00000  Uiso   1.00
H1462  H     0.49435   0.43889   0.89454   0.00000  Uiso   1.00
H1463  H     0.46604   0.47728   0.93036   0.00000  Uiso   1.00
H1464  H     0.51182   0.44474   0.94401   0.00000  Uiso   1.00
C1465  C     0.63102   0.52840   0.60527   0.00000  Uiso   1.00
N1466  N     0.58911   0.52756   0.61618   0.00000  Uiso   1.00
C1467  C     0.37546   0.52236   0.88737   0.00000  Uiso   1.00
N1468  N     0.41421   0.53558   0.87001   0.00000  Uiso   1.00
N1469  N     0.34891   0.48815   0.97911   0.00000  Uiso   1.00
H1470  H     0.38069   0.50521   0.96659   0.00000  Uiso   1.00
C1471  C     0.35804   0.44474   0.98504   0.00000  Uiso   1.00
H1472  H     0.37415   0.43239   0.95203   0.00000  Uiso   1.00
H1473  H     0.65726   0.42721   0.50266   0.00000  Uiso   1.00
H1474  H     0.38388   0.44044   0.50550   0.00000  Uiso   1.00
N1475  N     0.34579   0.57431   0.52446   0.00000  Uiso   1.00
H1476  H     0.64547   0.56259   0.52525   0.00000  Uiso   1.00
C1477  C     0.34444   0.61686   0.53512   0.00000  Uiso   1.00
H1478  H     0.65771   0.61923   0.57084   0.00000  Uiso   1.00
H1479  H     0.65909   0.63526   0.51383   0.00000  Uiso   1.00
H1480  H     0.38184   0.62989   0.52855   0.00000  Uiso   1.00
C1481  C     0.58463   0.37164   0.73426   0.00000  Uiso   1.00
N1482  N     0.55276   0.38553   0.72265   0.00000  Uiso   1.00
C1483  C     0.41332   0.62819   0.77006   0.00000  Uiso   1.00
N1484  N     0.44330   0.61415   0.78434   0.00000  Uiso   1.00
N1485  N     0.57544   0.62420   0.78080   0.00000  Uiso   1.00
H1486  H     0.54610   0.63894   0.77464   0.00000  Uiso   1.00
C1487  C     0.56536   0.61005   0.82767   0.00000  Uiso   1.00
H1488  H     0.59378   0.58917   0.83350   0.00000  Uiso   1.00
H1489  H     0.56318   0.63682   0.84819   0.00000  Uiso   1.00
H1490  H     0.53011   0.59267   0.83866   0.00000  Uiso   1.00
N1491  N     0.42611   0.37234   0.71528   0.00000  Uiso   1.00
H1492  H     0.42730   0.40299   0.70470   0.00000  Uiso   1.00
C1493  C     0.45484   0.35042   0.67856   0.00000  Uiso   1.00
H1494  H     0.43424   0.34619   0.65386   0.00000  Uiso   1.00
H1495  H     0.46522   0.65334   0.69053   0.00000  Uiso   1.00
H1496  H     0.48891   0.36829   0.66154   0.00000  Uiso   1.00
C1497  C     0.53306   0.43929   0.80270   0.00000  Uiso   1.00
N1498  N     0.54616   0.41363   0.82399   0.00000  Uiso   1.00
C1499  C     0.46778   0.55432   0.69043   0.00000  Uiso   1.00
N1500  N     0.45563   0.57486   0.66382   0.00000  Uiso   1.00
N1501  N     0.43561   0.43681   0.79772   0.00000  Uiso   1.00
H1502  H     0.44621   0.40917   0.78439   0.00000  Uiso   1.00
C1503  C     0.42056   0.43332   0.84615   0.00000  Uiso   1.00
H1504  H     0.43387   0.40429   0.85911   0.00000  Uiso   1.00
H1505  H     0.38038   0.43249   0.85821   0.00000  Uiso   1.00
H1506  H     0.43486   0.45941   0.85987   0.00000  Uiso   1.00
N1507  N     0.56537   0.56108   0.69709   0.00000  Uiso   1.00
H1508  H     0.60165   0.55614   0.68699   0.00000  Uiso   1.00
C1509  C     0.55223   0.60364   0.69175   0.00000  Uiso   1.00
H1510  H     0.58250   0.62430   0.69307   0.00000  Uiso   1.00
H1511  H     0.51953   0.61073   0.71831   0.00000  Uiso   1.00
H1512  H     0.54620   0.61004   0.65835   0.00000  Uiso   1.00
C1513  C     0.66791   0.42105   0.74559   0.00000  Uiso   1.00
C1514  C     0.99896   0.57885   0.75417   0.00000  Uiso   1.00
C1515  C     0.86573   0.49477   0.54987   0.00000  Uiso   1.00
C1516  C     0.82351   0.54859   0.96042   0.00000  Uiso   1.00
C1517  C     0.91442   0.49021   0.52683   0.00000  Uiso   1.00
C1518  C     0.77752   0.55979   0.98365   0.00000  Uiso   1.00
C1519  C     0.95803   0.35360   0.74803   0.00000  Uiso   1.00
C1520  C     0.70844   0.64585   0.75320   0.00000  Uiso   1.00
C1521  C     0.95500   0.64481   0.76177   0.00000  Uiso   1.00
C1522  C     0.71233   0.35421   0.73783   0.00000  Uiso   1.00
C1523  C     0.99816   0.62357   0.75870   0.00000  Uiso   1.00
C1524  C     0.66888   0.37605   0.74143   0.00000  Uiso   1.00
C1525  C     0.85007   0.47082   0.77581   0.00000  Uiso   1.00
C1526  C     0.81645   0.52854   0.72333   0.00000  Uiso   1.00
C1527  C     0.80040   0.47062   0.77576   0.00000  Uiso   1.00
C1528  C     0.86582   0.53015   0.72473   0.00000  Uiso   1.00
C1529  C     0.97249   0.50128   0.83619   0.00000  Uiso   1.00
C1530  C     0.69425   0.50007   0.66372   0.00000  Uiso   1.00
C1531  C     0.95789   0.50409   0.88576   0.00000  Uiso   1.00
C1532  C     0.71069   0.50607   0.61394   0.00000  Uiso   1.00
C1533  C     0.97986   0.49695   0.95618   0.00000  Uiso   1.00
C1534  C     0.70601   0.54852   0.54741   0.00000  Uiso   1.00
C1535  C     0.99336   0.50668   0.90944   0.00000  Uiso   1.00
C1536  C     0.68323   0.52883   0.58981   0.00000  Uiso   1.00
C1537  C     0.90833   0.50354   0.91074   0.00000  Uiso   1.00
C1538  C     0.75796   0.49466   0.59092   0.00000  Uiso   1.00
C1539  C     0.89648   0.50908   0.95698   0.00000  Uiso   1.00
C1540  C     0.78241   0.51583   0.54911   0.00000  Uiso   1.00
C1541  C     0.93053   0.49806   0.98021   0.00000  Uiso   1.00
C1542  C     0.75549   0.54228   0.52717   0.00000  Uiso   1.00
C1543  C     0.85039   0.52197   0.98107   0.00000  Uiso   1.00
C1544  C     0.83243   0.51016   0.52726   0.00000  Uiso   1.00
Cu1545 Cu    0.71355   0.50001   0.75000   0.00000  Uiso   1.00
Cu1546 Cu    0.95311   0.49999   0.75000   0.00000  Uiso   1.00
H1547  H     0.93923   0.48012   0.54561   0.00000  Uiso   1.00
H1548  H     0.75826   0.58031   0.96607   0.00000  Uiso   1.00
H1549  H     0.85562   0.48905   0.58581   0.00000  Uiso   1.00
H1550  H     0.83851   0.56173   0.92640   0.00000  Uiso   1.00
N1551  N     0.78403   0.50001   0.74999   0.00000  Uiso   1.00
N1552  N     0.88264   0.49999   0.75001   0.00000  Uiso   1.00
O1553  O     0.70625   0.43989   0.75000   0.00000  Uiso   1.00
O1554  O     0.96042   0.56011   0.75000   0.00000  Uiso   1.00
O1555  O     0.96039   0.43988   0.75000   0.00000  Uiso   1.00
O1556  O     0.70628   0.56012   0.74999   0.00000  Uiso   1.00
O1557  O     0.68519   0.50001   0.81491   0.00000  Uiso   1.00
O1558  O     0.98148   0.49999   0.68508   0.00000  Uiso   1.00
O1559  O     0.93933   0.50000   0.81492   0.00000  Uiso   1.00
O1560  O     0.72733   0.50000   0.68508   0.00000  Uiso   1.00
N1561  N     0.77670   0.45710   0.60536   0.00000  Uiso   1.00
H1562  H     0.76540   0.44832   0.63903   0.00000  Uiso   1.00
C1563  C     0.77368   0.42283   0.57912   0.00000  Uiso   1.00
H1564  H     0.79347   0.39643   0.58938   0.00000  Uiso   1.00
H1565  H     0.79058   0.43110   0.54291   0.00000  Uiso   1.00
H1566  H     0.73514   0.41323   0.58459   0.00000  Uiso   1.00
N1567  N     0.87115   0.49205   0.89119   0.00000  Uiso   1.00
H1568  H     0.86026   0.51454   0.87129   0.00000  Uiso   1.00
C1569  C     0.83412   0.46192   0.91646   0.00000  Uiso   1.00
H1570  H     0.82768   0.43889   0.89454   0.00000  Uiso   1.00
H1571  H     0.79937   0.47728   0.93036   0.00000  Uiso   1.00
H1572  H     0.84515   0.44474   0.94401   0.00000  Uiso   1.00
C1573  C     0.96436   0.52840   0.60527   0.00000  Uiso   1.00
N1574  N     0.92244   0.52756   0.61618   0.00000  Uiso   1.00
C1575  C     0.70880   0.52236   0.88737   0.00000  Uiso   1.00
N1576  N     0.74754   0.53558   0.87001   0.00000  Uiso   1.00
N1577  N     0.68225   0.48815   0.97911   0.00000  Uiso   1.00
H1578  H     0.71403   0.50521   0.96659   0.00000  Uiso   1.00
C1579  C     0.69137   0.44474   0.98504   0.00000  Uiso   1.00
H1580  H     0.70749   0.43239   0.95203   0.00000  Uiso   1.00
H1581  H     0.99059   0.42721   0.50266   0.00000  Uiso   1.00
H1582  H     0.71721   0.44044   0.50550   0.00000  Uiso   1.00
N1583  N     0.67912   0.57431   0.52446   0.00000  Uiso   1.00
H1584  H     0.97881   0.56259   0.52525   0.00000  Uiso   1.00
C1585  C     0.67778   0.61686   0.53512   0.00000  Uiso   1.00
H1586  H     0.99105   0.61923   0.57084   0.00000  Uiso   1.00
H1587  H     0.99242   0.63526   0.51383   0.00000  Uiso   1.00
H1588  H     0.71517   0.62989   0.52855   0.00000  Uiso   1.00
C1589  C     0.91796   0.37164   0.73426   0.00000  Uiso   1.00
N1590  N     0.88609   0.38553   0.72265   0.00000  Uiso   1.00
C1591  C     0.74665   0.62819   0.77006   0.00000  Uiso   1.00
N1592  N     0.77663   0.61415   0.78434   0.00000  Uiso   1.00
N1593  N     0.90878   0.62420   0.78080   0.00000  Uiso   1.00
H1594  H     0.87944   0.63894   0.77464   0.00000  Uiso   1.00
C1595  C     0.89869   0.61005   0.82767   0.00000  Uiso   1.00
H1596  H     0.92711   0.58917   0.83350   0.00000  Uiso   1.00
H1597  H     0.89652   0.63682   0.84819   0.00000  Uiso   1.00
H1598  H     0.86344   0.59267   0.83866   0.00000  Uiso   1.00
N1599  N     0.75944   0.37234   0.71528   0.00000  Uiso   1.00
H1600  H     0.76064   0.40299   0.70470   0.00000  Uiso   1.00
C1601  C     0.78818   0.35042   0.67856   0.00000  Uiso   1.00
H1602  H     0.76757   0.34619   0.65386   0.00000  Uiso   1.00
H1603  H     0.79856   0.65334   0.69053   0.00000  Uiso   1.00
H1604  H     0.82225   0.36829   0.66154   0.00000  Uiso   1.00
C1605  C     0.86640   0.43929   0.80270   0.00000  Uiso   1.00
N1606  N     0.87949   0.41363   0.82399   0.00000  Uiso   1.00
C1607  C     0.80111   0.55432   0.69043   0.00000  Uiso   1.00
N1608  N     0.78896   0.57486   0.66382   0.00000  Uiso   1.00
N1609  N     0.76894   0.43681   0.79772   0.00000  Uiso   1.00
H1610  H     0.77954   0.40917   0.78439   0.00000  Uiso   1.00
C1611  C     0.75389   0.43332   0.84615   0.00000  Uiso   1.00
H1612  H     0.76720   0.40429   0.85911   0.00000  Uiso   1.00
H1613  H     0.71372   0.43249   0.85821   0.00000  Uiso   1.00
H1614  H     0.76820   0.45941   0.85987   0.00000  Uiso   1.00
N1615  N     0.89870   0.56108   0.69709   0.00000  Uiso   1.00
H1616  H     0.93498   0.55614   0.68699   0.00000  Uiso   1.00
C1617  C     0.88557   0.60364   0.69175   0.00000  Uiso   1.00
H1618  H     0.91584   0.62430   0.69307   0.00000  Uiso   1.00
H1619  H     0.85286   0.61073   0.71831   0.00000  Uiso   1.00
H1620  H     0.87954   0.61004   0.65835   0.00000  Uiso   1.00
C1621  C     0.00124   0.75438   0.74559   0.00000  Uiso   1.00
C1622  C     0.33229   0.91219   0.75417   0.00000  Uiso   1.00
C1623  C     0.19906   0.82810   0.54987   0.00000  Uiso   1.00
C1624  C     0.15684   0.88193   0.96042   0.00000  Uiso   1.00
C1625  C     0.24775   0.82354   0.52683   0.00000  Uiso   1.00
C1626  C     0.11085   0.89313   0.98365   0.00000  Uiso   1.00
C1627  C     0.29136   0.68693   0.74803   0.00000  Uiso   1.00
C1628  C     0.04177   0.97919   0.75320   0.00000  Uiso   1.00
C1629  C     0.28833   0.97814   0.76177   0.00000  Uiso   1.00
C1630  C     0.04567   0.68754   0.73783   0.00000  Uiso   1.00
C1631  C     0.33150   0.95690   0.75870   0.00000  Uiso   1.00
C1632  C     0.00222   0.70938   0.74143   0.00000  Uiso   1.00
C1633  C     0.18341   0.80415   0.77581   0.00000  Uiso   1.00
C1634  C     0.14979   0.86188   0.72333   0.00000  Uiso   1.00
C1635  C     0.13373   0.80396   0.77576   0.00000  Uiso   1.00
C1636  C     0.19915   0.86348   0.72473   0.00000  Uiso   1.00
C1637  C     0.30583   0.83462   0.83619   0.00000  Uiso   1.00
C1638  C     0.02758   0.83340   0.66372   0.00000  Uiso   1.00
C1639  C     0.29122   0.83742   0.88576   0.00000  Uiso   1.00
C1640  C     0.04402   0.83941   0.61394   0.00000  Uiso   1.00
C1641  C     0.31319   0.83028   0.95618   0.00000  Uiso   1.00
C1642  C     0.03934   0.88186   0.54741   0.00000  Uiso   1.00
C1643  C     0.32669   0.84002   0.90944   0.00000  Uiso   1.00
C1644  C     0.01656   0.86216   0.58981   0.00000  Uiso   1.00
C1645  C     0.24166   0.83688   0.91074   0.00000  Uiso   1.00
C1646  C     0.09129   0.82799   0.59092   0.00000  Uiso   1.00
C1647  C     0.22982   0.84242   0.95698   0.00000  Uiso   1.00
C1648  C     0.11574   0.84916   0.54911   0.00000  Uiso   1.00
C1649  C     0.26386   0.83140   0.98021   0.00000  Uiso   1.00
C1650  C     0.08883   0.87561   0.52717   0.00000  Uiso   1.00
C1651  C     0.18372   0.85531   0.98107   0.00000  Uiso   1.00
C1652  C     0.16577   0.84349   0.52726   0.00000  Uiso   1.00
Cu1653 Cu    0.04689   0.83334   0.75000   0.00000  Uiso   1.00
Cu1654 Cu    0.28645   0.83333   0.75000   0.00000  Uiso   1.00
H1655  H     0.27257   0.81345   0.54561   0.00000  Uiso   1.00
H1656  H     0.09159   0.91364   0.96607   0.00000  Uiso   1.00
H1657  H     0.18895   0.82238   0.58581   0.00000  Uiso   1.00
H1658  H     0.17185   0.89506   0.92640   0.00000  Uiso   1.00
N1659  N     0.11736   0.83334   0.74999   0.00000  Uiso   1.00
N1660  N     0.21597   0.83332   0.75001   0.00000  Uiso   1.00
O1661  O     0.03958   0.77322   0.75000   0.00000  Uiso   1.00
O1662  O     0.29375   0.89345   0.75000   0.00000  Uiso   1.00
O1663  O     0.29372   0.77321   0.75000   0.00000  Uiso   1.00
O1664  O     0.03961   0.89346   0.74999   0.00000  Uiso   1.00
O1665  O     0.01852   0.83334   0.81491   0.00000  Uiso   1.00
O1666  O     0.31481   0.83332   0.68508   0.00000  Uiso   1.00
O1667  O     0.27267   0.83333   0.81492   0.00000  Uiso   1.00
O1668  O     0.06067   0.83333   0.68508   0.00000  Uiso   1.00
N1669  N     0.11003   0.79043   0.60536   0.00000  Uiso   1.00
H1670  H     0.09873   0.78166   0.63903   0.00000  Uiso   1.00
C1671  C     0.10701   0.75616   0.57912   0.00000  Uiso   1.00
H1672  H     0.12680   0.72976   0.58938   0.00000  Uiso   1.00
H1673  H     0.12392   0.76444   0.54291   0.00000  Uiso   1.00
H1674  H     0.06847   0.74656   0.58459   0.00000  Uiso   1.00
N1675  N     0.20448   0.82538   0.89119   0.00000  Uiso   1.00
H1676  H     0.19359   0.84787   0.87129   0.00000  Uiso   1.00
C1677  C     0.16745   0.79526   0.91646   0.00000  Uiso   1.00
H1678  H     0.16102   0.77222   0.89454   0.00000  Uiso   1.00
H1679  H     0.13270   0.81061   0.93036   0.00000  Uiso   1.00
H1680  H     0.17849   0.77808   0.94401   0.00000  Uiso   1.00
C1681  C     0.29769   0.86174   0.60527   0.00000  Uiso   1.00
N1682  N     0.25577   0.86090   0.61618   0.00000  Uiso   1.00
C1683  C     0.04213   0.85569   0.88737   0.00000  Uiso   1.00
N1684  N     0.08088   0.86891   0.87001   0.00000  Uiso   1.00
N1685  N     0.01558   0.82148   0.97911   0.00000  Uiso   1.00
H1686  H     0.04736   0.83854   0.96659   0.00000  Uiso   1.00
C1687  C     0.02470   0.77807   0.98504   0.00000  Uiso   1.00
H1688  H     0.04082   0.76572   0.95203   0.00000  Uiso   1.00
H1689  H     0.32392   0.76055   0.50266   0.00000  Uiso   1.00
H1690  H     0.05055   0.77377   0.50550   0.00000  Uiso   1.00
N1691  N     0.01246   0.90764   0.52446   0.00000  Uiso   1.00
H1692  H     0.31214   0.89593   0.52525   0.00000  Uiso   1.00
C1693  C     0.01111   0.95019   0.53512   0.00000  Uiso   1.00
H1694  H     0.32438   0.95256   0.57084   0.00000  Uiso   1.00
H1695  H     0.32575   0.96860   0.51383   0.00000  Uiso   1.00
H1696  H     0.04850   0.96323   0.52855   0.00000  Uiso   1.00
C1697  C     0.25129   0.70497   0.73426   0.00000  Uiso   1.00
N1698  N     0.21943   0.71887   0.72265   0.00000  Uiso   1.00
C1699  C     0.07998   0.96153   0.77006   0.00000  Uiso   1.00
N1700  N     0.10997   0.94748   0.78434   0.00000  Uiso   1.00
N1701  N     0.24211   0.95753   0.78080   0.00000  Uiso   1.00
H1702  H     0.21277   0.97228   0.77464   0.00000  Uiso   1.00
C1703  C     0.23203   0.94338   0.82767   0.00000  Uiso   1.00
H1704  H     0.26045   0.92251   0.83350   0.00000  Uiso   1.00
H1705  H     0.22985   0.97015   0.84819   0.00000  Uiso   1.00
H1706  H     0.19678   0.92600   0.83866   0.00000  Uiso   1.00
N1707  N     0.09278   0.70567   0.71528   0.00000  Uiso   1.00
H1708  H     0.09397   0.73633   0.70470   0.00000  Uiso   1.00
C1709  C     0.12151   0.68375   0.67856   0.00000  Uiso   1.00
H1710  H     0.10090   0.67952   0.65386   0.00000  Uiso   1.00
H1711  H     0.13189   0.98667   0.69053   0.00000  Uiso   1.00
H1712  H     0.15558   0.70162   0.66154   0.00000  Uiso   1.00
C1713  C     0.19973   0.77262   0.80270   0.00000  Uiso   1.00
N1714  N     0.21283   0.74697   0.82399   0.00000  Uiso   1.00
C1715  C     0.13444   0.88765   0.69043   0.00000  Uiso   1.00
N1716  N     0.12230   0.90820   0.66382   0.00000  Uiso   1.00
N1717  N     0.10228   0.77015   0.79772   0.00000  Uiso   1.00
H1718  H     0.11287   0.74250   0.78439   0.00000  Uiso   1.00
C1719  C     0.08723   0.76665   0.84615   0.00000  Uiso   1.00
H1720  H     0.10053   0.73763   0.85911   0.00000  Uiso   1.00
H1721  H     0.04705   0.76582   0.85821   0.00000  Uiso   1.00
H1722  H     0.10153   0.79274   0.85987   0.00000  Uiso   1.00
N1723  N     0.23204   0.89441   0.69709   0.00000  Uiso   1.00
H1724  H     0.26832   0.88948   0.68699   0.00000  Uiso   1.00
C1725  C     0.21890   0.93697   0.69175   0.00000  Uiso   1.00
H1726  H     0.24917   0.95764   0.69307   0.00000  Uiso   1.00
H1727  H     0.18619   0.94406   0.71831   0.00000  Uiso   1.00
H1728  H     0.21287   0.94337   0.65835   0.00000  Uiso   1.00
C1729  C     0.33457   0.75438   0.74559   0.00000  Uiso   1.00
C1730  C     0.66562   0.91219   0.75417   0.00000  Uiso   1.00
C1731  C     0.53239   0.82810   0.54987   0.00000  Uiso   1.00
C1732  C     0.49018   0.88193   0.96042   0.00000  Uiso   1.00
C1733  C     0.58109   0.82354   0.52683   0.00000  Uiso   1.00
C1734  C     0.44419   0.89313   0.98365   0.00000  Uiso   1.00
C1735  C     0.62470   0.68693   0.74803   0.00000  Uiso   1.00
C1736  C     0.37510   0.97919   0.75320   0.00000  Uiso   1.00
C1737  C     0.62166   0.97814   0.76177   0.00000  Uiso   1.00
C1738  C     0.37900   0.68754   0.73783   0.00000  Uiso   1.00
C1739  C     0.66483   0.95690   0.75870   0.00000  Uiso   1.00
C1740  C     0.33555   0.70938   0.74143   0.00000  Uiso   1.00
C1741  C     0.51674   0.80415   0.77581   0.00000  Uiso   1.00
C1742  C     0.48312   0.86188   0.72333   0.00000  Uiso   1.00
C1743  C     0.46706   0.80396   0.77576   0.00000  Uiso   1.00
C1744  C     0.53248   0.86348   0.72473   0.00000  Uiso   1.00
C1745  C     0.63916   0.83462   0.83619   0.00000  Uiso   1.00
C1746  C     0.36092   0.83340   0.66372   0.00000  Uiso   1.00
C1747  C     0.62455   0.83742   0.88576   0.00000  Uiso   1.00
C1748  C     0.37736   0.83941   0.61394   0.00000  Uiso   1.00
C1749  C     0.64653   0.83028   0.95618   0.00000  Uiso   1.00
C1750  C     0.37267   0.88186   0.54741   0.00000  Uiso   1.00
C1751  C     0.66002   0.84002   0.90944   0.00000  Uiso   1.00
C1752  C     0.34990   0.86216   0.58981   0.00000  Uiso   1.00
C1753  C     0.57500   0.83688   0.91074   0.00000  Uiso   1.00
C1754  C     0.42462   0.82799   0.59092   0.00000  Uiso   1.00
C1755  C     0.56315   0.84242   0.95698   0.00000  Uiso   1.00
C1756  C     0.44908   0.84916   0.54911   0.00000  Uiso   1.00
C1757  C     0.59720   0.83140   0.98021   0.00000  Uiso   1.00
C1758  C     0.42216   0.87561   0.52717   0.00000  Uiso   1.00
C1759  C     0.51705   0.85531   0.98107   0.00000  Uiso   1.00
C1760  C     0.49910   0.84349   0.52726   0.00000  Uiso   1.00
Cu1761 Cu    0.38022   0.83334   0.75000   0.00000  Uiso   1.00
Cu1762 Cu    0.61978   0.83333   0.75000   0.00000  Uiso   1.00
H1763  H     0.60590   0.81345   0.54561   0.00000  Uiso   1.00
H1764  H     0.42492   0.91364   0.96607   0.00000  Uiso   1.00
H1765  H     0.52228   0.82238   0.58581   0.00000  Uiso   1.00
H1766  H     0.50518   0.89506   0.92640   0.00000  Uiso   1.00
N1767  N     0.45069   0.83334   0.74999   0.00000  Uiso   1.00
N1768  N     0.54931   0.83332   0.75001   0.00000  Uiso   1.00
O1769  O     0.37291   0.77322   0.75000   0.00000  Uiso   1.00
O1770  O     0.62709   0.89345   0.75000   0.00000  Uiso   1.00
O1771  O     0.62706   0.77321   0.75000   0.00000  Uiso   1.00
O1772  O     0.37294   0.89346   0.74999   0.00000  Uiso   1.00
O1773  O     0.35186   0.83334   0.81491   0.00000  Uiso   1.00
O1774  O     0.64814   0.83332   0.68508   0.00000  Uiso   1.00
O1775  O     0.60600   0.83333   0.81492   0.00000  Uiso   1.00
O1776  O     0.39400   0.83333   0.68508   0.00000  Uiso   1.00
N1777  N     0.44336   0.79043   0.60536   0.00000  Uiso   1.00
H1778  H     0.43206   0.78166   0.63903   0.00000  Uiso   1.00
C1779  C     0.44034   0.75616   0.57912   0.00000  Uiso   1.00
H1780  H     0.46014   0.72976   0.58938   0.00000  Uiso   1.00
H1781  H     0.45725   0.76444   0.54291   0.00000  Uiso   1.00
H1782  H     0.40181   0.74656   0.58459   0.00000  Uiso   1.00
N1783  N     0.53782   0.82538   0.89119   0.00000  Uiso   1.00
H1784  H     0.52693   0.84787   0.87129   0.00000  Uiso   1.00
C1785  C     0.50078   0.79526   0.91646   0.00000  Uiso   1.00
H1786  H     0.49435   0.77222   0.89454   0.00000  Uiso   1.00
H1787  H     0.46604   0.81061   0.93036   0.00000  Uiso   1.00
H1788  H     0.51182   0.77808   0.94401   0.00000  Uiso   1.00
C1789  C     0.63102   0.86174   0.60527   0.00000  Uiso   1.00
N1790  N     0.58911   0.86090   0.61618   0.00000  Uiso   1.00
C1791  C     0.37546   0.85569   0.88737   0.00000  Uiso   1.00
N1792  N     0.41421   0.86891   0.87001   0.00000  Uiso   1.00
N1793  N     0.34891   0.82148   0.97911   0.00000  Uiso   1.00
H1794  H     0.38069   0.83854   0.96659   0.00000  Uiso   1.00
C1795  C     0.35804   0.77807   0.98504   0.00000  Uiso   1.00
H1796  H     0.37415   0.76572   0.95203   0.00000  Uiso   1.00
H1797  H     0.65726   0.76055   0.50266   0.00000  Uiso   1.00
H1798  H     0.38388   0.77377   0.50550   0.00000  Uiso   1.00
N1799  N     0.34579   0.90764   0.52446   0.00000  Uiso   1.00
H1800  H     0.64547   0.89593   0.52525   0.00000  Uiso   1.00
C1801  C     0.34444   0.95019   0.53512   0.00000  Uiso   1.00
H1802  H     0.65771   0.95256   0.57084   0.00000  Uiso   1.00
H1803  H     0.65909   0.96860   0.51383   0.00000  Uiso   1.00
H1804  H     0.38184   0.96323   0.52855   0.00000  Uiso   1.00
C1805  C     0.58463   0.70497   0.73426   0.00000  Uiso   1.00
N1806  N     0.55276   0.71887   0.72265   0.00000  Uiso   1.00
C1807  C     0.41332   0.96153   0.77006   0.00000  Uiso   1.00
N1808  N     0.44330   0.94748   0.78434   0.00000  Uiso   1.00
N1809  N     0.57544   0.95753   0.78080   0.00000  Uiso   1.00
H1810  H     0.54610   0.97228   0.77464   0.00000  Uiso   1.00
C1811  C     0.56536   0.94338   0.82767   0.00000  Uiso   1.00
H1812  H     0.59378   0.92251   0.83350   0.00000  Uiso   1.00
H1813  H     0.56318   0.97015   0.84819   0.00000  Uiso   1.00
H1814  H     0.53011   0.92600   0.83866   0.00000  Uiso   1.00
N1815  N     0.42611   0.70567   0.71528   0.00000  Uiso   1.00
H1816  H     0.42730   0.73633   0.70470   0.00000  Uiso   1.00
C1817  C     0.45484   0.68375   0.67856   0.00000  Uiso   1.00
H1818  H     0.43424   0.67952   0.65386   0.00000  Uiso   1.00
H1819  H     0.46522   0.98667   0.69053   0.00000  Uiso   1.00
H1820  H     0.48891   0.70162   0.66154   0.00000  Uiso   1.00
C1821  C     0.53306   0.77262   0.80270   0.00000  Uiso   1.00
N1822  N     0.54616   0.74697   0.82399   0.00000  Uiso   1.00
C1823  C     0.46778   0.88765   0.69043   0.00000  Uiso   1.00
N1824  N     0.45563   0.90820   0.66382   0.00000  Uiso   1.00
N1825  N     0.43561   0.77015   0.79772   0.00000  Uiso   1.00
H1826  H     0.44621   0.74250   0.78439   0.00000  Uiso   1.00
C1827  C     0.42056   0.76665   0.84615   0.00000  Uiso   1.00
H1828  H     0.43387   0.73763   0.85911   0.00000  Uiso   1.00
H1829  H     0.38038   0.76582   0.85821   0.00000  Uiso   1.00
H1830  H     0.43486   0.79274   0.85987   0.00000  Uiso   1.00
N1831  N     0.56537   0.89441   0.69709   0.00000  Uiso   1.00
H1832  H     0.60165   0.88948   0.68699   0.00000  Uiso   1.00
C1833  C     0.55223   0.93697   0.69175   0.00000  Uiso   1.00
H1834  H     0.58250   0.95764   0.69307   0.00000  Uiso   1.00
H1835  H     0.51953   0.94406   0.71831   0.00000  Uiso   1.00
H1836  H     0.54620   0.94337   0.65835   0.00000  Uiso   1.00
C1837  C     0.66791   0.75438   0.74559   0.00000  Uiso   1.00
C1838  C     0.99896   0.91219   0.75417   0.00000  Uiso   1.00
C1839  C     0.86573   0.82810   0.54987   0.00000  Uiso   1.00
C1840  C     0.82351   0.88193   0.96042   0.00000  Uiso   1.00
C1841  C     0.91442   0.82354   0.52683   0.00000  Uiso   1.00
C1842  C     0.77752   0.89313   0.98365   0.00000  Uiso   1.00
C1843  C     0.95803   0.68693   0.74803   0.00000  Uiso   1.00
C1844  C     0.70844   0.97919   0.75320   0.00000  Uiso   1.00
C1845  C     0.95500   0.97814   0.76177   0.00000  Uiso   1.00
C1846  C     0.71233   0.68754   0.73783   0.00000  Uiso   1.00
C1847  C     0.99816   0.95690   0.75870   0.00000  Uiso   1.00
C1848  C     0.66888   0.70938   0.74143   0.00000  Uiso   1.00
C1849  C     0.85007   0.80415   0.77581   0.00000  Uiso   1.00
C1850  C     0.81645   0.86188   0.72333   0.00000  Uiso   1.00
C1851  C     0.80040   0.80396   0.77576   0.00000  Uiso   1.00
C1852  C     0.86582   0.86348   0.72473   0.00000  Uiso   1.00
C1853  C     0.97249   0.83462   0.83619   0.00000  Uiso   1.00
C1854  C     0.69425   0.83340   0.66372   0.00000  Uiso   1.00
C1855  C     0.95789   0.83742   0.88576   0.00000  Uiso   1.00
C1856  C     0.71069   0.83941   0.61394   0.00000  Uiso   1.00
C1857  C     0.97986   0.83028   0.95618   0.00000  Uiso   1.00
C1858  C     0.70601   0.88186   0.54741   0.00000  Uiso   1.00
C1859  C     0.99336   0.84002   0.90944   0.00000  Uiso   1.00
C1860  C     0.68323   0.86216   0.58981   0.00000  Uiso   1.00
C1861  C     0.90833   0.83688   0.91074   0.00000  Uiso   1.00
C1862  C     0.75796   0.82799   0.59092   0.00000  Uiso   1.00
C1863  C     0.89648   0.84242   0.95698   0.00000  Uiso   1.00
C1864  C     0.78241   0.84916   0.54911   0.00000  Uiso   1.00
C1865  C     0.93053   0.83140   0.98021   0.00000  Uiso   1.00
C1866  C     0.75549   0.87561   0.52717   0.00000  Uiso   1.00
C1867  C     0.85039   0.85531   0.98107   0.00000  Uiso   1.00
C1868  C     0.83243   0.84349   0.52726   0.00000  Uiso   1.00
Cu1869 Cu    0.71355   0.83334   0.75000   0.00000  Uiso   1.00
Cu1870 Cu    0.95311   0.83333   0.75000   0.00000  Uiso   1.00
H1871  H     0.93923   0.81345   0.54561   0.00000  Uiso   1.00
H1872  H     0.75826   0.91364   0.96607   0.00000  Uiso   1.00
H1873  H     0.85562   0.82238   0.58581   0.00000  Uiso   1.00
H1874  H     0.83851   0.89506   0.92640   0.00000  Uiso   1.00
N1875  N     0.78403   0.83334   0.74999   0.00000  Uiso   1.00
N1876  N     0.88264   0.83332   0.75001   0.00000  Uiso   1.00
O1877  O     0.70625   0.77322   0.75000   0.00000  Uiso   1.00
O1878  O     0.96042   0.89345   0.75000   0.00000  Uiso   1.00
O1879  O     0.96039   0.77321   0.75000   0.00000  Uiso   1.00
O1880  O     0.70628   0.89346   0.74999   0.00000  Uiso   1.00
O1881  O     0.68519   0.83334   0.81491   0.00000  Uiso   1.00
O1882  O     0.98148   0.83332   0.68508   0.00000  Uiso   1.00
O1883  O     0.93933   0.83333   0.81492   0.00000  Uiso   1.00
O1884  O     0.72733   0.83333   0.68508   0.00000  Uiso   1.00
N1885  N     0.77670   0.79043   0.60536   0.00000  Uiso   1.00
H1886  H     0.76540   0.78166   0.63903   0.00000  Uiso   1.00
C1887  C     0.77368   0.75616   0.57912   0.00000  Uiso   1.00
H1888  H     0.79347   0.72976   0.58938   0.00000  Uiso   1.00
H1889  H     0.79058   0.76444   0.54291   0.00000  Uiso   1.00
H1890  H     0.73514   0.74656   0.58459   0.00000  Uiso   1.00
N1891  N     0.87115   0.82538   0.89119   0.00000  Uiso   1.00
H1892  H     0.86026   0.84787   0.87129   0.00000  Uiso   1.00
C1893  C     0.83412   0.79526   0.91646   0.00000  Uiso   1.00
H1894  H     0.82768   0.77222   0.89454   0.00000  Uiso   1.00
H1895  H     0.79937   0.81061   0.93036   0.00000  Uiso   1.00
H1896  H     0.84515   0.77808   0.94401   0.00000  Uiso   1.00
C1897  C     0.96436   0.86174   0.60527   0.00000  Uiso   1.00
N1898  N     0.92244   0.86090   0.61618   0.00000  Uiso   1.00
C1899  C     0.70880   0.85569   0.88737   0.00000  Uiso   1.00
N1900  N     0.74754   0.86891   0.87001   0.00000  Uiso   1.00
N1901  N     0.68225   0.82148   0.97911   0.00000  Uiso   1.00
H1902  H     0.71403   0.83854   0.96659   0.00000  Uiso   1.00
C1903  C     0.69137   0.77807   0.98504   0.00000  Uiso   1.00
H1904  H     0.70749   0.76572   0.95203   0.00000  Uiso   1.00
H1905  H     0.99059   0.76055   0.50266   0.00000  Uiso   1.00
H1906  H     0.71721   0.77377   0.50550   0.00000  Uiso   1.00
N1907  N     0.67912   0.90764   0.52446   0.00000  Uiso   1.00
H1908  H     0.97881   0.89593   0.52525   0.00000  Uiso   1.00
C1909  C     0.67778   0.95019   0.53512   0.00000  Uiso   1.00
H1910  H     0.99105   0.95256   0.57084   0.00000  Uiso   1.00
H1911  H     0.99242   0.96860   0.51383   0.00000  Uiso   1.00
H1912  H     0.71517   0.96323   0.52855   0.00000  Uiso   1.00
C1913  C     0.91796   0.70497   0.73426   0.00000  Uiso   1.00
N1914  N     0.88609   0.71887   0.72265   0.00000  Uiso   1.00
C1915  C     0.74665   0.96153   0.77006   0.00000  Uiso   1.00
N1916  N     0.77663   0.94748   0.78434   0.00000  Uiso   1.00
N1917  N     0.90878   0.95753   0.78080   0.00000  Uiso   1.00
H1918  H     0.87944   0.97228   0.77464   0.00000  Uiso   1.00
C1919  C     0.89869   0.94338   0.82767   0.00000  Uiso   1.00
H1920  H     0.92711   0.92251   0.83350   0.00000  Uiso   1.00
H1921  H     0.89652   0.97015   0.84819   0.00000  Uiso   1.00
H1922  H     0.86344   0.92600   0.83866   0.00000  Uiso   1.00
N1923  N     0.75944   0.70567   0.71528   0.00000  Uiso   1.00
H1924  H     0.76064   0.73633   0.70470   0.00000  Uiso   1.00
C1925  C     0.78818   0.68375   0.67856   0.00000  Uiso   1.00
H1926  H     0.76757   0.67952   0.65386   0.00000  Uiso   1.00
H1927  H     0.79856   0.98667   0.69053   0.00000  Uiso   1.00
H1928  H     0.82225   0.70162   0.66154   0.00000  Uiso   1.00
C1929  C     0.86640   0.77262   0.80270   0.00000  Uiso   1.00
N1930  N     0.87949   0.74697   0.82399   0.00000  Uiso   1.00
C1931  C     0.80111   0.88765   0.69043   0.00000  Uiso   1.00
N1932  N     0.78896   0.90820   0.66382   0.00000  Uiso   1.00
N1933  N     0.76894   0.77015   0.79772   0.00000  Uiso   1.00
H1934  H     0.77954   0.74250   0.78439   0.00000  Uiso   1.00
C1935  C     0.75389   0.76665   0.84615   0.00000  Uiso   1.00
H1936  H     0.76720   0.73763   0.85911   0.00000  Uiso   1.00
H1937  H     0.71372   0.76582   0.85821   0.00000  Uiso   1.00
H1938  H     0.76820   0.79274   0.85987   0.00000  Uiso   1.00
N1939  N     0.89870   0.89441   0.69709   0.00000  Uiso   1.00
H1940  H     0.93498   0.88948   0.68699   0.00000  Uiso   1.00
C1941  C     0.88557   0.93697   0.69175   0.00000  Uiso   1.00
H1942  H     0.91584   0.95764   0.69307   0.00000  Uiso   1.00
H1943  H     0.85286   0.94406   0.71831   0.00000  Uiso   1.00
H1944  H     0.87954   0.94337   0.65835   0.00000  Uiso   1.00
loop_
_geom_bond_atom_site_label_1
_geom_bond_atom_site_label_2
_geom_bond_distance
_geom_bond_site_symmetry_2
_ccdc_geom_bond_type
C1     C12     1.479   .     S
C1     O41     1.303   .     A
C1     O259    1.305   1_455 S
C2     C11     1.472   .     S
C2     O42     1.304   .     A
C2     O152    1.299   .     S
C3     C32     1.412   .     A
C3     C5      1.397   .     A
C3     H37     1.079   .     S
C4     C6      1.383   .     A
C4     H38     1.082   .     S
C4     C31     1.402   .     A
C5     H35     1.081   .     S
C5     C1001   1.402   1_554 S
C6     H36     1.083   .     S
C6     C1002   1.404   .     S
C7     C77     1.450   .     S
C7     C657    1.400   1_545 S
C7     C120    1.417   .     S
C8     C79     1.449   .     S
C8     C334    1.397   .     S
C8     C227    1.406   1_455 S
C9     C11     1.406   .     A
C9     N81     1.434   .     S
C9     C331    1.400   .     S
C10    N87     1.439   .     S
C10    C12     1.421   .     A
C10    C656    1.397   1_545 S
C11    C116    1.406   .     S
C12    C223    1.417   1_455 S
C13    N40     1.371   .     A
C13    C93     1.440   .     S
C13    C15     1.428   .     A
C14    C95     1.443   .     S
C14    N39     1.365   .     A
C14    C16     1.432   .     A
C15    N97     1.424   .     S
C15    N39     1.373   .     A
C16    N103    1.433   .     S
C16    N40     1.387   .     A
C17    O47     1.307   .     A
C17    C19     1.496   .     S
C17    O153    1.306   .     S
C18    C20     1.490   .     S
C18    O48     1.305   .     A
C18    O262    1.306   1_455 S
C19    C23     1.422   .     A
C19    C25     1.419   .     A
C20    C24     1.412   .     A
C20    C26     1.414   .     A
C21    C23     1.412   .     A
C21    C29     1.408   .     A
C21    N173    1.426   .     S
C22    N71     1.429   .     S
C22    C30     1.408   .     A
C22    C24     1.406   .     A
C23    C171    1.448   .     S
C24    C277    1.441   1_455 S
C25    N55     1.431   .     S
C25    C27     1.414   .     A
C26    N49     1.431   .     S
C26    C28     1.421   .     A
C27    C29     1.405   .     A
C27    C31     1.411   .     A
C28    C32     1.428   .     A
C28    C30     1.423   .     A
C29    C977    1.402   .     S
C30    C978    1.404   1_554 S
C31    C1004   1.412   .     S
C32    C1003   1.412   1_554 S
Cu33   O45     1.962   .     S
Cu33   N39     2.025   .     S
Cu33   O44     1.968   .     S
Cu33   O41     1.966   .     S
Cu33   O48     1.954   .     S
Cu33   Cu250   2.695   1_455 S
Cu34   O42     1.966   .     S
Cu34   N40     2.025   .     S
Cu34   O46     1.962   .     S
Cu34   O43     1.968   .     S
Cu34   O47     1.954   .     S
Cu34   Cu141   2.695   .     S
O43    C109    1.305   .     S
O44    C218    1.299   1_455 S
O45    C233    1.306   1_455 S
O46    C126    1.306   .     S
N49    C51     1.448   .     S
N49    H50     1.027   .     S
C51    H52     1.109   .     S
C51    H53     1.110   .     S
C51    H54     1.111   .     S
N55    H56     1.031   .     S
N55    C57     1.456   .     S
C57    H59     1.109   .     S
C57    H60     1.112   .     S
C57    H58     1.100   .     S
C61    N62     1.156   .     T
C61    C132    1.441   .     S
C63    N64     1.158   .     T
C63    C239    1.448   1_455 S
N65    C67     1.446   .     S
N65    H66     1.028   .     S
N65    C237    1.426   1_455 S
C67    H68     1.112   .     S
C67    H1257   1.111   1_455 S
C67    H1042   1.110   .     S
H69    C1147   1.111   1_554 S
H70    C1039   1.110   1_554 S
N71    C73     1.446   .     S
N71    H288    1.031   1_455 S
H72    N179    1.031   .     S
C73    H76     1.111   .     S
C73    H290    1.112   1_455 S
C73    H291    1.110   1_455 S
H74    C181    1.112   .     S
H75    C181    1.110   .     S
C77    N78     1.158   .     T
C79    N80     1.157   .     T
N81    C83     1.449   .     S
N81    H82     1.029   .     S
C83    H84     1.110   .     S
C83    H85     1.111   .     S
C83    H86     1.111   .     S
N87    H88     1.024   .     S
N87    C89     1.451   .     S
C89    H92     1.111   .     S
C89    H90     1.111   .     S
C89    H739    1.104   1_545 S
H91    C413    1.104   .     S
C93    N94     1.158   .     T
C95    N96     1.158   .     T
N97    H98     1.031   .     S
N97    C99     1.447   .     S
C99    H100    1.111   .     S
C99    H102    1.105   .     S
C99    H101    1.109   .     S
N103   C105    1.447   .     S
N103   H104    1.019   .     S
C105   H107    1.104   .     S
C105   H108    1.109   .     S
C105   H106    1.108   .     S
C109   C120    1.479   .     S
C109   O149    1.303   .     A
C110   C119    1.472   .     S
C110   O150    1.304   .     A
C110   O260    1.299   .     S
C111   C140    1.412   .     A
C111   C113    1.397   .     A
C111   H145    1.079   .     S
C112   C114    1.383   .     A
C112   H146    1.082   .     S
C112   C139    1.402   .     A
C113   H143    1.081   .     S
C113   C1109   1.402   1_554 S
C114   H144    1.083   .     S
C114   C1110   1.404   .     S
C115   C185    1.450   .     S
C115   C765    1.400   1_545 S
C115   C228    1.417   .     S
C116   C187    1.449   .     S
C116   C442    1.397   .     S
C117   C119    1.406   .     A
C117   N189    1.434   .     S
C117   C439    1.400   .     S
C118   N195    1.439   .     S
C118   C120    1.421   .     A
C118   C764    1.397   1_545 S
C119   C224    1.406   .     S
C121   N148    1.371   .     A
C121   C201    1.440   .     S
C121   C123    1.428   .     A
C122   C203    1.443   .     S
C122   N147    1.365   .     A
C122   C124    1.432   .     A
C123   N205    1.424   .     S
C123   N147    1.373   .     A
C124   N211    1.433   .     S
C124   N148    1.387   .     A
C125   O155    1.307   .     A
C125   C127    1.496   .     S
C125   O261    1.306   .     S
C126   C128    1.490   .     S
C126   O156    1.305   .     A
C127   C131    1.422   .     A
C127   C133    1.419   .     A
C128   C132    1.412   .     A
C128   C134    1.414   .     A
C129   C131    1.412   .     A
C129   C137    1.408   .     A
C129   N281    1.426   .     S
C130   N179    1.429   .     S
C130   C138    1.408   .     A
C130   C132    1.406   .     A
C131   C279    1.448   .     S
C133   N163    1.431   .     S
C133   C135    1.414   .     A
C134   N157    1.431   .     S
C134   C136    1.421   .     A
C135   C137    1.405   .     A
C135   C139    1.411   .     A
C136   C140    1.428   .     A
C136   C138    1.423   .     A
C137   C1085   1.402   .     S
C138   C1086   1.404   1_554 S
C139   C1112   1.412   .     S
C140   C1111   1.412   1_554 S
Cu141  O153    1.962   .     S
Cu141  N147    2.025   .     S
Cu141  O152    1.968   .     S
Cu141  O149    1.966   .     S
Cu141  O156    1.954   .     S
Cu142  O150    1.966   .     S
Cu142  N148    2.025   .     S
Cu142  O154    1.962   .     S
Cu142  O151    1.968   .     S
Cu142  O155    1.954   .     S
Cu142  Cu249   2.695   .     S
O151   C217    1.305   .     S
O154   C234    1.306   .     S
N157   C159    1.448   .     S
N157   H158    1.027   .     S
C159   H160    1.109   .     S
C159   H161    1.110   .     S
C159   H162    1.111   .     S
N163   H164    1.031   .     S
N163   C165    1.456   .     S
C165   H167    1.109   .     S
C165   H168    1.112   .     S
C165   H166    1.100   .     S
C169   N170    1.156   .     T
C169   C240    1.441   .     S
C171   N172    1.158   .     T
N173   C175    1.446   .     S
N173   H174    1.028   .     S
C175   H176    1.112   .     S
C175   H1041   1.111   .     S
C175   H1150   1.110   .     S
H177   C1255   1.111   1_554 S
H178   C1147   1.110   1_554 S
N179   C181    1.446   .     S
H180   N287    1.031   .     S
C181   H184    1.111   .     S
H182   C289    1.112   .     S
H183   C289    1.110   .     S
C185   N186    1.158   .     T
C187   N188    1.157   .     T
N189   C191    1.449   .     S
N189   H190    1.029   .     S
C191   H192    1.110   .     S
C191   H193    1.111   .     S
C191   H194    1.111   .     S
N195   H196    1.024   .     S
N195   C197    1.451   .     S
C197   H200    1.111   .     S
C197   H198    1.111   .     S
C197   H847    1.104   1_545 S
H199   C521    1.104   .     S
C201   N202    1.158   .     T
C203   N204    1.158   .     T
N205   H206    1.031   .     S
N205   C207    1.447   .     S
C207   H208    1.111   .     S
C207   H210    1.105   .     S
C207   H209    1.109   .     S
N211   C213    1.447   .     S
N211   H212    1.019   .     S
C213   H215    1.104   .     S
C213   H216    1.109   .     S
C213   H214    1.108   .     S
C217   C228    1.479   .     S
C217   O257    1.303   .     A
C218   C227    1.472   .     S
C218   O258    1.304   .     A
C218   O44     1.299   1_655 S
C219   C248    1.412   .     A
C219   C221    1.397   .     A
C219   H253    1.079   .     S
C220   C222    1.383   .     A
C220   H254    1.082   .     S
C220   C247    1.402   .     A
C221   H251    1.081   .     S
C221   C1217   1.402   1_554 S
C222   H252    1.083   .     S
C222   C1218   1.404   .     S
C223   C293    1.450   .     S
C223   C873    1.400   1_545 S
C223   C12     1.417   1_655 S
C224   C295    1.449   .     S
C224   C550    1.397   .     S
C225   C227    1.406   .     A
C225   N297    1.434   .     S
C225   C547    1.400   .     S
C226   N303    1.439   .     S
C226   C228    1.421   .     A
C226   C872    1.397   1_545 S
C227   C8      1.406   1_655 S
C229   N256    1.371   .     A
C229   C309    1.440   .     S
C229   C231    1.428   .     A
C230   C311    1.443   .     S
C230   N255    1.365   .     A
C230   C232    1.432   .     A
C231   N313    1.424   .     S
C231   N255    1.373   .     A
C232   N319    1.433   .     S
C232   N256    1.387   .     A
C233   O263    1.307   .     A
C233   C235    1.496   .     S
C233   O45     1.306   1_655 S
C234   C236    1.490   .     S
C234   O264    1.305   .     A
C235   C239    1.422   .     A
C235   C241    1.419   .     A
C236   C240    1.412   .     A
C236   C242    1.414   .     A
C237   C239    1.412   .     A
C237   C245    1.408   .     A
C237   N65     1.426   1_655 S
C238   N287    1.429   .     S
C238   C246    1.408   .     A
C238   C240    1.406   .     A
C239   C63     1.448   1_655 S
C241   N271    1.431   .     S
C241   C243    1.414   .     A
C242   N265    1.431   .     S
C242   C244    1.421   .     A
C243   C245    1.405   .     A
C243   C247    1.411   .     A
C244   C248    1.428   .     A
C244   C246    1.423   .     A
C245   C1193   1.402   .     S
C246   C1194   1.404   1_554 S
C247   C1220   1.412   .     S
C248   C1219   1.412   1_554 S
Cu249  O261    1.962   .     S
Cu249  N255    2.025   .     S
Cu249  O260    1.968   .     S
Cu249  O257    1.966   .     S
Cu249  O264    1.954   .     S
Cu250  O258    1.966   .     S
Cu250  N256    2.025   .     S
Cu250  O262    1.962   .     S
Cu250  O259    1.968   .     S
Cu250  O263    1.954   .     S
Cu250  Cu33    2.695   1_655 S
O259   C1      1.305   1_655 S
O262   C18     1.306   1_655 S
N265   C267    1.448   .     S
N265   H266    1.027   .     S
C267   H268    1.109   .     S
C267   H269    1.110   .     S
C267   H270    1.111   .     S
N271   H272    1.031   .     S
N271   C273    1.456   .     S
C273   H275    1.109   .     S
C273   H276    1.112   .     S
C273   H274    1.100   .     S
C277   N278    1.156   .     T
C277   C24     1.441   1_655 S
C279   N280    1.158   .     T
N281   C283    1.446   .     S
N281   H282    1.028   .     S
C283   H284    1.112   .     S
C283   H1149   1.111   .     S
C283   H1258   1.110   .     S
H285   C1039   1.111   1_654 S
H286   C1255   1.110   1_554 S
N287   C289    1.446   .     S
H288   N71     1.031   1_655 S
C289   H292    1.111   .     S
H290   C73     1.112   1_655 S
H291   C73     1.110   1_655 S
C293   N294    1.158   .     T
C295   N296    1.157   .     T
N297   C299    1.449   .     S
N297   H298    1.029   .     S
C299   H300    1.110   .     S
C299   H301    1.111   .     S
C299   H302    1.111   .     S
N303   H304    1.024   .     S
N303   C305    1.451   .     S
C305   H308    1.111   .     S
C305   H306    1.111   .     S
C305   H955    1.104   1_545 S
H307   C629    1.104   .     S
C309   N310    1.158   .     T
C311   N312    1.158   .     T
N313   H314    1.031   .     S
N313   C315    1.447   .     S
C315   H316    1.111   .     S
C315   H318    1.105   .     S
C315   H317    1.109   .     S
N319   C321    1.447   .     S
N319   H320    1.019   .     S
C321   H323    1.104   .     S
C321   H324    1.109   .     S
C321   H322    1.108   .     S
C325   C336    1.479   .     S
C325   O365    1.303   .     A
C325   O583    1.305   1_455 S
C326   C335    1.472   .     S
C326   O366    1.304   .     A
C326   O476    1.299   .     S
C327   C356    1.412   .     A
C327   C329    1.397   .     A
C327   H361    1.079   .     S
C328   C330    1.383   .     A
C328   H362    1.082   .     S
C328   C355    1.402   .     A
C329   H359    1.081   .     S
C329   C1325   1.402   1_554 S
C330   H360    1.083   .     S
C330   C1326   1.404   .     S
C331   C401    1.450   .     S
C331   C444    1.417   .     S
C332   C403    1.449   .     S
C332   C658    1.397   .     S
C332   C551    1.406   1_455 S
C333   C335    1.406   .     A
C333   N405    1.434   .     S
C333   C655    1.400   .     S
C334   N411    1.439   .     S
C334   C336    1.421   .     A
C335   C440    1.406   .     S
C336   C547    1.417   1_455 S
C337   N364    1.371   .     A
C337   C417    1.440   .     S
C337   C339    1.428   .     A
C338   C419    1.443   .     S
C338   N363    1.365   .     A
C338   C340    1.432   .     A
C339   N421    1.424   .     S
C339   N363    1.373   .     A
C340   N427    1.433   .     S
C340   N364    1.387   .     A
C341   O371    1.307   .     A
C341   C343    1.496   .     S
C341   O477    1.306   .     S
C342   C344    1.490   .     S
C342   O372    1.305   .     A
C342   O586    1.306   1_455 S
C343   C347    1.422   .     A
C343   C349    1.419   .     A
C344   C348    1.412   .     A
C344   C350    1.414   .     A
C345   C347    1.412   .     A
C345   C353    1.408   .     A
C345   N497    1.426   .     S
C346   N395    1.429   .     S
C346   C354    1.408   .     A
C346   C348    1.406   .     A
C347   C495    1.448   .     S
C348   C601    1.441   1_455 S
C349   N379    1.431   .     S
C349   C351    1.414   .     A
C350   N373    1.431   .     S
C350   C352    1.421   .     A
C351   C353    1.405   .     A
C351   C355    1.411   .     A
C352   C356    1.428   .     A
C352   C354    1.423   .     A
C353   C1301   1.402   .     S
C354   C1302   1.404   1_554 S
C355   C1328   1.412   .     S
C356   C1327   1.412   1_554 S
Cu357  O369    1.962   .     S
Cu357  N363    2.025   .     S
Cu357  O368    1.968   .     S
Cu357  O365    1.966   .     S
Cu357  O372    1.954   .     S
Cu357  Cu574   2.695   1_455 S
Cu358  O366    1.966   .     S
Cu358  N364    2.025   .     S
Cu358  O370    1.962   .     S
Cu358  O367    1.968   .     S
Cu358  O371    1.954   .     S
Cu358  Cu465   2.695   .     S
O367   C433    1.305   .     S
O368   C542    1.299   1_455 S
O369   C557    1.306   1_455 S
O370   C450    1.306   .     S
N373   C375    1.448   .     S
N373   H374    1.027   .     S
C375   H376    1.109   .     S
C375   H377    1.110   .     S
C375   H378    1.111   .     S
N379   H380    1.031   .     S
N379   C381    1.456   .     S
C381   H383    1.109   .     S
C381   H384    1.112   .     S
C381   H382    1.100   .     S
C385   N386    1.156   .     T
C385   C456    1.441   .     S
C387   N388    1.158   .     T
C387   C563    1.448   1_455 S
N389   C391    1.446   .     S
N389   H390    1.028   .     S
N389   C561    1.426   1_455 S
C391   H392    1.112   .     S
C391   H1581   1.111   1_455 S
C391   H1366   1.110   .     S
H393   C1471   1.111   1_554 S
H394   C1363   1.110   1_554 S
N395   C397    1.446   .     S
N395   H612    1.031   1_455 S
H396   N503    1.031   .     S
C397   H400    1.111   .     S
C397   H614    1.112   1_455 S
C397   H615    1.110   1_455 S
H398   C505    1.112   .     S
H399   C505    1.110   .     S
C401   N402    1.158   .     T
C403   N404    1.157   .     T
N405   C407    1.449   .     S
N405   H406    1.029   .     S
C407   H408    1.110   .     S
C407   H409    1.111   .     S
C407   H410    1.111   .     S
N411   H412    1.024   .     S
N411   C413    1.451   .     S
C413   H416    1.111   .     S
C413   H414    1.111   .     S
H415   C737    1.104   .     S
C417   N418    1.158   .     T
C419   N420    1.158   .     T
N421   H422    1.031   .     S
N421   C423    1.447   .     S
C423   H424    1.111   .     S
C423   H426    1.105   .     S
C423   H425    1.109   .     S
N427   C429    1.447   .     S
N427   H428    1.019   .     S
C429   H431    1.104   .     S
C429   H432    1.109   .     S
C429   H430    1.108   .     S
C433   C444    1.479   .     S
C433   O473    1.303   .     A
C434   C443    1.472   .     S
C434   O474    1.304   .     A
C434   O584    1.299   .     S
C435   C464    1.412   .     A
C435   C437    1.397   .     A
C435   H469    1.079   .     S
C436   C438    1.383   .     A
C436   H470    1.082   .     S
C436   C463    1.402   .     A
C437   H467    1.081   .     S
C437   C1433   1.402   1_554 S
C438   H468    1.083   .     S
C438   C1434   1.404   .     S
C439   C509    1.450   .     S
C439   C552    1.417   .     S
C440   C511    1.449   .     S
C440   C766    1.397   .     S
C441   C443    1.406   .     A
C441   N513    1.434   .     S
C441   C763    1.400   .     S
C442   N519    1.439   .     S
C442   C444    1.421   .     A
C443   C548    1.406   .     S
C445   N472    1.371   .     A
C445   C525    1.440   .     S
C445   C447    1.428   .     A
C446   C527    1.443   .     S
C446   N471    1.365   .     A
C446   C448    1.432   .     A
C447   N529    1.424   .     S
C447   N471    1.373   .     A
C448   N535    1.433   .     S
C448   N472    1.387   .     A
C449   O479    1.307   .     A
C449   C451    1.496   .     S
C449   O585    1.306   .     S
C450   C452    1.490   .     S
C450   O480    1.305   .     A
C451   C455    1.422   .     A
C451   C457    1.419   .     A
C452   C456    1.412   .     A
C452   C458    1.414   .     A
C453   C455    1.412   .     A
C453   C461    1.408   .     A
C453   N605    1.426   .     S
C454   N503    1.429   .     S
C454   C462    1.408   .     A
C454   C456    1.406   .     A
C455   C603    1.448   .     S
C457   N487    1.431   .     S
C457   C459    1.414   .     A
C458   N481    1.431   .     S
C458   C460    1.421   .     A
C459   C461    1.405   .     A
C459   C463    1.411   .     A
C460   C464    1.428   .     A
C460   C462    1.423   .     A
C461   C1409   1.402   .     S
C462   C1410   1.404   1_554 S
C463   C1436   1.412   .     S
C464   C1435   1.412   1_554 S
Cu465  O477    1.962   .     S
Cu465  N471    2.025   .     S
Cu465  O476    1.968   .     S
Cu465  O473    1.966   .     S
Cu465  O480    1.954   .     S
Cu466  O474    1.966   .     S
Cu466  N472    2.025   .     S
Cu466  O478    1.962   .     S
Cu466  O475    1.968   .     S
Cu466  O479    1.954   .     S
Cu466  Cu573   2.695   .     S
O475   C541    1.305   .     S
O478   C558    1.306   .     S
N481   C483    1.448   .     S
N481   H482    1.027   .     S
C483   H484    1.109   .     S
C483   H485    1.110   .     S
C483   H486    1.111   .     S
N487   H488    1.031   .     S
N487   C489    1.456   .     S
C489   H491    1.109   .     S
C489   H492    1.112   .     S
C489   H490    1.100   .     S
C493   N494    1.156   .     T
C493   C564    1.441   .     S
C495   N496    1.158   .     T
N497   C499    1.446   .     S
N497   H498    1.028   .     S
C499   H500    1.112   .     S
C499   H1365   1.111   .     S
C499   H1474   1.110   .     S
H501   C1579   1.111   1_554 S
H502   C1471   1.110   1_554 S
N503   C505    1.446   .     S
H504   N611    1.031   .     S
C505   H508    1.111   .     S
H506   C613    1.112   .     S
H507   C613    1.110   .     S
C509   N510    1.158   .     T
C511   N512    1.157   .     T
N513   C515    1.449   .     S
N513   H514    1.029   .     S
C515   H516    1.110   .     S
C515   H517    1.111   .     S
C515   H518    1.111   .     S
N519   H520    1.024   .     S
N519   C521    1.451   .     S
C521   H524    1.111   .     S
C521   H522    1.111   .     S
H523   C845    1.104   .     S
C525   N526    1.158   .     T
C527   N528    1.158   .     T
N529   H530    1.031   .     S
N529   C531    1.447   .     S
C531   H532    1.111   .     S
C531   H534    1.105   .     S
C531   H533    1.109   .     S
N535   C537    1.447   .     S
N535   H536    1.019   .     S
C537   H539    1.104   .     S
C537   H540    1.109   .     S
C537   H538    1.108   .     S
C541   C552    1.479   .     S
C541   O581    1.303   .     A
C542   C551    1.472   .     S
C542   O582    1.304   .     A
C542   O368    1.299   1_655 S
C543   C572    1.412   .     A
C543   C545    1.397   .     A
C543   H577    1.079   .     S
C544   C546    1.383   .     A
C544   H578    1.082   .     S
C544   C571    1.402   .     A
C545   H575    1.081   .     S
C545   C1541   1.402   1_554 S
C546   H576    1.083   .     S
C546   C1542   1.404   .     S
C547   C617    1.450   .     S
C547   C336    1.417   1_655 S
C548   C619    1.449   .     S
C548   C874    1.397   .     S
C549   C551    1.406   .     A
C549   N621    1.434   .     S
C549   C871    1.400   .     S
C550   N627    1.439   .     S
C550   C552    1.421   .     A
C551   C332    1.406   1_655 S
C553   N580    1.371   .     A
C553   C633    1.440   .     S
C553   C555    1.428   .     A
C554   C635    1.443   .     S
C554   N579    1.365   .     A
C554   C556    1.432   .     A
C555   N637    1.424   .     S
C555   N579    1.373   .     A
C556   N643    1.433   .     S
C556   N580    1.387   .     A
C557   O587    1.307   .     A
C557   C559    1.496   .     S
C557   O369    1.306   1_655 S
C558   C560    1.490   .     S
C558   O588    1.305   .     A
C559   C563    1.422   .     A
C559   C565    1.419   .     A
C560   C564    1.412   .     A
C560   C566    1.414   .     A
C561   C563    1.412   .     A
C561   C569    1.408   .     A
C561   N389    1.426   1_655 S
C562   N611    1.429   .     S
C562   C570    1.408   .     A
C562   C564    1.406   .     A
C563   C387    1.448   1_655 S
C565   N595    1.431   .     S
C565   C567    1.414   .     A
C566   N589    1.431   .     S
C566   C568    1.421   .     A
C567   C569    1.405   .     A
C567   C571    1.411   .     A
C568   C572    1.428   .     A
C568   C570    1.423   .     A
C569   C1517   1.402   .     S
C570   C1518   1.404   1_554 S
C571   C1544   1.412   .     S
C572   C1543   1.412   1_554 S
Cu573  O585    1.962   .     S
Cu573  N579    2.025   .     S
Cu573  O584    1.968   .     S
Cu573  O581    1.966   .     S
Cu573  O588    1.954   .     S
Cu574  O582    1.966   .     S
Cu574  N580    2.025   .     S
Cu574  O586    1.962   .     S
Cu574  O583    1.968   .     S
Cu574  O587    1.954   .     S
Cu574  Cu357   2.695   1_655 S
O583   C325    1.305   1_655 S
O586   C342    1.306   1_655 S
N589   C591    1.448   .     S
N589   H590    1.027   .     S
C591   H592    1.109   .     S
C591   H593    1.110   .     S
C591   H594    1.111   .     S
N595   H596    1.031   .     S
N595   C597    1.456   .     S
C597   H599    1.109   .     S
C597   H600    1.112   .     S
C597   H598    1.100   .     S
C601   N602    1.156   .     T
C601   C348    1.441   1_655 S
C603   N604    1.158   .     T
N605   C607    1.446   .     S
N605   H606    1.028   .     S
C607   H608    1.112   .     S
C607   H1473   1.111   .     S
C607   H1582   1.110   .     S
H609   C1363   1.111   1_654 S
H610   C1579   1.110   1_554 S
N611   C613    1.446   .     S
H612   N395    1.031   1_655 S
C613   H616    1.111   .     S
H614   C397    1.112   1_655 S
H615   C397    1.110   1_655 S
C617   N618    1.158   .     T
C619   N620    1.157   .     T
N621   C623    1.449   .     S
N621   H622    1.029   .     S
C623   H624    1.110   .     S
C623   H625    1.111   .     S
C623   H626    1.111   .     S
N627   H628    1.024   .     S
N627   C629    1.451   .     S
C629   H632    1.111   .     S
C629   H630    1.111   .     S
H631   C953    1.104   .     S
C633   N634    1.158   .     T
C635   N636    1.158   .     T
N637   H638    1.031   .     S
N637   C639    1.447   .     S
C639   H640    1.111   .     S
C639   H642    1.105   .     S
C639   H641    1.109   .     S
N643   C645    1.447   .     S
N643   H644    1.019   .     S
C645   H647    1.104   .     S
C645   H648    1.109   .     S
C645   H646    1.108   .     S
C649   C660    1.479   .     S
C649   O689    1.303   .     A
C649   O907    1.305   1_455 S
C650   C659    1.472   .     S
C650   O690    1.304   .     A
C650   O800    1.299   .     S
C651   C680    1.412   .     A
C651   C653    1.397   .     A
C651   H685    1.079   .     S
C652   C654    1.383   .     A
C652   H686    1.082   .     S
C652   C679    1.402   .     A
C653   H683    1.081   .     S
C653   C1649   1.402   1_554 S
C654   H684    1.083   .     S
C654   C1650   1.404   .     S
C655   C725    1.450   .     S
C655   C768    1.417   .     S
C656   C727    1.449   .     S
C656   C10     1.397   1_565 S
C656   C875    1.406   1_455 S
C657   C659    1.406   .     A
C657   N729    1.434   .     S
C657   C7      1.400   1_565 S
C658   N735    1.439   .     S
C658   C660    1.421   .     A
C659   C764    1.406   .     S
C660   C871    1.417   1_455 S
C661   N688    1.371   .     A
C661   C741    1.440   .     S
C661   C663    1.428   .     A
C662   C743    1.443   .     S
C662   N687    1.365   .     A
C662   C664    1.432   .     A
C663   N745    1.424   .     S
C663   N687    1.373   .     A
C664   N751    1.433   .     S
C664   N688    1.387   .     A
C665   O695    1.307   .     A
C665   C667    1.496   .     S
C665   O801    1.306   .     S
C666   C668    1.490   .     S
C666   O696    1.305   .     A
C666   O910    1.306   1_455 S
C667   C671    1.422   .     A
C667   C673    1.419   .     A
C668   C672    1.412   .     A
C668   C674    1.414   .     A
C669   C671    1.412   .     A
C669   C677    1.408   .     A
C669   N821    1.426   .     S
C670   N719    1.429   .     S
C670   C678    1.408   .     A
C670   C672    1.406   .     A
C671   C819    1.448   .     S
C672   C925    1.441   1_455 S
C673   N703    1.431   .     S
C673   C675    1.414   .     A
C674   N697    1.431   .     S
C674   C676    1.421   .     A
C675   C677    1.405   .     A
C675   C679    1.411   .     A
C676   C680    1.428   .     A
C676   C678    1.423   .     A
C677   C1625   1.402   .     S
C678   C1626   1.404   1_554 S
C679   C1652   1.412   .     S
C680   C1651   1.412   1_554 S
Cu681  O693    1.962   .     S
Cu681  N687    2.025   .     S
Cu681  O692    1.968   .     S
Cu681  O689    1.966   .     S
Cu681  O696    1.954   .     S
Cu681  Cu898   2.695   1_455 S
Cu682  O690    1.966   .     S
Cu682  N688    2.025   .     S
Cu682  O694    1.962   .     S
Cu682  O691    1.968   .     S
Cu682  O695    1.954   .     S
Cu682  Cu789   2.695   .     S
O691   C757    1.305   .     S
O692   C866    1.299   1_455 S
O693   C881    1.306   1_455 S
O694   C774    1.306   .     S
N697   C699    1.448   .     S
N697   H698    1.027   .     S
C699   H700    1.109   .     S
C699   H701    1.110   .     S
C699   H702    1.111   .     S
N703   H704    1.031   .     S
N703   C705    1.456   .     S
C705   H707    1.109   .     S
C705   H708    1.112   .     S
C705   H706    1.100   .     S
C709   N710    1.156   .     T
C709   C780    1.441   .     S
C711   N712    1.158   .     T
C711   C887    1.448   1_455 S
N713   C715    1.446   .     S
N713   H714    1.028   .     S
N713   C885    1.426   1_455 S
C715   H716    1.112   .     S
C715   H1905   1.111   1_455 S
C715   H1690   1.110   .     S
H717   C1795   1.111   1_554 S
H718   C1687   1.110   1_554 S
N719   C721    1.446   .     S
N719   H936    1.031   1_455 S
H720   N827    1.031   .     S
C721   H724    1.111   .     S
C721   H938    1.112   1_455 S
C721   H939    1.110   1_455 S
H722   C829    1.112   .     S
H723   C829    1.110   .     S
C725   N726    1.158   .     T
C727   N728    1.157   .     T
N729   C731    1.449   .     S
N729   H730    1.029   .     S
C731   H732    1.110   .     S
C731   H733    1.111   .     S
C731   H734    1.111   .     S
N735   H736    1.024   .     S
N735   C737    1.451   .     S
C737   H740    1.111   .     S
C737   H738    1.111   .     S
H739   C89     1.104   1_565 S
C741   N742    1.158   .     T
C743   N744    1.158   .     T
N745   H746    1.031   .     S
N745   C747    1.447   .     S
C747   H748    1.111   .     S
C747   H750    1.105   .     S
C747   H749    1.109   .     S
N751   C753    1.447   .     S
N751   H752    1.019   .     S
C753   H755    1.104   .     S
C753   H756    1.109   .     S
C753   H754    1.108   .     S
C757   C768    1.479   .     S
C757   O797    1.303   .     A
C758   C767    1.472   .     S
C758   O798    1.304   .     A
C758   O908    1.299   .     S
C759   C788    1.412   .     A
C759   C761    1.397   .     A
C759   H793    1.079   .     S
C760   C762    1.383   .     A
C760   H794    1.082   .     S
C760   C787    1.402   .     A
C761   H791    1.081   .     S
C761   C1757   1.402   1_554 S
C762   H792    1.083   .     S
C762   C1758   1.404   .     S
C763   C833    1.450   .     S
C763   C876    1.417   .     S
C764   C835    1.449   .     S
C764   C118    1.397   1_565 S
C765   C767    1.406   .     A
C765   N837    1.434   .     S
C765   C115    1.400   1_565 S
C766   N843    1.439   .     S
C766   C768    1.421   .     A
C767   C872    1.406   .     S
C769   N796    1.371   .     A
C769   C849    1.440   .     S
C769   C771    1.428   .     A
C770   C851    1.443   .     S
C770   N795    1.365   .     A
C770   C772    1.432   .     A
C771   N853    1.424   .     S
C771   N795    1.373   .     A
C772   N859    1.433   .     S
C772   N796    1.387   .     A
C773   O803    1.307   .     A
C773   C775    1.496   .     S
C773   O909    1.306   .     S
C774   C776    1.490   .     S
C774   O804    1.305   .     A
C775   C779    1.422   .     A
C775   C781    1.419   .     A
C776   C780    1.412   .     A
C776   C782    1.414   .     A
C777   C779    1.412   .     A
C777   C785    1.408   .     A
C777   N929    1.426   .     S
C778   N827    1.429   .     S
C778   C786    1.408   .     A
C778   C780    1.406   .     A
C779   C927    1.448   .     S
C781   N811    1.431   .     S
C781   C783    1.414   .     A
C782   N805    1.431   .     S
C782   C784    1.421   .     A
C783   C785    1.405   .     A
C783   C787    1.411   .     A
C784   C788    1.428   .     A
C784   C786    1.423   .     A
C785   C1733   1.402   .     S
C786   C1734   1.404   1_554 S
C787   C1760   1.412   .     S
C788   C1759   1.412   1_554 S
Cu789  O801    1.962   .     S
Cu789  N795    2.025   .     S
Cu789  O800    1.968   .     S
Cu789  O797    1.966   .     S
Cu789  O804    1.954   .     S
Cu790  O798    1.966   .     S
Cu790  N796    2.025   .     S
Cu790  O802    1.962   .     S
Cu790  O799    1.968   .     S
Cu790  O803    1.954   .     S
Cu790  Cu897   2.695   .     S
O799   C865    1.305   .     S
O802   C882    1.306   .     S
N805   C807    1.448   .     S
N805   H806    1.027   .     S
C807   H808    1.109   .     S
C807   H809    1.110   .     S
C807   H810    1.111   .     S
N811   H812    1.031   .     S
N811   C813    1.456   .     S
C813   H815    1.109   .     S
C813   H816    1.112   .     S
C813   H814    1.100   .     S
C817   N818    1.156   .     T
C817   C888    1.441   .     S
C819   N820    1.158   .     T
N821   C823    1.446   .     S
N821   H822    1.028   .     S
C823   H824    1.112   .     S
C823   H1689   1.111   .     S
C823   H1798   1.110   .     S
H825   C1903   1.111   1_554 S
H826   C1795   1.110   1_554 S
N827   C829    1.446   .     S
H828   N935    1.031   .     S
C829   H832    1.111   .     S
H830   C937    1.112   .     S
H831   C937    1.110   .     S
C833   N834    1.158   .     T
C835   N836    1.157   .     T
N837   C839    1.449   .     S
N837   H838    1.029   .     S
C839   H840    1.110   .     S
C839   H841    1.111   .     S
C839   H842    1.111   .     S
N843   H844    1.024   .     S
N843   C845    1.451   .     S
C845   H848    1.111   .     S
C845   H846    1.111   .     S
H847   C197    1.104   1_565 S
C849   N850    1.158   .     T
C851   N852    1.158   .     T
N853   H854    1.031   .     S
N853   C855    1.447   .     S
C855   H856    1.111   .     S
C855   H858    1.105   .     S
C855   H857    1.109   .     S
N859   C861    1.447   .     S
N859   H860    1.019   .     S
C861   H863    1.104   .     S
C861   H864    1.109   .     S
C861   H862    1.108   .     S
C865   C876    1.479   .     S
C865   O905    1.303   .     A
C866   C875    1.472   .     S
C866   O906    1.304   .     A
C866   O692    1.299   1_655 S
C867   C896    1.412   .     A
C867   C869    1.397   .     A
C867   H901    1.079   .     S
C868   C870    1.383   .     A
C868   H902    1.082   .     S
C868   C895    1.402   .     A
C869   H899    1.081   .     S
C869   C1865   1.402   1_554 S
C870   H900    1.083   .     S
C870   C1866   1.404   .     S
C871   C941    1.450   .     S
C871   C660    1.417   1_655 S
C872   C943    1.449   .     S
C872   C226    1.397   1_565 S
C873   C875    1.406   .     A
C873   N945    1.434   .     S
C873   C223    1.400   1_565 S
C874   N951    1.439   .     S
C874   C876    1.421   .     A
C875   C656    1.406   1_655 S
C877   N904    1.371   .     A
C877   C957    1.440   .     S
C877   C879    1.428   .     A
C878   C959    1.443   .     S
C878   N903    1.365   .     A
C878   C880    1.432   .     A
C879   N961    1.424   .     S
C879   N903    1.373   .     A
C880   N967    1.433   .     S
C880   N904    1.387   .     A
C881   O911    1.307   .     A
C881   C883    1.496   .     S
C881   O693    1.306   1_655 S
C882   C884    1.490   .     S
C882   O912    1.305   .     A
C883   C887    1.422   .     A
C883   C889    1.419   .     A
C884   C888    1.412   .     A
C884   C890    1.414   .     A
C885   C887    1.412   .     A
C885   C893    1.408   .     A
C885   N713    1.426   1_655 S
C886   N935    1.429   .     S
C886   C894    1.408   .     A
C886   C888    1.406   .     A
C887   C711    1.448   1_655 S
C889   N919    1.431   .     S
C889   C891    1.414   .     A
C890   N913    1.431   .     S
C890   C892    1.421   .     A
C891   C893    1.405   .     A
C891   C895    1.411   .     A
C892   C896    1.428   .     A
C892   C894    1.423   .     A
C893   C1841   1.402   .     S
C894   C1842   1.404   1_554 S
C895   C1868   1.412   .     S
C896   C1867   1.412   1_554 S
Cu897  O909    1.962   .     S
Cu897  N903    2.025   .     S
Cu897  O908    1.968   .     S
Cu897  O905    1.966   .     S
Cu897  O912    1.954   .     S
Cu898  O906    1.966   .     S
Cu898  N904    2.025   .     S
Cu898  O910    1.962   .     S
Cu898  O907    1.968   .     S
Cu898  O911    1.954   .     S
Cu898  Cu681   2.695   1_655 S
O907   C649    1.305   1_655 S
O910   C666    1.306   1_655 S
N913   C915    1.448   .     S
N913   H914    1.027   .     S
C915   H916    1.109   .     S
C915   H917    1.110   .     S
C915   H918    1.111   .     S
N919   H920    1.031   .     S
N919   C921    1.456   .     S
C921   H923    1.109   .     S
C921   H924    1.112   .     S
C921   H922    1.100   .     S
C925   N926    1.156   .     T
C925   C672    1.441   1_655 S
C927   N928    1.158   .     T
N929   C931    1.446   .     S
N929   H930    1.028   .     S
C931   H932    1.112   .     S
C931   H1797   1.111   .     S
C931   H1906   1.110   .     S
H933   C1687   1.111   1_654 S
H934   C1903   1.110   1_554 S
N935   C937    1.446   .     S
H936   N719    1.031   1_655 S
C937   H940    1.111   .     S
H938   C721    1.112   1_655 S
H939   C721    1.110   1_655 S
C941   N942    1.158   .     T
C943   N944    1.157   .     T
N945   C947    1.449   .     S
N945   H946    1.029   .     S
C947   H948    1.110   .     S
C947   H949    1.111   .     S
C947   H950    1.111   .     S
N951   H952    1.024   .     S
N951   C953    1.451   .     S
C953   H956    1.111   .     S
C953   H954    1.111   .     S
H955   C305    1.104   1_565 S
C957   N958    1.158   .     T
C959   N960    1.158   .     T
N961   H962    1.031   .     S
N961   C963    1.447   .     S
C963   H964    1.111   .     S
C963   H966    1.105   .     S
C963   H965    1.109   .     S
N967   C969    1.447   .     S
N967   H968    1.019   .     S
C969   H971    1.104   .     S
C969   H972    1.109   .     S
C969   H970    1.108   .     S
C973   C984    1.479   .     S
C973   O1013   1.303   .     A
C973   O1231   1.305   1_455 S
C974   C983    1.472   .     S
C974   O1014   1.304   .     A
C974   O1124   1.299   .     S
C975   C1004   1.412   .     A
C975   C977    1.397   .     A
C975   H1009   1.079   .     S
C976   C978    1.383   .     A
C976   H1010   1.082   .     S
C976   C1003   1.402   .     A
C977   H1007   1.081   .     S
C978   H1008   1.083   .     S
C978   C30     1.404   1_556 S
C979   C1049   1.450   .     S
C979   C1629   1.400   1_545 S
C979   C1092   1.417   .     S
C980   C1051   1.449   .     S
C980   C1306   1.397   .     S
C980   C1199   1.406   1_455 S
C981   C983    1.406   .     A
C981   N1053   1.434   .     S
C981   C1303   1.400   .     S
C982   N1059   1.439   .     S
C982   C984    1.421   .     A
C982   C1628   1.397   1_545 S
C983   C1088   1.406   .     S
C984   C1195   1.417   1_455 S
C985   N1012   1.371   .     A
C985   C1065   1.440   .     S
C985   C987    1.428   .     A
C986   C1067   1.443   .     S
C986   N1011   1.365   .     A
C986   C988    1.432   .     A
C987   N1069   1.424   .     S
C987   N1011   1.373   .     A
C988   N1075   1.433   .     S
C988   N1012   1.387   .     A
C989   O1019   1.307   .     A
C989   C991    1.496   .     S
C989   O1125   1.306   .     S
C990   C992    1.490   .     S
C990   O1020   1.305   .     A
C990   O1234   1.306   1_455 S
C991   C995    1.422   .     A
C991   C997    1.419   .     A
C992   C996    1.412   .     A
C992   C998    1.414   .     A
C993   C995    1.412   .     A
C993   C1001   1.408   .     A
C993   N1145   1.426   .     S
C994   N1043   1.429   .     S
C994   C1002   1.408   .     A
C994   C996    1.406   .     A
C995   C1143   1.448   .     S
C996   C1249   1.441   1_455 S
C997   N1027   1.431   .     S
C997   C999    1.414   .     A
C998   N1021   1.431   .     S
C998   C1000   1.421   .     A
C999   C1001   1.405   .     A
C999   C1003   1.411   .     A
C1000  C1004   1.428   .     A
C1000  C1002   1.423   .     A
C1001  C5      1.402   1_556 S
C1003  C32     1.412   1_556 S
Cu1005 O1017   1.962   .     S
Cu1005 N1011   2.025   .     S
Cu1005 O1016   1.968   .     S
Cu1005 O1013   1.966   .     S
Cu1005 O1020   1.954   .     S
Cu1005 Cu1222  2.695   1_455 S
Cu1006 O1014   1.966   .     S
Cu1006 N1012   2.025   .     S
Cu1006 O1018   1.962   .     S
Cu1006 O1015   1.968   .     S
Cu1006 O1019   1.954   .     S
Cu1006 Cu1113  2.695   .     S
O1015  C1081   1.305   .     S
O1016  C1190   1.299   1_455 S
O1017  C1205   1.306   1_455 S
O1018  C1098   1.306   .     S
N1021  C1023   1.448   .     S
N1021  H1022   1.027   .     S
C1023  H1024   1.109   .     S
C1023  H1025   1.110   .     S
C1023  H1026   1.111   .     S
N1027  H1028   1.031   .     S
N1027  C1029   1.456   .     S
C1029  H1031   1.109   .     S
C1029  H1032   1.112   .     S
C1029  H1030   1.100   .     S
C1033  N1034   1.156   .     T
C1033  C1104   1.441   .     S
C1035  N1036   1.158   .     T
C1035  C1211   1.448   1_455 S
N1037  C1039   1.446   .     S
N1037  H1038   1.028   .     S
N1037  C1209   1.426   1_455 S
C1039  H1040   1.112   .     S
C1039  H285    1.111   1_456 S
C1039  H70     1.110   1_556 S
N1043  C1045   1.446   .     S
N1043  H1260   1.031   1_455 S
H1044  N1151   1.031   .     S
C1045  H1048   1.111   .     S
C1045  H1262   1.112   1_455 S
C1045  H1263   1.110   1_455 S
H1046  C1153   1.112   .     S
H1047  C1153   1.110   .     S
C1049  N1050   1.158   .     T
C1051  N1052   1.157   .     T
N1053  C1055   1.449   .     S
N1053  H1054   1.029   .     S
C1055  H1056   1.110   .     S
C1055  H1057   1.111   .     S
C1055  H1058   1.111   .     S
N1059  H1060   1.024   .     S
N1059  C1061   1.451   .     S
C1061  H1064   1.111   .     S
C1061  H1062   1.111   .     S
C1061  H1711   1.104   1_545 S
H1063  C1385   1.104   .     S
C1065  N1066   1.158   .     T
C1067  N1068   1.158   .     T
N1069  H1070   1.031   .     S
N1069  C1071   1.447   .     S
C1071  H1072   1.111   .     S
C1071  H1074   1.105   .     S
C1071  H1073   1.109   .     S
N1075  C1077   1.447   .     S
N1075  H1076   1.019   .     S
C1077  H1079   1.104   .     S
C1077  H1080   1.109   .     S
C1077  H1078   1.108   .     S
C1081  C1092   1.479   .     S
C1081  O1121   1.303   .     A
C1082  C1091   1.472   .     S
C1082  O1122   1.304   .     A
C1082  O1232   1.299   .     S
C1083  C1112   1.412   .     A
C1083  C1085   1.397   .     A
C1083  H1117   1.079   .     S
C1084  C1086   1.383   .     A
C1084  H1118   1.082   .     S
C1084  C1111   1.402   .     A
C1085  H1115   1.081   .     S
C1086  H1116   1.083   .     S
C1086  C138    1.404   1_556 S
C1087  C1157   1.450   .     S
C1087  C1737   1.400   1_545 S
C1087  C1200   1.417   .     S
C1088  C1159   1.449   .     S
C1088  C1414   1.397   .     S
C1089  C1091   1.406   .     A
C1089  N1161   1.434   .     S
C1089  C1411   1.400   .     S
C1090  N1167   1.439   .     S
C1090  C1092   1.421   .     A
C1090  C1736   1.397   1_545 S
C1091  C1196   1.406   .     S
C1093  N1120   1.371   .     A
C1093  C1173   1.440   .     S
C1093  C1095   1.428   .     A
C1094  C1175   1.443   .     S
C1094  N1119   1.365   .     A
C1094  C1096   1.432   .     A
C1095  N1177   1.424   .     S
C1095  N1119   1.373   .     A
C1096  N1183   1.433   .     S
C1096  N1120   1.387   .     A
C1097  O1127   1.307   .     A
C1097  C1099   1.496   .     S
C1097  O1233   1.306   .     S
C1098  C1100   1.490   .     S
C1098  O1128   1.305   .     A
C1099  C1103   1.422   .     A
C1099  C1105   1.419   .     A
C1100  C1104   1.412   .     A
C1100  C1106   1.414   .     A
C1101  C1103   1.412   .     A
C1101  C1109   1.408   .     A
C1101  N1253   1.426   .     S
C1102  N1151   1.429   .     S
C1102  C1110   1.408   .     A
C1102  C1104   1.406   .     A
C1103  C1251   1.448   .     S
C1105  N1135   1.431   .     S
C1105  C1107   1.414   .     A
C1106  N1129   1.431   .     S
C1106  C1108   1.421   .     A
C1107  C1109   1.405   .     A
C1107  C1111   1.411   .     A
C1108  C1112   1.428   .     A
C1108  C1110   1.423   .     A
C1109  C113    1.402   1_556 S
C1111  C140    1.412   1_556 S
Cu1113 O1125   1.962   .     S
Cu1113 N1119   2.025   .     S
Cu1113 O1124   1.968   .     S
Cu1113 O1121   1.966   .     S
Cu1113 O1128   1.954   .     S
Cu1114 O1122   1.966   .     S
Cu1114 N1120   2.025   .     S
Cu1114 O1126   1.962   .     S
Cu1114 O1123   1.968   .     S
Cu1114 O1127   1.954   .     S
Cu1114 Cu1221  2.695   .     S
O1123  C1189   1.305   .     S
O1126  C1206   1.306   .     S
N1129  C1131   1.448   .     S
N1129  H1130   1.027   .     S
C1131  H1132   1.109   .     S
C1131  H1133   1.110   .     S
C1131  H1134   1.111   .     S
N1135  H1136   1.031   .     S
N1135  C1137   1.456   .     S
C1137  H1139   1.109   .     S
C1137  H1140   1.112   .     S
C1137  H1138   1.100   .     S
C1141  N1142   1.156   .     T
C1141  C1212   1.441   .     S
C1143  N1144   1.158   .     T
N1145  C1147   1.446   .     S
N1145  H1146   1.028   .     S
C1147  H1148   1.112   .     S
C1147  H69     1.111   1_556 S
C1147  H178    1.110   1_556 S
N1151  C1153   1.446   .     S
H1152  N1259   1.031   .     S
C1153  H1156   1.111   .     S
H1154  C1261   1.112   .     S
H1155  C1261   1.110   .     S
C1157  N1158   1.158   .     T
C1159  N1160   1.157   .     T
N1161  C1163   1.449   .     S
N1161  H1162   1.029   .     S
C1163  H1164   1.110   .     S
C1163  H1165   1.111   .     S
C1163  H1166   1.111   .     S
N1167  H1168   1.024   .     S
N1167  C1169   1.451   .     S
C1169  H1172   1.111   .     S
C1169  H1170   1.111   .     S
C1169  H1819   1.104   1_545 S
H1171  C1493   1.104   .     S
C1173  N1174   1.158   .     T
C1175  N1176   1.158   .     T
N1177  H1178   1.031   .     S
N1177  C1179   1.447   .     S
C1179  H1180   1.111   .     S
C1179  H1182   1.105   .     S
C1179  H1181   1.109   .     S
N1183  C1185   1.447   .     S
N1183  H1184   1.019   .     S
C1185  H1187   1.104   .     S
C1185  H1188   1.109   .     S
C1185  H1186   1.108   .     S
C1189  C1200   1.479   .     S
C1189  O1229   1.303   .     A
C1190  C1199   1.472   .     S
C1190  O1230   1.304   .     A
C1190  O1016   1.299   1_655 S
C1191  C1220   1.412   .     A
C1191  C1193   1.397   .     A
C1191  H1225   1.079   .     S
C1192  C1194   1.383   .     A
C1192  H1226   1.082   .     S
C1192  C1219   1.402   .     A
C1193  H1223   1.081   .     S
C1194  H1224   1.083   .     S
C1194  C246    1.404   1_556 S
C1195  C1265   1.450   .     S
C1195  C1845   1.400   1_545 S
C1195  C984    1.417   1_655 S
C1196  C1267   1.449   .     S
C1196  C1522   1.397   .     S
C1197  C1199   1.406   .     A
C1197  N1269   1.434   .     S
C1197  C1519   1.400   .     S
C1198  N1275   1.439   .     S
C1198  C1200   1.421   .     A
C1198  C1844   1.397   1_545 S
C1199  C980    1.406   1_655 S
C1201  N1228   1.371   .     A
C1201  C1281   1.440   .     S
C1201  C1203   1.428   .     A
C1202  C1283   1.443   .     S
C1202  N1227   1.365   .     A
C1202  C1204   1.432   .     A
C1203  N1285   1.424   .     S
C1203  N1227   1.373   .     A
C1204  N1291   1.433   .     S
C1204  N1228   1.387   .     A
C1205  O1235   1.307   .     A
C1205  C1207   1.496   .     S
C1205  O1017   1.306   1_655 S
C1206  C1208   1.490   .     S
C1206  O1236   1.305   .     A
C1207  C1211   1.422   .     A
C1207  C1213   1.419   .     A
C1208  C1212   1.412   .     A
C1208  C1214   1.414   .     A
C1209  C1211   1.412   .     A
C1209  C1217   1.408   .     A
C1209  N1037   1.426   1_655 S
C1210  N1259   1.429   .     S
C1210  C1218   1.408   .     A
C1210  C1212   1.406   .     A
C1211  C1035   1.448   1_655 S
C1213  N1243   1.431   .     S
C1213  C1215   1.414   .     A
C1214  N1237   1.431   .     S
C1214  C1216   1.421   .     A
C1215  C1217   1.405   .     A
C1215  C1219   1.411   .     A
C1216  C1220   1.428   .     A
C1216  C1218   1.423   .     A
C1217  C221    1.402   1_556 S
C1219  C248    1.412   1_556 S
Cu1221 O1233   1.962   .     S
Cu1221 N1227   2.025   .     S
Cu1221 O1232   1.968   .     S
Cu1221 O1229   1.966   .     S
Cu1221 O1236   1.954   .     S
Cu1222 O1230   1.966   .     S
Cu1222 N1228   2.025   .     S
Cu1222 O1234   1.962   .     S
Cu1222 O1231   1.968   .     S
Cu1222 O1235   1.954   .     S
Cu1222 Cu1005  2.695   1_655 S
O1231  C973    1.305   1_655 S
O1234  C990    1.306   1_655 S
N1237  C1239   1.448   .     S
N1237  H1238   1.027   .     S
C1239  H1240   1.109   .     S
C1239  H1241   1.110   .     S
C1239  H1242   1.111   .     S
N1243  H1244   1.031   .     S
N1243  C1245   1.456   .     S
C1245  H1247   1.109   .     S
C1245  H1248   1.112   .     S
C1245  H1246   1.100   .     S
C1249  N1250   1.156   .     T
C1249  C996    1.441   1_655 S
C1251  N1252   1.158   .     T
N1253  C1255   1.446   .     S
N1253  H1254   1.028   .     S
C1255  H1256   1.112   .     S
C1255  H177    1.111   1_556 S
C1255  H286    1.110   1_556 S
H1257  C67     1.111   1_655 S
N1259  C1261   1.446   .     S
H1260  N1043   1.031   1_655 S
C1261  H1264   1.111   .     S
H1262  C1045   1.112   1_655 S
H1263  C1045   1.110   1_655 S
C1265  N1266   1.158   .     T
C1267  N1268   1.157   .     T
N1269  C1271   1.449   .     S
N1269  H1270   1.029   .     S
C1271  H1272   1.110   .     S
C1271  H1273   1.111   .     S
C1271  H1274   1.111   .     S
N1275  H1276   1.024   .     S
N1275  C1277   1.451   .     S
C1277  H1280   1.111   .     S
C1277  H1278   1.111   .     S
C1277  H1927   1.104   1_545 S
H1279  C1601   1.104   .     S
C1281  N1282   1.158   .     T
C1283  N1284   1.158   .     T
N1285  H1286   1.031   .     S
N1285  C1287   1.447   .     S
C1287  H1288   1.111   .     S
C1287  H1290   1.105   .     S
C1287  H1289   1.109   .     S
N1291  C1293   1.447   .     S
N1291  H1292   1.019   .     S
C1293  H1295   1.104   .     S
C1293  H1296   1.109   .     S
C1293  H1294   1.108   .     S
C1297  C1308   1.479   .     S
C1297  O1337   1.303   .     A
C1297  O1555   1.305   1_455 S
C1298  C1307   1.472   .     S
C1298  O1338   1.304   .     A
C1298  O1448   1.299   .     S
C1299  C1328   1.412   .     A
C1299  C1301   1.397   .     A
C1299  H1333   1.079   .     S
C1300  C1302   1.383   .     A
C1300  H1334   1.082   .     S
C1300  C1327   1.402   .     A
C1301  H1331   1.081   .     S
C1302  H1332   1.083   .     S
C1302  C354    1.404   1_556 S
C1303  C1373   1.450   .     S
C1303  C1416   1.417   .     S
C1304  C1375   1.449   .     S
C1304  C1630   1.397   .     S
C1304  C1523   1.406   1_455 S
C1305  C1307   1.406   .     A
C1305  N1377   1.434   .     S
C1305  C1627   1.400   .     S
C1306  N1383   1.439   .     S
C1306  C1308   1.421   .     A
C1307  C1412   1.406   .     S
C1308  C1519   1.417   1_455 S
C1309  N1336   1.371   .     A
C1309  C1389   1.440   .     S
C1309  C1311   1.428   .     A
C1310  C1391   1.443   .     S
C1310  N1335   1.365   .     A
C1310  C1312   1.432   .     A
C1311  N1393   1.424   .     S
C1311  N1335   1.373   .     A
C1312  N1399   1.433   .     S
C1312  N1336   1.387   .     A
C1313  O1343   1.307   .     A
C1313  C1315   1.496   .     S
C1313  O1449   1.306   .     S
C1314  C1316   1.490   .     S
C1314  O1344   1.305   .     A
C1314  O1558   1.306   1_455 S
C1315  C1319   1.422   .     A
C1315  C1321   1.419   .     A
C1316  C1320   1.412   .     A
C1316  C1322   1.414   .     A
C1317  C1319   1.412   .     A
C1317  C1325   1.408   .     A
C1317  N1469   1.426   .     S
C1318  N1367   1.429   .     S
C1318  C1326   1.408   .     A
C1318  C1320   1.406   .     A
C1319  C1467   1.448   .     S
C1320  C1573   1.441   1_455 S
C1321  N1351   1.431   .     S
C1321  C1323   1.414   .     A
C1322  N1345   1.431   .     S
C1322  C1324   1.421   .     A
C1323  C1325   1.405   .     A
C1323  C1327   1.411   .     A
C1324  C1328   1.428   .     A
C1324  C1326   1.423   .     A
C1325  C329    1.402   1_556 S
C1327  C356    1.412   1_556 S
Cu1329 O1341   1.962   .     S
Cu1329 N1335   2.025   .     S
Cu1329 O1340   1.968   .     S
Cu1329 O1337   1.966   .     S
Cu1329 O1344   1.954   .     S
Cu1329 Cu1546  2.695   1_455 S
Cu1330 O1338   1.966   .     S
Cu1330 N1336   2.025   .     S
Cu1330 O1342   1.962   .     S
Cu1330 O1339   1.968   .     S
Cu1330 O1343   1.954   .     S
Cu1330 Cu1437  2.695   .     S
O1339  C1405   1.305   .     S
O1340  C1514   1.299   1_455 S
O1341  C1529   1.306   1_455 S
O1342  C1422   1.306   .     S
N1345  C1347   1.448   .     S
N1345  H1346   1.027   .     S
C1347  H1348   1.109   .     S
C1347  H1349   1.110   .     S
C1347  H1350   1.111   .     S
N1351  H1352   1.031   .     S
N1351  C1353   1.456   .     S
C1353  H1355   1.109   .     S
C1353  H1356   1.112   .     S
C1353  H1354   1.100   .     S
C1357  N1358   1.156   .     T
C1357  C1428   1.441   .     S
C1359  N1360   1.158   .     T
C1359  C1535   1.448   1_455 S
N1361  C1363   1.446   .     S
N1361  H1362   1.028   .     S
N1361  C1533   1.426   1_455 S
C1363  H1364   1.112   .     S
C1363  H609    1.111   1_456 S
C1363  H394    1.110   1_556 S
N1367  C1369   1.446   .     S
N1367  H1584   1.031   1_455 S
H1368  N1475   1.031   .     S
C1369  H1372   1.111   .     S
C1369  H1586   1.112   1_455 S
C1369  H1587   1.110   1_455 S
H1370  C1477   1.112   .     S
H1371  C1477   1.110   .     S
C1373  N1374   1.158   .     T
C1375  N1376   1.157   .     T
N1377  C1379   1.449   .     S
N1377  H1378   1.029   .     S
C1379  H1380   1.110   .     S
C1379  H1381   1.111   .     S
C1379  H1382   1.111   .     S
N1383  H1384   1.024   .     S
N1383  C1385   1.451   .     S
C1385  H1388   1.111   .     S
C1385  H1386   1.111   .     S
H1387  C1709   1.104   .     S
C1389  N1390   1.158   .     T
C1391  N1392   1.158   .     T
N1393  H1394   1.031   .     S
N1393  C1395   1.447   .     S
C1395  H1396   1.111   .     S
C1395  H1398   1.105   .     S
C1395  H1397   1.109   .     S
N1399  C1401   1.447   .     S
N1399  H1400   1.019   .     S
C1401  H1403   1.104   .     S
C1401  H1404   1.109   .     S
C1401  H1402   1.108   .     S
C1405  C1416   1.479   .     S
C1405  O1445   1.303   .     A
C1406  C1415   1.472   .     S
C1406  O1446   1.304   .     A
C1406  O1556   1.299   .     S
C1407  C1436   1.412   .     A
C1407  C1409   1.397   .     A
C1407  H1441   1.079   .     S
C1408  C1410   1.383   .     A
C1408  H1442   1.082   .     S
C1408  C1435   1.402   .     A
C1409  H1439   1.081   .     S
C1410  H1440   1.083   .     S
C1410  C462    1.404   1_556 S
C1411  C1481   1.450   .     S
C1411  C1524   1.417   .     S
C1412  C1483   1.449   .     S
C1412  C1738   1.397   .     S
C1413  C1415   1.406   .     A
C1413  N1485   1.434   .     S
C1413  C1735   1.400   .     S
C1414  N1491   1.439   .     S
C1414  C1416   1.421   .     A
C1415  C1520   1.406   .     S
C1417  N1444   1.371   .     A
C1417  C1497   1.440   .     S
C1417  C1419   1.428   .     A
C1418  C1499   1.443   .     S
C1418  N1443   1.365   .     A
C1418  C1420   1.432   .     A
C1419  N1501   1.424   .     S
C1419  N1443   1.373   .     A
C1420  N1507   1.433   .     S
C1420  N1444   1.387   .     A
C1421  O1451   1.307   .     A
C1421  C1423   1.496   .     S
C1421  O1557   1.306   .     S
C1422  C1424   1.490   .     S
C1422  O1452   1.305   .     A
C1423  C1427   1.422   .     A
C1423  C1429   1.419   .     A
C1424  C1428   1.412   .     A
C1424  C1430   1.414   .     A
C1425  C1427   1.412   .     A
C1425  C1433   1.408   .     A
C1425  N1577   1.426   .     S
C1426  N1475   1.429   .     S
C1426  C1434   1.408   .     A
C1426  C1428   1.406   .     A
C1427  C1575   1.448   .     S
C1429  N1459   1.431   .     S
C1429  C1431   1.414   .     A
C1430  N1453   1.431   .     S
C1430  C1432   1.421   .     A
C1431  C1433   1.405   .     A
C1431  C1435   1.411   .     A
C1432  C1436   1.428   .     A
C1432  C1434   1.423   .     A
C1433  C437    1.402   1_556 S
C1435  C464    1.412   1_556 S
Cu1437 O1449   1.962   .     S
Cu1437 N1443   2.025   .     S
Cu1437 O1448   1.968   .     S
Cu1437 O1445   1.966   .     S
Cu1437 O1452   1.954   .     S
Cu1438 O1446   1.966   .     S
Cu1438 N1444   2.025   .     S
Cu1438 O1450   1.962   .     S
Cu1438 O1447   1.968   .     S
Cu1438 O1451   1.954   .     S
Cu1438 Cu1545  2.695   .     S
O1447  C1513   1.305   .     S
O1450  C1530   1.306   .     S
N1453  C1455   1.448   .     S
N1453  H1454   1.027   .     S
C1455  H1456   1.109   .     S
C1455  H1457   1.110   .     S
C1455  H1458   1.111   .     S
N1459  H1460   1.031   .     S
N1459  C1461   1.456   .     S
C1461  H1463   1.109   .     S
C1461  H1464   1.112   .     S
C1461  H1462   1.100   .     S
C1465  N1466   1.156   .     T
C1465  C1536   1.441   .     S
C1467  N1468   1.158   .     T
N1469  C1471   1.446   .     S
N1469  H1470   1.028   .     S
C1471  H1472   1.112   .     S
C1471  H393    1.111   1_556 S
C1471  H502    1.110   1_556 S
N1475  C1477   1.446   .     S
H1476  N1583   1.031   .     S
C1477  H1480   1.111   .     S
H1478  C1585   1.112   .     S
H1479  C1585   1.110   .     S
C1481  N1482   1.158   .     T
C1483  N1484   1.157   .     T
N1485  C1487   1.449   .     S
N1485  H1486   1.029   .     S
C1487  H1488   1.110   .     S
C1487  H1489   1.111   .     S
C1487  H1490   1.111   .     S
N1491  H1492   1.024   .     S
N1491  C1493   1.451   .     S
C1493  H1496   1.111   .     S
C1493  H1494   1.111   .     S
H1495  C1817   1.104   .     S
C1497  N1498   1.158   .     T
C1499  N1500   1.158   .     T
N1501  H1502   1.031   .     S
N1501  C1503   1.447   .     S
C1503  H1504   1.111   .     S
C1503  H1506   1.105   .     S
C1503  H1505   1.109   .     S
N1507  C1509   1.447   .     S
N1507  H1508   1.019   .     S
C1509  H1511   1.104   .     S
C1509  H1512   1.109   .     S
C1509  H1510   1.108   .     S
C1513  C1524   1.479   .     S
C1513  O1553   1.303   .     A
C1514  C1523   1.472   .     S
C1514  O1554   1.304   .     A
C1514  O1340   1.299   1_655 S
C1515  C1544   1.412   .     A
C1515  C1517   1.397   .     A
C1515  H1549   1.079   .     S
C1516  C1518   1.383   .     A
C1516  H1550   1.082   .     S
C1516  C1543   1.402   .     A
C1517  H1547   1.081   .     S
C1518  H1548   1.083   .     S
C1518  C570    1.404   1_556 S
C1519  C1589   1.450   .     S
C1519  C1308   1.417   1_655 S
C1520  C1591   1.449   .     S
C1520  C1846   1.397   .     S
C1521  C1523   1.406   .     A
C1521  N1593   1.434   .     S
C1521  C1843   1.400   .     S
C1522  N1599   1.439   .     S
C1522  C1524   1.421   .     A
C1523  C1304   1.406   1_655 S
C1525  N1552   1.371   .     A
C1525  C1605   1.440   .     S
C1525  C1527   1.428   .     A
C1526  C1607   1.443   .     S
C1526  N1551   1.365   .     A
C1526  C1528   1.432   .     A
C1527  N1609   1.424   .     S
C1527  N1551   1.373   .     A
C1528  N1615   1.433   .     S
C1528  N1552   1.387   .     A
C1529  O1559   1.307   .     A
C1529  C1531   1.496   .     S
C1529  O1341   1.306   1_655 S
C1530  C1532   1.490   .     S
C1530  O1560   1.305   .     A
C1531  C1535   1.422   .     A
C1531  C1537   1.419   .     A
C1532  C1536   1.412   .     A
C1532  C1538   1.414   .     A
C1533  C1535   1.412   .     A
C1533  C1541   1.408   .     A
C1533  N1361   1.426   1_655 S
C1534  N1583   1.429   .     S
C1534  C1542   1.408   .     A
C1534  C1536   1.406   .     A
C1535  C1359   1.448   1_655 S
C1537  N1567   1.431   .     S
C1537  C1539   1.414   .     A
C1538  N1561   1.431   .     S
C1538  C1540   1.421   .     A
C1539  C1541   1.405   .     A
C1539  C1543   1.411   .     A
C1540  C1544   1.428   .     A
C1540  C1542   1.423   .     A
C1541  C545    1.402   1_556 S
C1543  C572    1.412   1_556 S
Cu1545 O1557   1.962   .     S
Cu1545 N1551   2.025   .     S
Cu1545 O1556   1.968   .     S
Cu1545 O1553   1.966   .     S
Cu1545 O1560   1.954   .     S
Cu1546 O1554   1.966   .     S
Cu1546 N1552   2.025   .     S
Cu1546 O1558   1.962   .     S
Cu1546 O1555   1.968   .     S
Cu1546 O1559   1.954   .     S
Cu1546 Cu1329  2.695   1_655 S
O1555  C1297   1.305   1_655 S
O1558  C1314   1.306   1_655 S
N1561  C1563   1.448   .     S
N1561  H1562   1.027   .     S
C1563  H1564   1.109   .     S
C1563  H1565   1.110   .     S
C1563  H1566   1.111   .     S
N1567  H1568   1.031   .     S
N1567  C1569   1.456   .     S
C1569  H1571   1.109   .     S
C1569  H1572   1.112   .     S
C1569  H1570   1.100   .     S
C1573  N1574   1.156   .     T
C1573  C1320   1.441   1_655 S
C1575  N1576   1.158   .     T
N1577  C1579   1.446   .     S
N1577  H1578   1.028   .     S
C1579  H1580   1.112   .     S
C1579  H501    1.111   1_556 S
C1579  H610    1.110   1_556 S
H1581  C391    1.111   1_655 S
N1583  C1585   1.446   .     S
H1584  N1367   1.031   1_655 S
C1585  H1588   1.111   .     S
H1586  C1369   1.112   1_655 S
H1587  C1369   1.110   1_655 S
C1589  N1590   1.158   .     T
C1591  N1592   1.157   .     T
N1593  C1595   1.449   .     S
N1593  H1594   1.029   .     S
C1595  H1596   1.110   .     S
C1595  H1597   1.111   .     S
C1595  H1598   1.111   .     S
N1599  H1600   1.024   .     S
N1599  C1601   1.451   .     S
C1601  H1604   1.111   .     S
C1601  H1602   1.111   .     S
H1603  C1925   1.104   .     S
C1605  N1606   1.158   .     T
C1607  N1608   1.158   .     T
N1609  H1610   1.031   .     S
N1609  C1611   1.447   .     S
C1611  H1612   1.111   .     S
C1611  H1614   1.105   .     S
C1611  H1613   1.109   .     S
N1615  C1617   1.447   .     S
N1615  H1616   1.019   .     S
C1617  H1619   1.104   .     S
C1617  H1620   1.109   .     S
C1617  H1618   1.108   .     S
C1621  C1632   1.479   .     S
C1621  O1661   1.303   .     A
C1621  O1879   1.305   1_455 S
C1622  C1631   1.472   .     S
C1622  O1662   1.304   .     A
C1622  O1772   1.299   .     S
C1623  C1652   1.412   .     A
C1623  C1625   1.397   .     A
C1623  H1657   1.079   .     S
C1624  C1626   1.383   .     A
C1624  H1658   1.082   .     S
C1624  C1651   1.402   .     A
C1625  H1655   1.081   .     S
C1626  H1656   1.083   .     S
C1626  C678    1.404   1_556 S
C1627  C1697   1.450   .     S
C1627  C1740   1.417   .     S
C1628  C1699   1.449   .     S
C1628  C982    1.397   1_565 S
C1628  C1847   1.406   1_455 S
C1629  C1631   1.406   .     A
C1629  N1701   1.434   .     S
C1629  C979    1.400   1_565 S
C1630  N1707   1.439   .     S
C1630  C1632   1.421   .     A
C1631  C1736   1.406   .     S
C1632  C1843   1.417   1_455 S
C1633  N1660   1.371   .     A
C1633  C1713   1.440   .     S
C1633  C1635   1.428   .     A
C1634  C1715   1.443   .     S
C1634  N1659   1.365   .     A
C1634  C1636   1.432   .     A
C1635  N1717   1.424   .     S
C1635  N1659   1.373   .     A
C1636  N1723   1.433   .     S
C1636  N1660   1.387   .     A
C1637  O1667   1.307   .     A
C1637  C1639   1.496   .     S
C1637  O1773   1.306   .     S
C1638  C1640   1.490   .     S
C1638  O1668   1.305   .     A
C1638  O1882   1.306   1_455 S
C1639  C1643   1.422   .     A
C1639  C1645   1.419   .     A
C1640  C1644   1.412   .     A
C1640  C1646   1.414   .     A
C1641  C1643   1.412   .     A
C1641  C1649   1.408   .     A
C1641  N1793   1.426   .     S
C1642  N1691   1.429   .     S
C1642  C1650   1.408   .     A
C1642  C1644   1.406   .     A
C1643  C1791   1.448   .     S
C1644  C1897   1.441   1_455 S
C1645  N1675   1.431   .     S
C1645  C1647   1.414   .     A
C1646  N1669   1.431   .     S
C1646  C1648   1.421   .     A
C1647  C1649   1.405   .     A
C1647  C1651   1.411   .     A
C1648  C1652   1.428   .     A
C1648  C1650   1.423   .     A
C1649  C653    1.402   1_556 S
C1651  C680    1.412   1_556 S
Cu1653 O1665   1.962   .     S
Cu1653 N1659   2.025   .     S
Cu1653 O1664   1.968   .     S
Cu1653 O1661   1.966   .     S
Cu1653 O1668   1.954   .     S
Cu1653 Cu1870  2.695   1_455 S
Cu1654 O1662   1.966   .     S
Cu1654 N1660   2.025   .     S
Cu1654 O1666   1.962   .     S
Cu1654 O1663   1.968   .     S
Cu1654 O1667   1.954   .     S
Cu1654 Cu1761  2.695   .     S
O1663  C1729   1.305   .     S
O1664  C1838   1.299   1_455 S
O1665  C1853   1.306   1_455 S
O1666  C1746   1.306   .     S
N1669  C1671   1.448   .     S
N1669  H1670   1.027   .     S
C1671  H1672   1.109   .     S
C1671  H1673   1.110   .     S
C1671  H1674   1.111   .     S
N1675  H1676   1.031   .     S
N1675  C1677   1.456   .     S
C1677  H1679   1.109   .     S
C1677  H1680   1.112   .     S
C1677  H1678   1.100   .     S
C1681  N1682   1.156   .     T
C1681  C1752   1.441   .     S
C1683  N1684   1.158   .     T
C1683  C1859   1.448   1_455 S
N1685  C1687   1.446   .     S
N1685  H1686   1.028   .     S
N1685  C1857   1.426   1_455 S
C1687  H1688   1.112   .     S
C1687  H933    1.111   1_456 S
C1687  H718    1.110   1_556 S
N1691  C1693   1.446   .     S
N1691  H1908   1.031   1_455 S
H1692  N1799   1.031   .     S
C1693  H1696   1.111   .     S
C1693  H1910   1.112   1_455 S
C1693  H1911   1.110   1_455 S
H1694  C1801   1.112   .     S
H1695  C1801   1.110   .     S
C1697  N1698   1.158   .     T
C1699  N1700   1.157   .     T
N1701  C1703   1.449   .     S
N1701  H1702   1.029   .     S
C1703  H1704   1.110   .     S
C1703  H1705   1.111   .     S
C1703  H1706   1.111   .     S
N1707  H1708   1.024   .     S
N1707  C1709   1.451   .     S
C1709  H1712   1.111   .     S
C1709  H1710   1.111   .     S
H1711  C1061   1.104   1_565 S
C1713  N1714   1.158   .     T
C1715  N1716   1.158   .     T
N1717  H1718   1.031   .     S
N1717  C1719   1.447   .     S
C1719  H1720   1.111   .     S
C1719  H1722   1.105   .     S
C1719  H1721   1.109   .     S
N1723  C1725   1.447   .     S
N1723  H1724   1.019   .     S
C1725  H1727   1.104   .     S
C1725  H1728   1.109   .     S
C1725  H1726   1.108   .     S
C1729  C1740   1.479   .     S
C1729  O1769   1.303   .     A
C1730  C1739   1.472   .     S
C1730  O1770   1.304   .     A
C1730  O1880   1.299   .     S
C1731  C1760   1.412   .     A
C1731  C1733   1.397   .     A
C1731  H1765   1.079   .     S
C1732  C1734   1.383   .     A
C1732  H1766   1.082   .     S
C1732  C1759   1.402   .     A
C1733  H1763   1.081   .     S
C1734  H1764   1.083   .     S
C1734  C786    1.404   1_556 S
C1735  C1805   1.450   .     S
C1735  C1848   1.417   .     S
C1736  C1807   1.449   .     S
C1736  C1090   1.397   1_565 S
C1737  C1739   1.406   .     A
C1737  N1809   1.434   .     S
C1737  C1087   1.400   1_565 S
C1738  N1815   1.439   .     S
C1738  C1740   1.421   .     A
C1739  C1844   1.406   .     S
C1741  N1768   1.371   .     A
C1741  C1821   1.440   .     S
C1741  C1743   1.428   .     A
C1742  C1823   1.443   .     S
C1742  N1767   1.365   .     A
C1742  C1744   1.432   .     A
C1743  N1825   1.424   .     S
C1743  N1767   1.373   .     A
C1744  N1831   1.433   .     S
C1744  N1768   1.387   .     A
C1745  O1775   1.307   .     A
C1745  C1747   1.496   .     S
C1745  O1881   1.306   .     S
C1746  C1748   1.490   .     S
C1746  O1776   1.305   .     A
C1747  C1751   1.422   .     A
C1747  C1753   1.419   .     A
C1748  C1752   1.412   .     A
C1748  C1754   1.414   .     A
C1749  C1751   1.412   .     A
C1749  C1757   1.408   .     A
C1749  N1901   1.426   .     S
C1750  N1799   1.429   .     S
C1750  C1758   1.408   .     A
C1750  C1752   1.406   .     A
C1751  C1899   1.448   .     S
C1753  N1783   1.431   .     S
C1753  C1755   1.414   .     A
C1754  N1777   1.431   .     S
C1754  C1756   1.421   .     A
C1755  C1757   1.405   .     A
C1755  C1759   1.411   .     A
C1756  C1760   1.428   .     A
C1756  C1758   1.423   .     A
C1757  C761    1.402   1_556 S
C1759  C788    1.412   1_556 S
Cu1761 O1773   1.962   .     S
Cu1761 N1767   2.025   .     S
Cu1761 O1772   1.968   .     S
Cu1761 O1769   1.966   .     S
Cu1761 O1776   1.954   .     S
Cu1762 O1770   1.966   .     S
Cu1762 N1768   2.025   .     S
Cu1762 O1774   1.962   .     S
Cu1762 O1771   1.968   .     S
Cu1762 O1775   1.954   .     S
Cu1762 Cu1869  2.695   .     S
O1771  C1837   1.305   .     S
O1774  C1854   1.306   .     S
N1777  C1779   1.448   .     S
N1777  H1778   1.027   .     S
C1779  H1780   1.109   .     S
C1779  H1781   1.110   .     S
C1779  H1782   1.111   .     S
N1783  H1784   1.031   .     S
N1783  C1785   1.456   .     S
C1785  H1787   1.109   .     S
C1785  H1788   1.112   .     S
C1785  H1786   1.100   .     S
C1789  N1790   1.156   .     T
C1789  C1860   1.441   .     S
C1791  N1792   1.158   .     T
N1793  C1795   1.446   .     S
N1793  H1794   1.028   .     S
C1795  H1796   1.112   .     S
C1795  H717    1.111   1_556 S
C1795  H826    1.110   1_556 S
N1799  C1801   1.446   .     S
H1800  N1907   1.031   .     S
C1801  H1804   1.111   .     S
H1802  C1909   1.112   .     S
H1803  C1909   1.110   .     S
C1805  N1806   1.158   .     T
C1807  N1808   1.157   .     T
N1809  C1811   1.449   .     S
N1809  H1810   1.029   .     S
C1811  H1812   1.110   .     S
C1811  H1813   1.111   .     S
C1811  H1814   1.111   .     S
N1815  H1816   1.024   .     S
N1815  C1817   1.451   .     S
C1817  H1820   1.111   .     S
C1817  H1818   1.111   .     S
H1819  C1169   1.104   1_565 S
C1821  N1822   1.158   .     T
C1823  N1824   1.158   .     T
N1825  H1826   1.031   .     S
N1825  C1827   1.447   .     S
C1827  H1828   1.111   .     S
C1827  H1830   1.105   .     S
C1827  H1829   1.109   .     S
N1831  C1833   1.447   .     S
N1831  H1832   1.019   .     S
C1833  H1835   1.104   .     S
C1833  H1836   1.109   .     S
C1833  H1834   1.108   .     S
C1837  C1848   1.479   .     S
C1837  O1877   1.303   .     A
C1838  C1847   1.472   .     S
C1838  O1878   1.304   .     A
C1838  O1664   1.299   1_655 S
C1839  C1868   1.412   .     A
C1839  C1841   1.397   .     A
C1839  H1873   1.079   .     S
C1840  C1842   1.383   .     A
C1840  H1874   1.082   .     S
C1840  C1867   1.402   .     A
C1841  H1871   1.081   .     S
C1842  H1872   1.083   .     S
C1842  C894    1.404   1_556 S
C1843  C1913   1.450   .     S
C1843  C1632   1.417   1_655 S
C1844  C1915   1.449   .     S
C1844  C1198   1.397   1_565 S
C1845  C1847   1.406   .     A
C1845  N1917   1.434   .     S
C1845  C1195   1.400   1_565 S
C1846  N1923   1.439   .     S
C1846  C1848   1.421   .     A
C1847  C1628   1.406   1_655 S
C1849  N1876   1.371   .     A
C1849  C1929   1.440   .     S
C1849  C1851   1.428   .     A
C1850  C1931   1.443   .     S
C1850  N1875   1.365   .     A
C1850  C1852   1.432   .     A
C1851  N1933   1.424   .     S
C1851  N1875   1.373   .     A
C1852  N1939   1.433   .     S
C1852  N1876   1.387   .     A
C1853  O1883   1.307   .     A
C1853  C1855   1.496   .     S
C1853  O1665   1.306   1_655 S
C1854  C1856   1.490   .     S
C1854  O1884   1.305   .     A
C1855  C1859   1.422   .     A
C1855  C1861   1.419   .     A
C1856  C1860   1.412   .     A
C1856  C1862   1.414   .     A
C1857  C1859   1.412   .     A
C1857  C1865   1.408   .     A
C1857  N1685   1.426   1_655 S
C1858  N1907   1.429   .     S
C1858  C1866   1.408   .     A
C1858  C1860   1.406   .     A
C1859  C1683   1.448   1_655 S
C1861  N1891   1.431   .     S
C1861  C1863   1.414   .     A
C1862  N1885   1.431   .     S
C1862  C1864   1.421   .     A
C1863  C1865   1.405   .     A
C1863  C1867   1.411   .     A
C1864  C1868   1.428   .     A
C1864  C1866   1.423   .     A
C1865  C869    1.402   1_556 S
C1867  C896    1.412   1_556 S
Cu1869 O1881   1.962   .     S
Cu1869 N1875   2.025   .     S
Cu1869 O1880   1.968   .     S
Cu1869 O1877   1.966   .     S
Cu1869 O1884   1.954   .     S
Cu1870 O1878   1.966   .     S
Cu1870 N1876   2.025   .     S
Cu1870 O1882   1.962   .     S
Cu1870 O1879   1.968   .     S
Cu1870 O1883   1.954   .     S
Cu1870 Cu1653  2.695   1_655 S
O1879  C1621   1.305   1_655 S
O1882  C1638   1.306   1_655 S
N1885  C1887   1.448   .     S
N1885  H1886   1.027   .     S
C1887  H1888   1.109   .     S
C1887  H1889   1.110   .     S
C1887  H1890   1.111   .     S
N1891  H1892   1.031   .     S
N1891  C1893   1.456   .     S
C1893  H1895   1.109   .     S
C1893  H1896   1.112   .     S
C1893  H1894   1.100   .     S
C1897  N1898   1.156   .     T
C1897  C1644   1.441   1_655 S
C1899  N1900   1.158   .     T
N1901  C1903   1.446   .     S
N1901  H1902   1.028   .     S
C1903  H1904   1.112   .     S
C1903  H825    1.111   1_556 S
C1903  H934    1.110   1_556 S
H1905  C715    1.111   1_655 S
N1907  C1909   1.446   .     S
H1908  N1691   1.031   1_655 S
C1909  H1912   1.111   .     S
H1910  C1693   1.112   1_655 S
H1911  C1693   1.110   1_655 S
C1913  N1914   1.158   .     T
C1915  N1916   1.157   .     T
N1917  C1919   1.449   .     S
N1917  H1918   1.029   .     S
C1919  H1920   1.110   .     S
C1919  H1921   1.111   .     S
C1919  H1922   1.111   .     S
N1923  H1924   1.024   .     S
N1923  C1925   1.451   .     S
C1925  H1928   1.111   .     S
C1925  H1926   1.111   .     S
H1927  C1277   1.104   1_565 S
C1929  N1930   1.158   .     T
C1931  N1932   1.158   .     T
N1933  H1934   1.031   .     S
N1933  C1935   1.447   .     S
C1935  H1936   1.111   .     S
C1935  H1938   1.105   .     S
C1935  H1937   1.109   .     S
N1939  C1941   1.447   .     S
N1939  H1940   1.019   .     S
C1941  H1943   1.104   .     S
C1941  H1944   1.109   .     S
C1941  H1942   1.108   .     S
