data_str_m2_o1_o2_pcu_sym.83
_audit_creation_date              2020-01-03
_audit_creation_method            'Materials Studio'
_symmetry_space_group_name_H-M    'P1'
_symmetry_Int_Tables_number       1
_symmetry_cell_setting            triclinic
loop_
_symmetry_equiv_pos_as_xyz
  x,y,z
_cell_length_a                    32.7140
_cell_length_b                    28.8235
_cell_length_c                    30.6005
_cell_angle_alpha                 89.4669
_cell_angle_beta                  96.5355
_cell_angle_gamma                 90.4885
loop_
_atom_site_label
_atom_site_type_symbol
_atom_site_fract_x
_atom_site_fract_y
_atom_site_fract_z
_atom_site_U_iso_or_equiv
_atom_site_adp_type
_atom_site_occupancy
C1     C     0.08775   0.16629   0.25295   0.00000  Uiso   1.00
C2     C     0.31335   0.20929   0.25254   0.00000  Uiso   1.00
C3     C     0.31077   0.12618   0.23807   0.00000  Uiso   1.00
C4     C     0.02256   0.20716   0.26190   0.00000  Uiso   1.00
C5     C     0.14850   0.20368   0.04552   0.00000  Uiso   1.00
C6     C     0.18481   0.12964   0.45448   0.00000  Uiso   1.00
C7     C     0.16556   0.20956   0.45130   0.00000  Uiso   1.00
C8     C     0.16774   0.12377   0.04869   0.00000  Uiso   1.00
C9     C     0.15703   0.20720   0.09101   0.00000  Uiso   1.00
C10    C     0.17628   0.12613   0.40899   0.00000  Uiso   1.00
C11    C     0.15746   0.20758   0.40557   0.00000  Uiso   1.00
C12    C     0.24558   0.16705   0.24704   0.00000  Uiso   1.00
C13    C     0.17585   0.12575   0.09443   0.00000  Uiso   1.00
C14    C     0.16906   0.16735   0.11665   0.00000  Uiso   1.00
C15    C     0.16426   0.16598   0.38335   0.00000  Uiso   1.00
C16    C     0.16256   0.16520   0.02377   0.00000  Uiso   1.00
C17    C     0.17074   0.16813   0.47623   0.00000  Uiso   1.00
C18    C     0.29018   0.16793   0.24430   0.00000  Uiso   1.00
C19    C     0.04315   0.16540   0.25567   0.00000  Uiso   1.00
C20    C     0.11929   0.04670   0.17920   0.00000  Uiso   1.00
C21    C     0.21404   0.28663   0.32078   0.00000  Uiso   1.00
C22    C     0.23328   0.04656   0.30017   0.00000  Uiso   1.00
C23    C     0.16843   0.16696   0.16515   0.00000  Uiso   1.00
C24    C     0.10005   0.28677   0.19983   0.00000  Uiso   1.00
C25    C     0.16490   0.16637   0.33485   0.00000  Uiso   1.00
C26    C     0.14035   0.02471   0.22008   0.00000  Uiso   1.00
C27    C     0.19298   0.30862   0.27992   0.00000  Uiso   1.00
C28    C     0.19525   0.02457   0.27741   0.00000  Uiso   1.00
C29    C     0.13808   0.30876   0.22259   0.00000  Uiso   1.00
C30    C     0.01998   0.12404   0.24742   0.00000  Uiso   1.00
Cl31   Cl    0.10798   0.23837   0.01989   0.00000  Uiso   1.00
Cl32   Cl    0.29156   0.26539   0.24587   0.00000  Uiso   1.00
Cl33   Cl    0.28494   0.07743   0.21247   0.00000  Uiso   1.00
Cl34   Cl    0.04838   0.25590   0.28751   0.00000  Uiso   1.00
Cl35   Cl    0.22533   0.09496   0.48011   0.00000  Uiso   1.00
Cl36   Cl    0.18336   0.26348   0.47383   0.00000  Uiso   1.00
Cl37   Cl    0.14993   0.06985   0.02616   0.00000  Uiso   1.00
Cl38   Cl    0.15699   0.26387   0.11229   0.00000  Uiso   1.00
Cl39   Cl    0.17634   0.06946   0.38771   0.00000  Uiso   1.00
Cl40   Cl    0.13325   0.25630   0.37861   0.00000  Uiso   1.00
Cl41   Cl    0.20004   0.07701   0.12138   0.00000  Uiso   1.00
Cl42   Cl    0.04177   0.06795   0.25405   0.00000  Uiso   1.00
Cu43   Cu    0.16667   0.21355   0.25000   0.00000  Uiso   1.00
Cu44   Cu    0.16667   0.11978   0.25000   0.00000  Uiso   1.00
H45    H     0.08035   0.09442   0.14996   0.00000  Uiso   1.00
H46    H     0.25305   0.23896   0.35001   0.00000  Uiso   1.00
H47    H     0.29493   0.04235   0.31515   0.00000  Uiso   1.00
H48    H     0.03840   0.29099   0.18484   0.00000  Uiso   1.00
N49    N     0.16667   0.28402   0.25000   0.00000  Uiso   1.00
N50    N     0.16667   0.04931   0.25000   0.00000  Uiso   1.00
O51    O     0.10655   0.20625   0.25000   0.00000  Uiso   1.00
O52    O     0.09275   0.08401   0.18031   0.00000  Uiso   1.00
O53    O     0.20979   0.30388   0.35633   0.00000  Uiso   1.00
O54    O     0.24065   0.24937   0.31966   0.00000  Uiso   1.00
O55    O     0.23203   0.08139   0.32212   0.00000  Uiso   1.00
O56    O     0.27120   0.02508   0.29811   0.00000  Uiso   1.00
O57    O     0.10130   0.25194   0.17789   0.00000  Uiso   1.00
O58    O     0.06213   0.30825   0.20189   0.00000  Uiso   1.00
O59    O     0.22679   0.12709   0.25000   0.00000  Uiso   1.00
O60    O     0.22679   0.20625   0.25000   0.00000  Uiso   1.00
O61    O     0.10655   0.12709   0.25000   0.00000  Uiso   1.00
O62    O     0.16666   0.20626   0.18573   0.00000  Uiso   1.00
O63    O     0.16667   0.12707   0.31427   0.00000  Uiso   1.00
O64    O     0.16667   0.20626   0.31427   0.00000  Uiso   1.00
O65    O     0.16666   0.12707   0.18573   0.00000  Uiso   1.00
O66    O     0.12350   0.02940   0.14366   0.00000  Uiso   1.00
C67    C     0.42109   0.16629   0.25295   0.00000  Uiso   1.00
C68    C     0.64668   0.20929   0.25254   0.00000  Uiso   1.00
C69    C     0.64410   0.12618   0.23807   0.00000  Uiso   1.00
C70    C     0.35589   0.20716   0.26190   0.00000  Uiso   1.00
C71    C     0.48183   0.20368   0.04552   0.00000  Uiso   1.00
C72    C     0.51814   0.12964   0.45448   0.00000  Uiso   1.00
C73    C     0.49890   0.20956   0.45130   0.00000  Uiso   1.00
C74    C     0.50107   0.12377   0.04869   0.00000  Uiso   1.00
C75    C     0.49037   0.20720   0.09101   0.00000  Uiso   1.00
C76    C     0.50961   0.12613   0.40899   0.00000  Uiso   1.00
C77    C     0.49079   0.20758   0.40557   0.00000  Uiso   1.00
C78    C     0.57891   0.16705   0.24704   0.00000  Uiso   1.00
C79    C     0.50918   0.12575   0.09443   0.00000  Uiso   1.00
C80    C     0.50239   0.16735   0.11665   0.00000  Uiso   1.00
C81    C     0.49760   0.16598   0.38335   0.00000  Uiso   1.00
C82    C     0.49589   0.16520   0.02377   0.00000  Uiso   1.00
C83    C     0.50407   0.16813   0.47623   0.00000  Uiso   1.00
C84    C     0.62352   0.16793   0.24430   0.00000  Uiso   1.00
C85    C     0.37648   0.16540   0.25567   0.00000  Uiso   1.00
C86    C     0.45263   0.04670   0.17920   0.00000  Uiso   1.00
C87    C     0.54738   0.28663   0.32078   0.00000  Uiso   1.00
C88    C     0.56662   0.04656   0.30017   0.00000  Uiso   1.00
C89    C     0.50177   0.16696   0.16515   0.00000  Uiso   1.00
C90    C     0.43338   0.28677   0.19983   0.00000  Uiso   1.00
C91    C     0.49823   0.16637   0.33485   0.00000  Uiso   1.00
C92    C     0.47369   0.02471   0.22008   0.00000  Uiso   1.00
C93    C     0.52632   0.30862   0.27992   0.00000  Uiso   1.00
C94    C     0.52858   0.02457   0.27741   0.00000  Uiso   1.00
C95    C     0.47142   0.30876   0.22259   0.00000  Uiso   1.00
C96    C     0.35331   0.12404   0.24742   0.00000  Uiso   1.00
Cl97   Cl    0.44131   0.23837   0.01989   0.00000  Uiso   1.00
Cl98   Cl    0.62489   0.26539   0.24587   0.00000  Uiso   1.00
Cl99   Cl    0.61827   0.07743   0.21247   0.00000  Uiso   1.00
Cl100  Cl    0.38171   0.25590   0.28751   0.00000  Uiso   1.00
Cl101  Cl    0.55866   0.09496   0.48011   0.00000  Uiso   1.00
Cl102  Cl    0.51670   0.26348   0.47383   0.00000  Uiso   1.00
Cl103  Cl    0.48326   0.06985   0.02616   0.00000  Uiso   1.00
Cl104  Cl    0.49032   0.26387   0.11229   0.00000  Uiso   1.00
Cl105  Cl    0.50967   0.06946   0.38771   0.00000  Uiso   1.00
Cl106  Cl    0.46658   0.25630   0.37861   0.00000  Uiso   1.00
Cl107  Cl    0.53338   0.07701   0.12138   0.00000  Uiso   1.00
Cl108  Cl    0.37511   0.06795   0.25405   0.00000  Uiso   1.00
Cu109  Cu    0.50000   0.21355   0.25000   0.00000  Uiso   1.00
Cu110  Cu    0.50000   0.11978   0.25000   0.00000  Uiso   1.00
H111   H     0.41368   0.09442   0.14996   0.00000  Uiso   1.00
H112   H     0.58638   0.23896   0.35001   0.00000  Uiso   1.00
H113   H     0.62827   0.04235   0.31515   0.00000  Uiso   1.00
H114   H     0.37173   0.29099   0.18484   0.00000  Uiso   1.00
N115   N     0.50000   0.28402   0.25000   0.00000  Uiso   1.00
N116   N     0.50000   0.04931   0.25000   0.00000  Uiso   1.00
O117   O     0.43988   0.20625   0.25000   0.00000  Uiso   1.00
O118   O     0.42608   0.08401   0.18031   0.00000  Uiso   1.00
O119   O     0.54312   0.30388   0.35633   0.00000  Uiso   1.00
O120   O     0.57398   0.24937   0.31966   0.00000  Uiso   1.00
O121   O     0.56537   0.08139   0.32212   0.00000  Uiso   1.00
O122   O     0.60453   0.02508   0.29811   0.00000  Uiso   1.00
O123   O     0.43463   0.25194   0.17789   0.00000  Uiso   1.00
O124   O     0.39546   0.30825   0.20189   0.00000  Uiso   1.00
O125   O     0.56012   0.12709   0.25000   0.00000  Uiso   1.00
O126   O     0.56012   0.20625   0.25000   0.00000  Uiso   1.00
O127   O     0.43988   0.12709   0.25000   0.00000  Uiso   1.00
O128   O     0.50000   0.20626   0.18573   0.00000  Uiso   1.00
O129   O     0.50000   0.12707   0.31427   0.00000  Uiso   1.00
O130   O     0.50000   0.20626   0.31427   0.00000  Uiso   1.00
O131   O     0.50000   0.12707   0.18573   0.00000  Uiso   1.00
O132   O     0.45683   0.02940   0.14366   0.00000  Uiso   1.00
C133   C     0.75442   0.16629   0.25295   0.00000  Uiso   1.00
C134   C     0.98002   0.20929   0.25254   0.00000  Uiso   1.00
C135   C     0.97743   0.12618   0.23807   0.00000  Uiso   1.00
C136   C     0.68923   0.20716   0.26190   0.00000  Uiso   1.00
C137   C     0.81517   0.20368   0.04552   0.00000  Uiso   1.00
C138   C     0.85147   0.12964   0.45448   0.00000  Uiso   1.00
C139   C     0.83223   0.20956   0.45130   0.00000  Uiso   1.00
C140   C     0.83440   0.12377   0.04869   0.00000  Uiso   1.00
C141   C     0.82370   0.20720   0.09101   0.00000  Uiso   1.00
C142   C     0.84295   0.12613   0.40899   0.00000  Uiso   1.00
C143   C     0.82412   0.20758   0.40557   0.00000  Uiso   1.00
C144   C     0.91225   0.16705   0.24704   0.00000  Uiso   1.00
C145   C     0.84252   0.12575   0.09443   0.00000  Uiso   1.00
C146   C     0.83572   0.16735   0.11665   0.00000  Uiso   1.00
C147   C     0.83093   0.16598   0.38335   0.00000  Uiso   1.00
C148   C     0.82923   0.16520   0.02377   0.00000  Uiso   1.00
C149   C     0.83741   0.16813   0.47623   0.00000  Uiso   1.00
C150   C     0.95685   0.16793   0.24430   0.00000  Uiso   1.00
C151   C     0.70981   0.16540   0.25567   0.00000  Uiso   1.00
C152   C     0.78596   0.04670   0.17920   0.00000  Uiso   1.00
C153   C     0.88071   0.28663   0.32078   0.00000  Uiso   1.00
C154   C     0.89995   0.04656   0.30017   0.00000  Uiso   1.00
C155   C     0.83510   0.16696   0.16515   0.00000  Uiso   1.00
C156   C     0.76671   0.28677   0.19983   0.00000  Uiso   1.00
C157   C     0.83156   0.16637   0.33485   0.00000  Uiso   1.00
C158   C     0.80702   0.02471   0.22008   0.00000  Uiso   1.00
C159   C     0.85965   0.30862   0.27992   0.00000  Uiso   1.00
C160   C     0.86191   0.02457   0.27741   0.00000  Uiso   1.00
C161   C     0.80475   0.30876   0.22259   0.00000  Uiso   1.00
C162   C     0.68665   0.12404   0.24742   0.00000  Uiso   1.00
Cl163  Cl    0.77464   0.23837   0.01989   0.00000  Uiso   1.00
Cl164  Cl    0.95822   0.26539   0.24587   0.00000  Uiso   1.00
Cl165  Cl    0.95161   0.07743   0.21247   0.00000  Uiso   1.00
Cl166  Cl    0.71505   0.25590   0.28751   0.00000  Uiso   1.00
Cl167  Cl    0.89199   0.09496   0.48011   0.00000  Uiso   1.00
Cl168  Cl    0.85003   0.26348   0.47383   0.00000  Uiso   1.00
Cl169  Cl    0.81660   0.06985   0.02616   0.00000  Uiso   1.00
Cl170  Cl    0.82365   0.26387   0.11229   0.00000  Uiso   1.00
Cl171  Cl    0.84300   0.06946   0.38771   0.00000  Uiso   1.00
Cl172  Cl    0.79991   0.25630   0.37861   0.00000  Uiso   1.00
Cl173  Cl    0.86671   0.07701   0.12138   0.00000  Uiso   1.00
Cl174  Cl    0.70844   0.06795   0.25405   0.00000  Uiso   1.00
Cu175  Cu    0.83333   0.21355   0.25000   0.00000  Uiso   1.00
Cu176  Cu    0.83333   0.11978   0.25000   0.00000  Uiso   1.00
H177   H     0.74702   0.09442   0.14996   0.00000  Uiso   1.00
H178   H     0.91972   0.23896   0.35001   0.00000  Uiso   1.00
H179   H     0.96160   0.04235   0.31515   0.00000  Uiso   1.00
H180   H     0.70507   0.29099   0.18484   0.00000  Uiso   1.00
N181   N     0.83333   0.28402   0.25000   0.00000  Uiso   1.00
N182   N     0.83333   0.04931   0.25000   0.00000  Uiso   1.00
O183   O     0.77321   0.20625   0.25000   0.00000  Uiso   1.00
O184   O     0.75941   0.08401   0.18031   0.00000  Uiso   1.00
O185   O     0.87646   0.30388   0.35633   0.00000  Uiso   1.00
O186   O     0.90732   0.24937   0.31966   0.00000  Uiso   1.00
O187   O     0.89870   0.08139   0.32212   0.00000  Uiso   1.00
O188   O     0.93787   0.02508   0.29811   0.00000  Uiso   1.00
O189   O     0.76797   0.25194   0.17789   0.00000  Uiso   1.00
O190   O     0.72880   0.30825   0.20189   0.00000  Uiso   1.00
O191   O     0.89345   0.12709   0.25000   0.00000  Uiso   1.00
O192   O     0.89345   0.20625   0.25000   0.00000  Uiso   1.00
O193   O     0.77321   0.12709   0.25000   0.00000  Uiso   1.00
O194   O     0.83333   0.20626   0.18573   0.00000  Uiso   1.00
O195   O     0.83334   0.12707   0.31427   0.00000  Uiso   1.00
O196   O     0.83334   0.20626   0.31427   0.00000  Uiso   1.00
O197   O     0.83333   0.12707   0.18573   0.00000  Uiso   1.00
O198   O     0.79017   0.02940   0.14366   0.00000  Uiso   1.00
C199   C     0.08775   0.49962   0.25295   0.00000  Uiso   1.00
C200   C     0.31335   0.54262   0.25254   0.00000  Uiso   1.00
C201   C     0.31077   0.45951   0.23807   0.00000  Uiso   1.00
C202   C     0.02256   0.54049   0.26190   0.00000  Uiso   1.00
C203   C     0.14850   0.53702   0.04552   0.00000  Uiso   1.00
C204   C     0.18481   0.46298   0.45448   0.00000  Uiso   1.00
C205   C     0.16556   0.54289   0.45130   0.00000  Uiso   1.00
C206   C     0.16774   0.45710   0.04869   0.00000  Uiso   1.00
C207   C     0.15703   0.54054   0.09101   0.00000  Uiso   1.00
C208   C     0.17628   0.45946   0.40899   0.00000  Uiso   1.00
C209   C     0.15746   0.54091   0.40557   0.00000  Uiso   1.00
C210   C     0.24558   0.50038   0.24704   0.00000  Uiso   1.00
C211   C     0.17585   0.45908   0.09443   0.00000  Uiso   1.00
C212   C     0.16906   0.50068   0.11665   0.00000  Uiso   1.00
C213   C     0.16426   0.49932   0.38335   0.00000  Uiso   1.00
C214   C     0.16256   0.49853   0.02377   0.00000  Uiso   1.00
C215   C     0.17074   0.50146   0.47623   0.00000  Uiso   1.00
C216   C     0.29018   0.50127   0.24430   0.00000  Uiso   1.00
C217   C     0.04315   0.49873   0.25567   0.00000  Uiso   1.00
C218   C     0.11929   0.38003   0.17920   0.00000  Uiso   1.00
C219   C     0.21404   0.61996   0.32078   0.00000  Uiso   1.00
C220   C     0.23328   0.37990   0.30017   0.00000  Uiso   1.00
C221   C     0.16843   0.50030   0.16515   0.00000  Uiso   1.00
C222   C     0.10005   0.62010   0.19983   0.00000  Uiso   1.00
C223   C     0.16490   0.49970   0.33485   0.00000  Uiso   1.00
C224   C     0.14035   0.35804   0.22008   0.00000  Uiso   1.00
C225   C     0.19298   0.64196   0.27992   0.00000  Uiso   1.00
C226   C     0.19525   0.35790   0.27741   0.00000  Uiso   1.00
C227   C     0.13808   0.64210   0.22259   0.00000  Uiso   1.00
C228   C     0.01998   0.45738   0.24742   0.00000  Uiso   1.00
Cl229  Cl    0.10798   0.57170   0.01989   0.00000  Uiso   1.00
Cl230  Cl    0.29156   0.59872   0.24587   0.00000  Uiso   1.00
Cl231  Cl    0.28494   0.41077   0.21247   0.00000  Uiso   1.00
Cl232  Cl    0.04838   0.58923   0.28751   0.00000  Uiso   1.00
Cl233  Cl    0.22533   0.42829   0.48011   0.00000  Uiso   1.00
Cl234  Cl    0.18336   0.59681   0.47383   0.00000  Uiso   1.00
Cl235  Cl    0.14993   0.40318   0.02616   0.00000  Uiso   1.00
Cl236  Cl    0.15699   0.59720   0.11229   0.00000  Uiso   1.00
Cl237  Cl    0.17634   0.40279   0.38771   0.00000  Uiso   1.00
Cl238  Cl    0.13325   0.58964   0.37861   0.00000  Uiso   1.00
Cl239  Cl    0.20004   0.41034   0.12138   0.00000  Uiso   1.00
Cl240  Cl    0.04177   0.40128   0.25405   0.00000  Uiso   1.00
Cu241  Cu    0.16667   0.54689   0.25000   0.00000  Uiso   1.00
Cu242  Cu    0.16667   0.45311   0.25000   0.00000  Uiso   1.00
H243   H     0.08035   0.42776   0.14996   0.00000  Uiso   1.00
H244   H     0.25305   0.57229   0.35001   0.00000  Uiso   1.00
H245   H     0.29493   0.37568   0.31515   0.00000  Uiso   1.00
H246   H     0.03840   0.62432   0.18484   0.00000  Uiso   1.00
N247   N     0.16667   0.61736   0.25000   0.00000  Uiso   1.00
N248   N     0.16667   0.38264   0.25000   0.00000  Uiso   1.00
O249   O     0.10655   0.53958   0.25000   0.00000  Uiso   1.00
O250   O     0.09275   0.41735   0.18031   0.00000  Uiso   1.00
O251   O     0.20979   0.63721   0.35633   0.00000  Uiso   1.00
O252   O     0.24065   0.58270   0.31966   0.00000  Uiso   1.00
O253   O     0.23203   0.41472   0.32212   0.00000  Uiso   1.00
O254   O     0.27120   0.35842   0.29811   0.00000  Uiso   1.00
O255   O     0.10130   0.58528   0.17789   0.00000  Uiso   1.00
O256   O     0.06213   0.64158   0.20189   0.00000  Uiso   1.00
O257   O     0.22679   0.46042   0.25000   0.00000  Uiso   1.00
O258   O     0.22679   0.53958   0.25000   0.00000  Uiso   1.00
O259   O     0.10655   0.46042   0.25000   0.00000  Uiso   1.00
O260   O     0.16666   0.53959   0.18573   0.00000  Uiso   1.00
O261   O     0.16667   0.46041   0.31427   0.00000  Uiso   1.00
O262   O     0.16667   0.53959   0.31427   0.00000  Uiso   1.00
O263   O     0.16666   0.46041   0.18573   0.00000  Uiso   1.00
O264   O     0.12350   0.36273   0.14366   0.00000  Uiso   1.00
C265   C     0.42109   0.49962   0.25295   0.00000  Uiso   1.00
C266   C     0.64668   0.54262   0.25254   0.00000  Uiso   1.00
C267   C     0.64410   0.45951   0.23807   0.00000  Uiso   1.00
C268   C     0.35589   0.54049   0.26190   0.00000  Uiso   1.00
C269   C     0.48183   0.53702   0.04552   0.00000  Uiso   1.00
C270   C     0.51814   0.46298   0.45448   0.00000  Uiso   1.00
C271   C     0.49890   0.54289   0.45130   0.00000  Uiso   1.00
C272   C     0.50107   0.45710   0.04869   0.00000  Uiso   1.00
C273   C     0.49037   0.54054   0.09101   0.00000  Uiso   1.00
C274   C     0.50961   0.45946   0.40899   0.00000  Uiso   1.00
C275   C     0.49079   0.54091   0.40557   0.00000  Uiso   1.00
C276   C     0.57891   0.50038   0.24704   0.00000  Uiso   1.00
C277   C     0.50918   0.45908   0.09443   0.00000  Uiso   1.00
C278   C     0.50239   0.50068   0.11665   0.00000  Uiso   1.00
C279   C     0.49760   0.49932   0.38335   0.00000  Uiso   1.00
C280   C     0.49589   0.49853   0.02377   0.00000  Uiso   1.00
C281   C     0.50407   0.50146   0.47623   0.00000  Uiso   1.00
C282   C     0.62352   0.50127   0.24430   0.00000  Uiso   1.00
C283   C     0.37648   0.49873   0.25567   0.00000  Uiso   1.00
C284   C     0.45263   0.38003   0.17920   0.00000  Uiso   1.00
C285   C     0.54738   0.61996   0.32078   0.00000  Uiso   1.00
C286   C     0.56662   0.37990   0.30017   0.00000  Uiso   1.00
C287   C     0.50177   0.50030   0.16515   0.00000  Uiso   1.00
C288   C     0.43338   0.62010   0.19983   0.00000  Uiso   1.00
C289   C     0.49823   0.49970   0.33485   0.00000  Uiso   1.00
C290   C     0.47369   0.35804   0.22008   0.00000  Uiso   1.00
C291   C     0.52632   0.64196   0.27992   0.00000  Uiso   1.00
C292   C     0.52858   0.35790   0.27741   0.00000  Uiso   1.00
C293   C     0.47142   0.64210   0.22259   0.00000  Uiso   1.00
C294   C     0.35331   0.45738   0.24742   0.00000  Uiso   1.00
Cl295  Cl    0.44131   0.57170   0.01989   0.00000  Uiso   1.00
Cl296  Cl    0.62489   0.59872   0.24587   0.00000  Uiso   1.00
Cl297  Cl    0.61827   0.41077   0.21247   0.00000  Uiso   1.00
Cl298  Cl    0.38171   0.58923   0.28751   0.00000  Uiso   1.00
Cl299  Cl    0.55866   0.42829   0.48011   0.00000  Uiso   1.00
Cl300  Cl    0.51670   0.59681   0.47383   0.00000  Uiso   1.00
Cl301  Cl    0.48326   0.40318   0.02616   0.00000  Uiso   1.00
Cl302  Cl    0.49032   0.59720   0.11229   0.00000  Uiso   1.00
Cl303  Cl    0.50967   0.40279   0.38771   0.00000  Uiso   1.00
Cl304  Cl    0.46658   0.58964   0.37861   0.00000  Uiso   1.00
Cl305  Cl    0.53338   0.41034   0.12138   0.00000  Uiso   1.00
Cl306  Cl    0.37511   0.40128   0.25405   0.00000  Uiso   1.00
Cu307  Cu    0.50000   0.54689   0.25000   0.00000  Uiso   1.00
Cu308  Cu    0.50000   0.45311   0.25000   0.00000  Uiso   1.00
H309   H     0.41368   0.42776   0.14996   0.00000  Uiso   1.00
H310   H     0.58638   0.57229   0.35001   0.00000  Uiso   1.00
H311   H     0.62827   0.37568   0.31515   0.00000  Uiso   1.00
H312   H     0.37173   0.62432   0.18484   0.00000  Uiso   1.00
N313   N     0.50000   0.61736   0.25000   0.00000  Uiso   1.00
N314   N     0.50000   0.38264   0.25000   0.00000  Uiso   1.00
O315   O     0.43988   0.53958   0.25000   0.00000  Uiso   1.00
O316   O     0.42608   0.41735   0.18031   0.00000  Uiso   1.00
O317   O     0.54312   0.63721   0.35633   0.00000  Uiso   1.00
O318   O     0.57398   0.58270   0.31966   0.00000  Uiso   1.00
O319   O     0.56537   0.41472   0.32212   0.00000  Uiso   1.00
O320   O     0.60453   0.35842   0.29811   0.00000  Uiso   1.00
O321   O     0.43463   0.58528   0.17789   0.00000  Uiso   1.00
O322   O     0.39546   0.64158   0.20189   0.00000  Uiso   1.00
O323   O     0.56012   0.46042   0.25000   0.00000  Uiso   1.00
O324   O     0.56012   0.53958   0.25000   0.00000  Uiso   1.00
O325   O     0.43988   0.46042   0.25000   0.00000  Uiso   1.00
O326   O     0.50000   0.53959   0.18573   0.00000  Uiso   1.00
O327   O     0.50000   0.46041   0.31427   0.00000  Uiso   1.00
O328   O     0.50000   0.53959   0.31427   0.00000  Uiso   1.00
O329   O     0.50000   0.46041   0.18573   0.00000  Uiso   1.00
O330   O     0.45683   0.36273   0.14366   0.00000  Uiso   1.00
C331   C     0.75442   0.49962   0.25295   0.00000  Uiso   1.00
C332   C     0.98002   0.54262   0.25254   0.00000  Uiso   1.00
C333   C     0.97743   0.45951   0.23807   0.00000  Uiso   1.00
C334   C     0.68923   0.54049   0.26190   0.00000  Uiso   1.00
C335   C     0.81517   0.53702   0.04552   0.00000  Uiso   1.00
C336   C     0.85147   0.46298   0.45448   0.00000  Uiso   1.00
C337   C     0.83223   0.54289   0.45130   0.00000  Uiso   1.00
C338   C     0.83440   0.45710   0.04869   0.00000  Uiso   1.00
C339   C     0.82370   0.54054   0.09101   0.00000  Uiso   1.00
C340   C     0.84295   0.45946   0.40899   0.00000  Uiso   1.00
C341   C     0.82412   0.54091   0.40557   0.00000  Uiso   1.00
C342   C     0.91225   0.50038   0.24704   0.00000  Uiso   1.00
C343   C     0.84252   0.45908   0.09443   0.00000  Uiso   1.00
C344   C     0.83572   0.50068   0.11665   0.00000  Uiso   1.00
C345   C     0.83093   0.49932   0.38335   0.00000  Uiso   1.00
C346   C     0.82923   0.49853   0.02377   0.00000  Uiso   1.00
C347   C     0.83741   0.50146   0.47623   0.00000  Uiso   1.00
C348   C     0.95685   0.50127   0.24430   0.00000  Uiso   1.00
C349   C     0.70981   0.49873   0.25567   0.00000  Uiso   1.00
C350   C     0.78596   0.38003   0.17920   0.00000  Uiso   1.00
C351   C     0.88071   0.61996   0.32078   0.00000  Uiso   1.00
C352   C     0.89995   0.37990   0.30017   0.00000  Uiso   1.00
C353   C     0.83510   0.50030   0.16515   0.00000  Uiso   1.00
C354   C     0.76671   0.62010   0.19983   0.00000  Uiso   1.00
C355   C     0.83156   0.49970   0.33485   0.00000  Uiso   1.00
C356   C     0.80702   0.35804   0.22008   0.00000  Uiso   1.00
C357   C     0.85965   0.64196   0.27992   0.00000  Uiso   1.00
C358   C     0.86191   0.35790   0.27741   0.00000  Uiso   1.00
C359   C     0.80475   0.64210   0.22259   0.00000  Uiso   1.00
C360   C     0.68665   0.45738   0.24742   0.00000  Uiso   1.00
Cl361  Cl    0.77464   0.57170   0.01989   0.00000  Uiso   1.00
Cl362  Cl    0.95822   0.59872   0.24587   0.00000  Uiso   1.00
Cl363  Cl    0.95161   0.41077   0.21247   0.00000  Uiso   1.00
Cl364  Cl    0.71505   0.58923   0.28751   0.00000  Uiso   1.00
Cl365  Cl    0.89199   0.42829   0.48011   0.00000  Uiso   1.00
Cl366  Cl    0.85003   0.59681   0.47383   0.00000  Uiso   1.00
Cl367  Cl    0.81660   0.40318   0.02616   0.00000  Uiso   1.00
Cl368  Cl    0.82365   0.59720   0.11229   0.00000  Uiso   1.00
Cl369  Cl    0.84300   0.40279   0.38771   0.00000  Uiso   1.00
Cl370  Cl    0.79991   0.58964   0.37861   0.00000  Uiso   1.00
Cl371  Cl    0.86671   0.41034   0.12138   0.00000  Uiso   1.00
Cl372  Cl    0.70844   0.40128   0.25405   0.00000  Uiso   1.00
Cu373  Cu    0.83333   0.54689   0.25000   0.00000  Uiso   1.00
Cu374  Cu    0.83333   0.45311   0.25000   0.00000  Uiso   1.00
H375   H     0.74702   0.42776   0.14996   0.00000  Uiso   1.00
H376   H     0.91972   0.57229   0.35001   0.00000  Uiso   1.00
H377   H     0.96160   0.37568   0.31515   0.00000  Uiso   1.00
H378   H     0.70507   0.62432   0.18484   0.00000  Uiso   1.00
N379   N     0.83333   0.61736   0.25000   0.00000  Uiso   1.00
N380   N     0.83333   0.38264   0.25000   0.00000  Uiso   1.00
O381   O     0.77321   0.53958   0.25000   0.00000  Uiso   1.00
O382   O     0.75941   0.41735   0.18031   0.00000  Uiso   1.00
O383   O     0.87646   0.63721   0.35633   0.00000  Uiso   1.00
O384   O     0.90732   0.58270   0.31966   0.00000  Uiso   1.00
O385   O     0.89870   0.41472   0.32212   0.00000  Uiso   1.00
O386   O     0.93787   0.35842   0.29811   0.00000  Uiso   1.00
O387   O     0.76797   0.58528   0.17789   0.00000  Uiso   1.00
O388   O     0.72880   0.64158   0.20189   0.00000  Uiso   1.00
O389   O     0.89345   0.46042   0.25000   0.00000  Uiso   1.00
O390   O     0.89345   0.53958   0.25000   0.00000  Uiso   1.00
O391   O     0.77321   0.46042   0.25000   0.00000  Uiso   1.00
O392   O     0.83333   0.53959   0.18573   0.00000  Uiso   1.00
O393   O     0.83334   0.46041   0.31427   0.00000  Uiso   1.00
O394   O     0.83334   0.53959   0.31427   0.00000  Uiso   1.00
O395   O     0.83333   0.46041   0.18573   0.00000  Uiso   1.00
O396   O     0.79017   0.36273   0.14366   0.00000  Uiso   1.00
C397   C     0.08775   0.83295   0.25295   0.00000  Uiso   1.00
C398   C     0.31335   0.87596   0.25254   0.00000  Uiso   1.00
C399   C     0.31077   0.79284   0.23807   0.00000  Uiso   1.00
C400   C     0.02256   0.87382   0.26190   0.00000  Uiso   1.00
C401   C     0.14850   0.87035   0.04552   0.00000  Uiso   1.00
C402   C     0.18481   0.79631   0.45448   0.00000  Uiso   1.00
C403   C     0.16556   0.87622   0.45130   0.00000  Uiso   1.00
C404   C     0.16774   0.79044   0.04869   0.00000  Uiso   1.00
C405   C     0.15703   0.87387   0.09101   0.00000  Uiso   1.00
C406   C     0.17628   0.79279   0.40899   0.00000  Uiso   1.00
C407   C     0.15746   0.87424   0.40557   0.00000  Uiso   1.00
C408   C     0.24558   0.83371   0.24704   0.00000  Uiso   1.00
C409   C     0.17585   0.79242   0.09443   0.00000  Uiso   1.00
C410   C     0.16906   0.83401   0.11665   0.00000  Uiso   1.00
C411   C     0.16426   0.83265   0.38335   0.00000  Uiso   1.00
C412   C     0.16256   0.83187   0.02377   0.00000  Uiso   1.00
C413   C     0.17074   0.83479   0.47623   0.00000  Uiso   1.00
C414   C     0.29018   0.83460   0.24430   0.00000  Uiso   1.00
C415   C     0.04315   0.83207   0.25567   0.00000  Uiso   1.00
C416   C     0.11929   0.71336   0.17920   0.00000  Uiso   1.00
C417   C     0.21404   0.95330   0.32078   0.00000  Uiso   1.00
C418   C     0.23328   0.71323   0.30017   0.00000  Uiso   1.00
C419   C     0.16843   0.83363   0.16515   0.00000  Uiso   1.00
C420   C     0.10005   0.95344   0.19983   0.00000  Uiso   1.00
C421   C     0.16490   0.83304   0.33485   0.00000  Uiso   1.00
C422   C     0.14035   0.69138   0.22008   0.00000  Uiso   1.00
C423   C     0.19298   0.97529   0.27992   0.00000  Uiso   1.00
C424   C     0.19525   0.69123   0.27741   0.00000  Uiso   1.00
C425   C     0.13808   0.97543   0.22259   0.00000  Uiso   1.00
C426   C     0.01998   0.79071   0.24742   0.00000  Uiso   1.00
Cl427  Cl    0.10798   0.90503   0.01989   0.00000  Uiso   1.00
Cl428  Cl    0.29156   0.93205   0.24587   0.00000  Uiso   1.00
Cl429  Cl    0.28494   0.74410   0.21247   0.00000  Uiso   1.00
Cl430  Cl    0.04838   0.92257   0.28751   0.00000  Uiso   1.00
Cl431  Cl    0.22533   0.76163   0.48011   0.00000  Uiso   1.00
Cl432  Cl    0.18336   0.93014   0.47383   0.00000  Uiso   1.00
Cl433  Cl    0.14993   0.73652   0.02616   0.00000  Uiso   1.00
Cl434  Cl    0.15699   0.93054   0.11229   0.00000  Uiso   1.00
Cl435  Cl    0.17634   0.73613   0.38771   0.00000  Uiso   1.00
Cl436  Cl    0.13325   0.92297   0.37861   0.00000  Uiso   1.00
Cl437  Cl    0.20004   0.74368   0.12138   0.00000  Uiso   1.00
Cl438  Cl    0.04177   0.73461   0.25405   0.00000  Uiso   1.00
Cu439  Cu    0.16667   0.88022   0.25000   0.00000  Uiso   1.00
Cu440  Cu    0.16667   0.78645   0.25000   0.00000  Uiso   1.00
H441   H     0.08035   0.76109   0.14996   0.00000  Uiso   1.00
H442   H     0.25305   0.90562   0.35001   0.00000  Uiso   1.00
H443   H     0.29493   0.70902   0.31515   0.00000  Uiso   1.00
H444   H     0.03840   0.95766   0.18484   0.00000  Uiso   1.00
N445   N     0.16667   0.95069   0.25000   0.00000  Uiso   1.00
N446   N     0.16667   0.71598   0.25000   0.00000  Uiso   1.00
O447   O     0.10655   0.87291   0.25000   0.00000  Uiso   1.00
O448   O     0.09275   0.75068   0.18031   0.00000  Uiso   1.00
O449   O     0.20979   0.97055   0.35633   0.00000  Uiso   1.00
O450   O     0.24065   0.91604   0.31966   0.00000  Uiso   1.00
O451   O     0.23203   0.74805   0.32212   0.00000  Uiso   1.00
O452   O     0.27120   0.69175   0.29811   0.00000  Uiso   1.00
O453   O     0.10130   0.91861   0.17789   0.00000  Uiso   1.00
O454   O     0.06213   0.97492   0.20189   0.00000  Uiso   1.00
O455   O     0.22679   0.79375   0.25000   0.00000  Uiso   1.00
O456   O     0.22679   0.87291   0.25000   0.00000  Uiso   1.00
O457   O     0.10655   0.79375   0.25000   0.00000  Uiso   1.00
O458   O     0.16666   0.87293   0.18573   0.00000  Uiso   1.00
O459   O     0.16667   0.79374   0.31427   0.00000  Uiso   1.00
O460   O     0.16667   0.87293   0.31427   0.00000  Uiso   1.00
O461   O     0.16666   0.79374   0.18573   0.00000  Uiso   1.00
O462   O     0.12350   0.69607   0.14366   0.00000  Uiso   1.00
C463   C     0.42109   0.83295   0.25295   0.00000  Uiso   1.00
C464   C     0.64668   0.87596   0.25254   0.00000  Uiso   1.00
C465   C     0.64410   0.79284   0.23807   0.00000  Uiso   1.00
C466   C     0.35589   0.87382   0.26190   0.00000  Uiso   1.00
C467   C     0.48183   0.87035   0.04552   0.00000  Uiso   1.00
C468   C     0.51814   0.79631   0.45448   0.00000  Uiso   1.00
C469   C     0.49890   0.87622   0.45130   0.00000  Uiso   1.00
C470   C     0.50107   0.79044   0.04869   0.00000  Uiso   1.00
C471   C     0.49037   0.87387   0.09101   0.00000  Uiso   1.00
C472   C     0.50961   0.79279   0.40899   0.00000  Uiso   1.00
C473   C     0.49079   0.87424   0.40557   0.00000  Uiso   1.00
C474   C     0.57891   0.83371   0.24704   0.00000  Uiso   1.00
C475   C     0.50918   0.79242   0.09443   0.00000  Uiso   1.00
C476   C     0.50239   0.83401   0.11665   0.00000  Uiso   1.00
C477   C     0.49760   0.83265   0.38335   0.00000  Uiso   1.00
C478   C     0.49589   0.83187   0.02377   0.00000  Uiso   1.00
C479   C     0.50407   0.83479   0.47623   0.00000  Uiso   1.00
C480   C     0.62352   0.83460   0.24430   0.00000  Uiso   1.00
C481   C     0.37648   0.83207   0.25567   0.00000  Uiso   1.00
C482   C     0.45263   0.71336   0.17920   0.00000  Uiso   1.00
C483   C     0.54738   0.95330   0.32078   0.00000  Uiso   1.00
C484   C     0.56662   0.71323   0.30017   0.00000  Uiso   1.00
C485   C     0.50177   0.83363   0.16515   0.00000  Uiso   1.00
C486   C     0.43338   0.95344   0.19983   0.00000  Uiso   1.00
C487   C     0.49823   0.83304   0.33485   0.00000  Uiso   1.00
C488   C     0.47369   0.69138   0.22008   0.00000  Uiso   1.00
C489   C     0.52632   0.97529   0.27992   0.00000  Uiso   1.00
C490   C     0.52858   0.69123   0.27741   0.00000  Uiso   1.00
C491   C     0.47142   0.97543   0.22259   0.00000  Uiso   1.00
C492   C     0.35331   0.79071   0.24742   0.00000  Uiso   1.00
Cl493  Cl    0.44131   0.90503   0.01989   0.00000  Uiso   1.00
Cl494  Cl    0.62489   0.93205   0.24587   0.00000  Uiso   1.00
Cl495  Cl    0.61827   0.74410   0.21247   0.00000  Uiso   1.00
Cl496  Cl    0.38171   0.92257   0.28751   0.00000  Uiso   1.00
Cl497  Cl    0.55866   0.76163   0.48011   0.00000  Uiso   1.00
Cl498  Cl    0.51670   0.93014   0.47383   0.00000  Uiso   1.00
Cl499  Cl    0.48326   0.73652   0.02616   0.00000  Uiso   1.00
Cl500  Cl    0.49032   0.93054   0.11229   0.00000  Uiso   1.00
Cl501  Cl    0.50967   0.73613   0.38771   0.00000  Uiso   1.00
Cl502  Cl    0.46658   0.92297   0.37861   0.00000  Uiso   1.00
Cl503  Cl    0.53338   0.74368   0.12138   0.00000  Uiso   1.00
Cl504  Cl    0.37511   0.73461   0.25405   0.00000  Uiso   1.00
Cu505  Cu    0.50000   0.88022   0.25000   0.00000  Uiso   1.00
Cu506  Cu    0.50000   0.78645   0.25000   0.00000  Uiso   1.00
H507   H     0.41368   0.76109   0.14996   0.00000  Uiso   1.00
H508   H     0.58638   0.90562   0.35001   0.00000  Uiso   1.00
H509   H     0.62827   0.70902   0.31515   0.00000  Uiso   1.00
H510   H     0.37173   0.95766   0.18484   0.00000  Uiso   1.00
N511   N     0.50000   0.95069   0.25000   0.00000  Uiso   1.00
N512   N     0.50000   0.71598   0.25000   0.00000  Uiso   1.00
O513   O     0.43988   0.87291   0.25000   0.00000  Uiso   1.00
O514   O     0.42608   0.75068   0.18031   0.00000  Uiso   1.00
O515   O     0.54312   0.97055   0.35633   0.00000  Uiso   1.00
O516   O     0.57398   0.91604   0.31966   0.00000  Uiso   1.00
O517   O     0.56537   0.74805   0.32212   0.00000  Uiso   1.00
O518   O     0.60453   0.69175   0.29811   0.00000  Uiso   1.00
O519   O     0.43463   0.91861   0.17789   0.00000  Uiso   1.00
O520   O     0.39546   0.97492   0.20189   0.00000  Uiso   1.00
O521   O     0.56012   0.79375   0.25000   0.00000  Uiso   1.00
O522   O     0.56012   0.87291   0.25000   0.00000  Uiso   1.00
O523   O     0.43988   0.79375   0.25000   0.00000  Uiso   1.00
O524   O     0.50000   0.87293   0.18573   0.00000  Uiso   1.00
O525   O     0.50000   0.79374   0.31427   0.00000  Uiso   1.00
O526   O     0.50000   0.87293   0.31427   0.00000  Uiso   1.00
O527   O     0.50000   0.79374   0.18573   0.00000  Uiso   1.00
O528   O     0.45683   0.69607   0.14366   0.00000  Uiso   1.00
C529   C     0.75442   0.83295   0.25295   0.00000  Uiso   1.00
C530   C     0.98002   0.87596   0.25254   0.00000  Uiso   1.00
C531   C     0.97743   0.79284   0.23807   0.00000  Uiso   1.00
C532   C     0.68923   0.87382   0.26190   0.00000  Uiso   1.00
C533   C     0.81517   0.87035   0.04552   0.00000  Uiso   1.00
C534   C     0.85147   0.79631   0.45448   0.00000  Uiso   1.00
C535   C     0.83223   0.87622   0.45130   0.00000  Uiso   1.00
C536   C     0.83440   0.79044   0.04869   0.00000  Uiso   1.00
C537   C     0.82370   0.87387   0.09101   0.00000  Uiso   1.00
C538   C     0.84295   0.79279   0.40899   0.00000  Uiso   1.00
C539   C     0.82412   0.87424   0.40557   0.00000  Uiso   1.00
C540   C     0.91225   0.83371   0.24704   0.00000  Uiso   1.00
C541   C     0.84252   0.79242   0.09443   0.00000  Uiso   1.00
C542   C     0.83572   0.83401   0.11665   0.00000  Uiso   1.00
C543   C     0.83093   0.83265   0.38335   0.00000  Uiso   1.00
C544   C     0.82923   0.83187   0.02377   0.00000  Uiso   1.00
C545   C     0.83741   0.83479   0.47623   0.00000  Uiso   1.00
C546   C     0.95685   0.83460   0.24430   0.00000  Uiso   1.00
C547   C     0.70981   0.83207   0.25567   0.00000  Uiso   1.00
C548   C     0.78596   0.71336   0.17920   0.00000  Uiso   1.00
C549   C     0.88071   0.95330   0.32078   0.00000  Uiso   1.00
C550   C     0.89995   0.71323   0.30017   0.00000  Uiso   1.00
C551   C     0.83510   0.83363   0.16515   0.00000  Uiso   1.00
C552   C     0.76671   0.95344   0.19983   0.00000  Uiso   1.00
C553   C     0.83156   0.83304   0.33485   0.00000  Uiso   1.00
C554   C     0.80702   0.69138   0.22008   0.00000  Uiso   1.00
C555   C     0.85965   0.97529   0.27992   0.00000  Uiso   1.00
C556   C     0.86191   0.69123   0.27741   0.00000  Uiso   1.00
C557   C     0.80475   0.97543   0.22259   0.00000  Uiso   1.00
C558   C     0.68665   0.79071   0.24742   0.00000  Uiso   1.00
Cl559  Cl    0.77464   0.90503   0.01989   0.00000  Uiso   1.00
Cl560  Cl    0.95822   0.93205   0.24587   0.00000  Uiso   1.00
Cl561  Cl    0.95161   0.74410   0.21247   0.00000  Uiso   1.00
Cl562  Cl    0.71505   0.92257   0.28751   0.00000  Uiso   1.00
Cl563  Cl    0.89199   0.76163   0.48011   0.00000  Uiso   1.00
Cl564  Cl    0.85003   0.93014   0.47383   0.00000  Uiso   1.00
Cl565  Cl    0.81660   0.73652   0.02616   0.00000  Uiso   1.00
Cl566  Cl    0.82365   0.93054   0.11229   0.00000  Uiso   1.00
Cl567  Cl    0.84300   0.73613   0.38771   0.00000  Uiso   1.00
Cl568  Cl    0.79991   0.92297   0.37861   0.00000  Uiso   1.00
Cl569  Cl    0.86671   0.74368   0.12138   0.00000  Uiso   1.00
Cl570  Cl    0.70844   0.73461   0.25405   0.00000  Uiso   1.00
Cu571  Cu    0.83333   0.88022   0.25000   0.00000  Uiso   1.00
Cu572  Cu    0.83333   0.78645   0.25000   0.00000  Uiso   1.00
H573   H     0.74702   0.76109   0.14996   0.00000  Uiso   1.00
H574   H     0.91972   0.90562   0.35001   0.00000  Uiso   1.00
H575   H     0.96160   0.70902   0.31515   0.00000  Uiso   1.00
H576   H     0.70507   0.95766   0.18484   0.00000  Uiso   1.00
N577   N     0.83333   0.95069   0.25000   0.00000  Uiso   1.00
N578   N     0.83333   0.71598   0.25000   0.00000  Uiso   1.00
O579   O     0.77321   0.87291   0.25000   0.00000  Uiso   1.00
O580   O     0.75941   0.75068   0.18031   0.00000  Uiso   1.00
O581   O     0.87646   0.97055   0.35633   0.00000  Uiso   1.00
O582   O     0.90732   0.91604   0.31966   0.00000  Uiso   1.00
O583   O     0.89870   0.74805   0.32212   0.00000  Uiso   1.00
O584   O     0.93787   0.69175   0.29811   0.00000  Uiso   1.00
O585   O     0.76797   0.91861   0.17789   0.00000  Uiso   1.00
O586   O     0.72880   0.97492   0.20189   0.00000  Uiso   1.00
O587   O     0.89345   0.79375   0.25000   0.00000  Uiso   1.00
O588   O     0.89345   0.87291   0.25000   0.00000  Uiso   1.00
O589   O     0.77321   0.79375   0.25000   0.00000  Uiso   1.00
O590   O     0.83333   0.87293   0.18573   0.00000  Uiso   1.00
O591   O     0.83334   0.79374   0.31427   0.00000  Uiso   1.00
O592   O     0.83334   0.87293   0.31427   0.00000  Uiso   1.00
O593   O     0.83333   0.79374   0.18573   0.00000  Uiso   1.00
O594   O     0.79017   0.69607   0.14366   0.00000  Uiso   1.00
C595   C     0.08775   0.16629   0.75295   0.00000  Uiso   1.00
C596   C     0.31335   0.20929   0.75254   0.00000  Uiso   1.00
C597   C     0.31077   0.12618   0.73807   0.00000  Uiso   1.00
C598   C     0.02256   0.20716   0.76190   0.00000  Uiso   1.00
C599   C     0.14850   0.20368   0.54552   0.00000  Uiso   1.00
C600   C     0.18481   0.12964   0.95448   0.00000  Uiso   1.00
C601   C     0.16556   0.20956   0.95130   0.00000  Uiso   1.00
C602   C     0.16774   0.12377   0.54869   0.00000  Uiso   1.00
C603   C     0.15703   0.20720   0.59101   0.00000  Uiso   1.00
C604   C     0.17628   0.12613   0.90899   0.00000  Uiso   1.00
C605   C     0.15746   0.20758   0.90557   0.00000  Uiso   1.00
C606   C     0.24558   0.16705   0.74704   0.00000  Uiso   1.00
C607   C     0.17585   0.12575   0.59443   0.00000  Uiso   1.00
C608   C     0.16906   0.16735   0.61665   0.00000  Uiso   1.00
C609   C     0.16426   0.16598   0.88335   0.00000  Uiso   1.00
C610   C     0.16256   0.16520   0.52377   0.00000  Uiso   1.00
C611   C     0.17074   0.16813   0.97623   0.00000  Uiso   1.00
C612   C     0.29018   0.16793   0.74430   0.00000  Uiso   1.00
C613   C     0.04315   0.16540   0.75567   0.00000  Uiso   1.00
C614   C     0.11929   0.04670   0.67920   0.00000  Uiso   1.00
C615   C     0.21404   0.28663   0.82078   0.00000  Uiso   1.00
C616   C     0.23328   0.04656   0.80017   0.00000  Uiso   1.00
C617   C     0.16843   0.16696   0.66515   0.00000  Uiso   1.00
C618   C     0.10005   0.28677   0.69983   0.00000  Uiso   1.00
C619   C     0.16490   0.16637   0.83485   0.00000  Uiso   1.00
C620   C     0.14035   0.02471   0.72008   0.00000  Uiso   1.00
C621   C     0.19298   0.30862   0.77992   0.00000  Uiso   1.00
C622   C     0.19525   0.02457   0.77741   0.00000  Uiso   1.00
C623   C     0.13808   0.30876   0.72259   0.00000  Uiso   1.00
C624   C     0.01998   0.12404   0.74742   0.00000  Uiso   1.00
Cl625  Cl    0.10798   0.23837   0.51989   0.00000  Uiso   1.00
Cl626  Cl    0.29156   0.26539   0.74587   0.00000  Uiso   1.00
Cl627  Cl    0.28494   0.07743   0.71247   0.00000  Uiso   1.00
Cl628  Cl    0.04838   0.25590   0.78751   0.00000  Uiso   1.00
Cl629  Cl    0.22533   0.09496   0.98011   0.00000  Uiso   1.00
Cl630  Cl    0.18336   0.26348   0.97383   0.00000  Uiso   1.00
Cl631  Cl    0.14993   0.06985   0.52616   0.00000  Uiso   1.00
Cl632  Cl    0.15699   0.26387   0.61229   0.00000  Uiso   1.00
Cl633  Cl    0.17634   0.06946   0.88771   0.00000  Uiso   1.00
Cl634  Cl    0.13325   0.25630   0.87861   0.00000  Uiso   1.00
Cl635  Cl    0.20004   0.07701   0.62138   0.00000  Uiso   1.00
Cl636  Cl    0.04177   0.06795   0.75405   0.00000  Uiso   1.00
Cu637  Cu    0.16667   0.21355   0.75000   0.00000  Uiso   1.00
Cu638  Cu    0.16667   0.11978   0.75000   0.00000  Uiso   1.00
H639   H     0.08035   0.09442   0.64996   0.00000  Uiso   1.00
H640   H     0.25305   0.23896   0.85001   0.00000  Uiso   1.00
H641   H     0.29493   0.04235   0.81515   0.00000  Uiso   1.00
H642   H     0.03840   0.29099   0.68484   0.00000  Uiso   1.00
N643   N     0.16667   0.28402   0.75000   0.00000  Uiso   1.00
N644   N     0.16667   0.04931   0.75000   0.00000  Uiso   1.00
O645   O     0.10655   0.20625   0.75000   0.00000  Uiso   1.00
O646   O     0.09275   0.08401   0.68031   0.00000  Uiso   1.00
O647   O     0.20979   0.30388   0.85633   0.00000  Uiso   1.00
O648   O     0.24065   0.24937   0.81966   0.00000  Uiso   1.00
O649   O     0.23203   0.08139   0.82212   0.00000  Uiso   1.00
O650   O     0.27120   0.02508   0.79811   0.00000  Uiso   1.00
O651   O     0.10130   0.25194   0.67789   0.00000  Uiso   1.00
O652   O     0.06213   0.30825   0.70189   0.00000  Uiso   1.00
O653   O     0.22679   0.12709   0.75000   0.00000  Uiso   1.00
O654   O     0.22679   0.20625   0.75000   0.00000  Uiso   1.00
O655   O     0.10655   0.12709   0.75000   0.00000  Uiso   1.00
O656   O     0.16666   0.20626   0.68573   0.00000  Uiso   1.00
O657   O     0.16667   0.12707   0.81427   0.00000  Uiso   1.00
O658   O     0.16667   0.20626   0.81427   0.00000  Uiso   1.00
O659   O     0.16666   0.12707   0.68573   0.00000  Uiso   1.00
O660   O     0.12350   0.02940   0.64366   0.00000  Uiso   1.00
C661   C     0.42109   0.16629   0.75295   0.00000  Uiso   1.00
C662   C     0.64668   0.20929   0.75254   0.00000  Uiso   1.00
C663   C     0.64410   0.12618   0.73807   0.00000  Uiso   1.00
C664   C     0.35589   0.20716   0.76190   0.00000  Uiso   1.00
C665   C     0.48183   0.20368   0.54552   0.00000  Uiso   1.00
C666   C     0.51814   0.12964   0.95448   0.00000  Uiso   1.00
C667   C     0.49890   0.20956   0.95130   0.00000  Uiso   1.00
C668   C     0.50107   0.12377   0.54869   0.00000  Uiso   1.00
C669   C     0.49037   0.20720   0.59101   0.00000  Uiso   1.00
C670   C     0.50961   0.12613   0.90899   0.00000  Uiso   1.00
C671   C     0.49079   0.20758   0.90557   0.00000  Uiso   1.00
C672   C     0.57891   0.16705   0.74704   0.00000  Uiso   1.00
C673   C     0.50918   0.12575   0.59443   0.00000  Uiso   1.00
C674   C     0.50239   0.16735   0.61665   0.00000  Uiso   1.00
C675   C     0.49760   0.16598   0.88335   0.00000  Uiso   1.00
C676   C     0.49589   0.16520   0.52377   0.00000  Uiso   1.00
C677   C     0.50407   0.16813   0.97623   0.00000  Uiso   1.00
C678   C     0.62352   0.16793   0.74430   0.00000  Uiso   1.00
C679   C     0.37648   0.16540   0.75567   0.00000  Uiso   1.00
C680   C     0.45263   0.04670   0.67920   0.00000  Uiso   1.00
C681   C     0.54738   0.28663   0.82078   0.00000  Uiso   1.00
C682   C     0.56662   0.04656   0.80017   0.00000  Uiso   1.00
C683   C     0.50177   0.16696   0.66515   0.00000  Uiso   1.00
C684   C     0.43338   0.28677   0.69983   0.00000  Uiso   1.00
C685   C     0.49823   0.16637   0.83485   0.00000  Uiso   1.00
C686   C     0.47369   0.02471   0.72008   0.00000  Uiso   1.00
C687   C     0.52632   0.30862   0.77992   0.00000  Uiso   1.00
C688   C     0.52858   0.02457   0.77741   0.00000  Uiso   1.00
C689   C     0.47142   0.30876   0.72259   0.00000  Uiso   1.00
C690   C     0.35331   0.12404   0.74742   0.00000  Uiso   1.00
Cl691  Cl    0.44131   0.23837   0.51989   0.00000  Uiso   1.00
Cl692  Cl    0.62489   0.26539   0.74587   0.00000  Uiso   1.00
Cl693  Cl    0.61827   0.07743   0.71247   0.00000  Uiso   1.00
Cl694  Cl    0.38171   0.25590   0.78751   0.00000  Uiso   1.00
Cl695  Cl    0.55866   0.09496   0.98011   0.00000  Uiso   1.00
Cl696  Cl    0.51670   0.26348   0.97383   0.00000  Uiso   1.00
Cl697  Cl    0.48326   0.06985   0.52616   0.00000  Uiso   1.00
Cl698  Cl    0.49032   0.26387   0.61229   0.00000  Uiso   1.00
Cl699  Cl    0.50967   0.06946   0.88771   0.00000  Uiso   1.00
Cl700  Cl    0.46658   0.25630   0.87861   0.00000  Uiso   1.00
Cl701  Cl    0.53338   0.07701   0.62138   0.00000  Uiso   1.00
Cl702  Cl    0.37511   0.06795   0.75405   0.00000  Uiso   1.00
Cu703  Cu    0.50000   0.21355   0.75000   0.00000  Uiso   1.00
Cu704  Cu    0.50000   0.11978   0.75000   0.00000  Uiso   1.00
H705   H     0.41368   0.09442   0.64996   0.00000  Uiso   1.00
H706   H     0.58638   0.23896   0.85001   0.00000  Uiso   1.00
H707   H     0.62827   0.04235   0.81515   0.00000  Uiso   1.00
H708   H     0.37173   0.29099   0.68484   0.00000  Uiso   1.00
N709   N     0.50000   0.28402   0.75000   0.00000  Uiso   1.00
N710   N     0.50000   0.04931   0.75000   0.00000  Uiso   1.00
O711   O     0.43988   0.20625   0.75000   0.00000  Uiso   1.00
O712   O     0.42608   0.08401   0.68031   0.00000  Uiso   1.00
O713   O     0.54312   0.30388   0.85633   0.00000  Uiso   1.00
O714   O     0.57398   0.24937   0.81966   0.00000  Uiso   1.00
O715   O     0.56537   0.08139   0.82212   0.00000  Uiso   1.00
O716   O     0.60453   0.02508   0.79811   0.00000  Uiso   1.00
O717   O     0.43463   0.25194   0.67789   0.00000  Uiso   1.00
O718   O     0.39546   0.30825   0.70189   0.00000  Uiso   1.00
O719   O     0.56012   0.12709   0.75000   0.00000  Uiso   1.00
O720   O     0.56012   0.20625   0.75000   0.00000  Uiso   1.00
O721   O     0.43988   0.12709   0.75000   0.00000  Uiso   1.00
O722   O     0.50000   0.20626   0.68573   0.00000  Uiso   1.00
O723   O     0.50000   0.12707   0.81427   0.00000  Uiso   1.00
O724   O     0.50000   0.20626   0.81427   0.00000  Uiso   1.00
O725   O     0.50000   0.12707   0.68573   0.00000  Uiso   1.00
O726   O     0.45683   0.02940   0.64366   0.00000  Uiso   1.00
C727   C     0.75442   0.16629   0.75295   0.00000  Uiso   1.00
C728   C     0.98002   0.20929   0.75254   0.00000  Uiso   1.00
C729   C     0.97743   0.12618   0.73807   0.00000  Uiso   1.00
C730   C     0.68923   0.20716   0.76190   0.00000  Uiso   1.00
C731   C     0.81517   0.20368   0.54552   0.00000  Uiso   1.00
C732   C     0.85147   0.12964   0.95448   0.00000  Uiso   1.00
C733   C     0.83223   0.20956   0.95130   0.00000  Uiso   1.00
C734   C     0.83440   0.12377   0.54869   0.00000  Uiso   1.00
C735   C     0.82370   0.20720   0.59101   0.00000  Uiso   1.00
C736   C     0.84295   0.12613   0.90899   0.00000  Uiso   1.00
C737   C     0.82412   0.20758   0.90557   0.00000  Uiso   1.00
C738   C     0.91225   0.16705   0.74704   0.00000  Uiso   1.00
C739   C     0.84252   0.12575   0.59443   0.00000  Uiso   1.00
C740   C     0.83572   0.16735   0.61665   0.00000  Uiso   1.00
C741   C     0.83093   0.16598   0.88335   0.00000  Uiso   1.00
C742   C     0.82923   0.16520   0.52377   0.00000  Uiso   1.00
C743   C     0.83741   0.16813   0.97623   0.00000  Uiso   1.00
C744   C     0.95685   0.16793   0.74430   0.00000  Uiso   1.00
C745   C     0.70981   0.16540   0.75567   0.00000  Uiso   1.00
C746   C     0.78596   0.04670   0.67920   0.00000  Uiso   1.00
C747   C     0.88071   0.28663   0.82078   0.00000  Uiso   1.00
C748   C     0.89995   0.04656   0.80017   0.00000  Uiso   1.00
C749   C     0.83510   0.16696   0.66515   0.00000  Uiso   1.00
C750   C     0.76671   0.28677   0.69983   0.00000  Uiso   1.00
C751   C     0.83156   0.16637   0.83485   0.00000  Uiso   1.00
C752   C     0.80702   0.02471   0.72008   0.00000  Uiso   1.00
C753   C     0.85965   0.30862   0.77992   0.00000  Uiso   1.00
C754   C     0.86191   0.02457   0.77741   0.00000  Uiso   1.00
C755   C     0.80475   0.30876   0.72259   0.00000  Uiso   1.00
C756   C     0.68665   0.12404   0.74742   0.00000  Uiso   1.00
Cl757  Cl    0.77464   0.23837   0.51989   0.00000  Uiso   1.00
Cl758  Cl    0.95822   0.26539   0.74587   0.00000  Uiso   1.00
Cl759  Cl    0.95161   0.07743   0.71247   0.00000  Uiso   1.00
Cl760  Cl    0.71505   0.25590   0.78751   0.00000  Uiso   1.00
Cl761  Cl    0.89199   0.09496   0.98011   0.00000  Uiso   1.00
Cl762  Cl    0.85003   0.26348   0.97383   0.00000  Uiso   1.00
Cl763  Cl    0.81660   0.06985   0.52616   0.00000  Uiso   1.00
Cl764  Cl    0.82365   0.26387   0.61229   0.00000  Uiso   1.00
Cl765  Cl    0.84300   0.06946   0.88771   0.00000  Uiso   1.00
Cl766  Cl    0.79991   0.25630   0.87861   0.00000  Uiso   1.00
Cl767  Cl    0.86671   0.07701   0.62138   0.00000  Uiso   1.00
Cl768  Cl    0.70844   0.06795   0.75405   0.00000  Uiso   1.00
Cu769  Cu    0.83333   0.21355   0.75000   0.00000  Uiso   1.00
Cu770  Cu    0.83333   0.11978   0.75000   0.00000  Uiso   1.00
H771   H     0.74702   0.09442   0.64996   0.00000  Uiso   1.00
H772   H     0.91972   0.23896   0.85001   0.00000  Uiso   1.00
H773   H     0.96160   0.04235   0.81515   0.00000  Uiso   1.00
H774   H     0.70507   0.29099   0.68484   0.00000  Uiso   1.00
N775   N     0.83333   0.28402   0.75000   0.00000  Uiso   1.00
N776   N     0.83333   0.04931   0.75000   0.00000  Uiso   1.00
O777   O     0.77321   0.20625   0.75000   0.00000  Uiso   1.00
O778   O     0.75941   0.08401   0.68031   0.00000  Uiso   1.00
O779   O     0.87646   0.30388   0.85633   0.00000  Uiso   1.00
O780   O     0.90732   0.24937   0.81966   0.00000  Uiso   1.00
O781   O     0.89870   0.08139   0.82212   0.00000  Uiso   1.00
O782   O     0.93787   0.02508   0.79811   0.00000  Uiso   1.00
O783   O     0.76797   0.25194   0.67789   0.00000  Uiso   1.00
O784   O     0.72880   0.30825   0.70189   0.00000  Uiso   1.00
O785   O     0.89345   0.12709   0.75000   0.00000  Uiso   1.00
O786   O     0.89345   0.20625   0.75000   0.00000  Uiso   1.00
O787   O     0.77321   0.12709   0.75000   0.00000  Uiso   1.00
O788   O     0.83333   0.20626   0.68573   0.00000  Uiso   1.00
O789   O     0.83334   0.12707   0.81427   0.00000  Uiso   1.00
O790   O     0.83334   0.20626   0.81427   0.00000  Uiso   1.00
O791   O     0.83333   0.12707   0.68573   0.00000  Uiso   1.00
O792   O     0.79017   0.02940   0.64366   0.00000  Uiso   1.00
C793   C     0.08775   0.49962   0.75295   0.00000  Uiso   1.00
C794   C     0.31335   0.54262   0.75254   0.00000  Uiso   1.00
C795   C     0.31077   0.45951   0.73807   0.00000  Uiso   1.00
C796   C     0.02256   0.54049   0.76190   0.00000  Uiso   1.00
C797   C     0.14850   0.53702   0.54552   0.00000  Uiso   1.00
C798   C     0.18481   0.46298   0.95448   0.00000  Uiso   1.00
C799   C     0.16556   0.54289   0.95130   0.00000  Uiso   1.00
C800   C     0.16774   0.45710   0.54869   0.00000  Uiso   1.00
C801   C     0.15703   0.54054   0.59101   0.00000  Uiso   1.00
C802   C     0.17628   0.45946   0.90899   0.00000  Uiso   1.00
C803   C     0.15746   0.54091   0.90557   0.00000  Uiso   1.00
C804   C     0.24558   0.50038   0.74704   0.00000  Uiso   1.00
C805   C     0.17585   0.45908   0.59443   0.00000  Uiso   1.00
C806   C     0.16906   0.50068   0.61665   0.00000  Uiso   1.00
C807   C     0.16426   0.49932   0.88335   0.00000  Uiso   1.00
C808   C     0.16256   0.49853   0.52377   0.00000  Uiso   1.00
C809   C     0.17074   0.50146   0.97623   0.00000  Uiso   1.00
C810   C     0.29018   0.50127   0.74430   0.00000  Uiso   1.00
C811   C     0.04315   0.49873   0.75567   0.00000  Uiso   1.00
C812   C     0.11929   0.38003   0.67920   0.00000  Uiso   1.00
C813   C     0.21404   0.61996   0.82078   0.00000  Uiso   1.00
C814   C     0.23328   0.37990   0.80017   0.00000  Uiso   1.00
C815   C     0.16843   0.50030   0.66515   0.00000  Uiso   1.00
C816   C     0.10005   0.62010   0.69983   0.00000  Uiso   1.00
C817   C     0.16490   0.49970   0.83485   0.00000  Uiso   1.00
C818   C     0.14035   0.35804   0.72008   0.00000  Uiso   1.00
C819   C     0.19298   0.64196   0.77992   0.00000  Uiso   1.00
C820   C     0.19525   0.35790   0.77741   0.00000  Uiso   1.00
C821   C     0.13808   0.64210   0.72259   0.00000  Uiso   1.00
C822   C     0.01998   0.45738   0.74742   0.00000  Uiso   1.00
Cl823  Cl    0.10798   0.57170   0.51989   0.00000  Uiso   1.00
Cl824  Cl    0.29156   0.59872   0.74587   0.00000  Uiso   1.00
Cl825  Cl    0.28494   0.41077   0.71247   0.00000  Uiso   1.00
Cl826  Cl    0.04838   0.58923   0.78751   0.00000  Uiso   1.00
Cl827  Cl    0.22533   0.42829   0.98011   0.00000  Uiso   1.00
Cl828  Cl    0.18336   0.59681   0.97383   0.00000  Uiso   1.00
Cl829  Cl    0.14993   0.40318   0.52616   0.00000  Uiso   1.00
Cl830  Cl    0.15699   0.59720   0.61229   0.00000  Uiso   1.00
Cl831  Cl    0.17634   0.40279   0.88771   0.00000  Uiso   1.00
Cl832  Cl    0.13325   0.58964   0.87861   0.00000  Uiso   1.00
Cl833  Cl    0.20004   0.41034   0.62138   0.00000  Uiso   1.00
Cl834  Cl    0.04177   0.40128   0.75405   0.00000  Uiso   1.00
Cu835  Cu    0.16667   0.54689   0.75000   0.00000  Uiso   1.00
Cu836  Cu    0.16667   0.45311   0.75000   0.00000  Uiso   1.00
H837   H     0.08035   0.42776   0.64996   0.00000  Uiso   1.00
H838   H     0.25305   0.57229   0.85001   0.00000  Uiso   1.00
H839   H     0.29493   0.37568   0.81515   0.00000  Uiso   1.00
H840   H     0.03840   0.62432   0.68484   0.00000  Uiso   1.00
N841   N     0.16667   0.61736   0.75000   0.00000  Uiso   1.00
N842   N     0.16667   0.38264   0.75000   0.00000  Uiso   1.00
O843   O     0.10655   0.53958   0.75000   0.00000  Uiso   1.00
O844   O     0.09275   0.41735   0.68031   0.00000  Uiso   1.00
O845   O     0.20979   0.63721   0.85633   0.00000  Uiso   1.00
O846   O     0.24065   0.58270   0.81966   0.00000  Uiso   1.00
O847   O     0.23203   0.41472   0.82212   0.00000  Uiso   1.00
O848   O     0.27120   0.35842   0.79811   0.00000  Uiso   1.00
O849   O     0.10130   0.58528   0.67789   0.00000  Uiso   1.00
O850   O     0.06213   0.64158   0.70189   0.00000  Uiso   1.00
O851   O     0.22679   0.46042   0.75000   0.00000  Uiso   1.00
O852   O     0.22679   0.53958   0.75000   0.00000  Uiso   1.00
O853   O     0.10655   0.46042   0.75000   0.00000  Uiso   1.00
O854   O     0.16666   0.53959   0.68573   0.00000  Uiso   1.00
O855   O     0.16667   0.46041   0.81427   0.00000  Uiso   1.00
O856   O     0.16667   0.53959   0.81427   0.00000  Uiso   1.00
O857   O     0.16666   0.46041   0.68573   0.00000  Uiso   1.00
O858   O     0.12350   0.36273   0.64366   0.00000  Uiso   1.00
C859   C     0.42109   0.49962   0.75295   0.00000  Uiso   1.00
C860   C     0.64668   0.54262   0.75254   0.00000  Uiso   1.00
C861   C     0.64410   0.45951   0.73807   0.00000  Uiso   1.00
C862   C     0.35589   0.54049   0.76190   0.00000  Uiso   1.00
C863   C     0.48183   0.53702   0.54552   0.00000  Uiso   1.00
C864   C     0.51814   0.46298   0.95448   0.00000  Uiso   1.00
C865   C     0.49890   0.54289   0.95130   0.00000  Uiso   1.00
C866   C     0.50107   0.45710   0.54869   0.00000  Uiso   1.00
C867   C     0.49037   0.54054   0.59101   0.00000  Uiso   1.00
C868   C     0.50961   0.45946   0.90899   0.00000  Uiso   1.00
C869   C     0.49079   0.54091   0.90557   0.00000  Uiso   1.00
C870   C     0.57891   0.50038   0.74704   0.00000  Uiso   1.00
C871   C     0.50918   0.45908   0.59443   0.00000  Uiso   1.00
C872   C     0.50239   0.50068   0.61665   0.00000  Uiso   1.00
C873   C     0.49760   0.49932   0.88335   0.00000  Uiso   1.00
C874   C     0.49589   0.49853   0.52377   0.00000  Uiso   1.00
C875   C     0.50407   0.50146   0.97623   0.00000  Uiso   1.00
C876   C     0.62352   0.50127   0.74430   0.00000  Uiso   1.00
C877   C     0.37648   0.49873   0.75567   0.00000  Uiso   1.00
C878   C     0.45263   0.38003   0.67920   0.00000  Uiso   1.00
C879   C     0.54738   0.61996   0.82078   0.00000  Uiso   1.00
C880   C     0.56662   0.37990   0.80017   0.00000  Uiso   1.00
C881   C     0.50177   0.50030   0.66515   0.00000  Uiso   1.00
C882   C     0.43338   0.62010   0.69983   0.00000  Uiso   1.00
C883   C     0.49823   0.49970   0.83485   0.00000  Uiso   1.00
C884   C     0.47369   0.35804   0.72008   0.00000  Uiso   1.00
C885   C     0.52632   0.64196   0.77992   0.00000  Uiso   1.00
C886   C     0.52858   0.35790   0.77741   0.00000  Uiso   1.00
C887   C     0.47142   0.64210   0.72259   0.00000  Uiso   1.00
C888   C     0.35331   0.45738   0.74742   0.00000  Uiso   1.00
Cl889  Cl    0.44131   0.57170   0.51989   0.00000  Uiso   1.00
Cl890  Cl    0.62489   0.59872   0.74587   0.00000  Uiso   1.00
Cl891  Cl    0.61827   0.41077   0.71247   0.00000  Uiso   1.00
Cl892  Cl    0.38171   0.58923   0.78751   0.00000  Uiso   1.00
Cl893  Cl    0.55866   0.42829   0.98011   0.00000  Uiso   1.00
Cl894  Cl    0.51670   0.59681   0.97383   0.00000  Uiso   1.00
Cl895  Cl    0.48326   0.40318   0.52616   0.00000  Uiso   1.00
Cl896  Cl    0.49032   0.59720   0.61229   0.00000  Uiso   1.00
Cl897  Cl    0.50967   0.40279   0.88771   0.00000  Uiso   1.00
Cl898  Cl    0.46658   0.58964   0.87861   0.00000  Uiso   1.00
Cl899  Cl    0.53338   0.41034   0.62138   0.00000  Uiso   1.00
Cl900  Cl    0.37511   0.40128   0.75405   0.00000  Uiso   1.00
Cu901  Cu    0.50000   0.54689   0.75000   0.00000  Uiso   1.00
Cu902  Cu    0.50000   0.45311   0.75000   0.00000  Uiso   1.00
H903   H     0.41368   0.42776   0.64996   0.00000  Uiso   1.00
H904   H     0.58638   0.57229   0.85001   0.00000  Uiso   1.00
H905   H     0.62827   0.37568   0.81515   0.00000  Uiso   1.00
H906   H     0.37173   0.62432   0.68484   0.00000  Uiso   1.00
N907   N     0.50000   0.61736   0.75000   0.00000  Uiso   1.00
N908   N     0.50000   0.38264   0.75000   0.00000  Uiso   1.00
O909   O     0.43988   0.53958   0.75000   0.00000  Uiso   1.00
O910   O     0.42608   0.41735   0.68031   0.00000  Uiso   1.00
O911   O     0.54312   0.63721   0.85633   0.00000  Uiso   1.00
O912   O     0.57398   0.58270   0.81966   0.00000  Uiso   1.00
O913   O     0.56537   0.41472   0.82212   0.00000  Uiso   1.00
O914   O     0.60453   0.35842   0.79811   0.00000  Uiso   1.00
O915   O     0.43463   0.58528   0.67789   0.00000  Uiso   1.00
O916   O     0.39546   0.64158   0.70189   0.00000  Uiso   1.00
O917   O     0.56012   0.46042   0.75000   0.00000  Uiso   1.00
O918   O     0.56012   0.53958   0.75000   0.00000  Uiso   1.00
O919   O     0.43988   0.46042   0.75000   0.00000  Uiso   1.00
O920   O     0.50000   0.53959   0.68573   0.00000  Uiso   1.00
O921   O     0.50000   0.46041   0.81427   0.00000  Uiso   1.00
O922   O     0.50000   0.53959   0.81427   0.00000  Uiso   1.00
O923   O     0.50000   0.46041   0.68573   0.00000  Uiso   1.00
O924   O     0.45683   0.36273   0.64366   0.00000  Uiso   1.00
C925   C     0.75442   0.49962   0.75295   0.00000  Uiso   1.00
C926   C     0.98002   0.54262   0.75254   0.00000  Uiso   1.00
C927   C     0.97743   0.45951   0.73807   0.00000  Uiso   1.00
C928   C     0.68923   0.54049   0.76190   0.00000  Uiso   1.00
C929   C     0.81517   0.53702   0.54552   0.00000  Uiso   1.00
C930   C     0.85147   0.46298   0.95448   0.00000  Uiso   1.00
C931   C     0.83223   0.54289   0.95130   0.00000  Uiso   1.00
C932   C     0.83440   0.45710   0.54869   0.00000  Uiso   1.00
C933   C     0.82370   0.54054   0.59101   0.00000  Uiso   1.00
C934   C     0.84295   0.45946   0.90899   0.00000  Uiso   1.00
C935   C     0.82412   0.54091   0.90557   0.00000  Uiso   1.00
C936   C     0.91225   0.50038   0.74704   0.00000  Uiso   1.00
C937   C     0.84252   0.45908   0.59443   0.00000  Uiso   1.00
C938   C     0.83572   0.50068   0.61665   0.00000  Uiso   1.00
C939   C     0.83093   0.49932   0.88335   0.00000  Uiso   1.00
C940   C     0.82923   0.49853   0.52377   0.00000  Uiso   1.00
C941   C     0.83741   0.50146   0.97623   0.00000  Uiso   1.00
C942   C     0.95685   0.50127   0.74430   0.00000  Uiso   1.00
C943   C     0.70981   0.49873   0.75567   0.00000  Uiso   1.00
C944   C     0.78596   0.38003   0.67920   0.00000  Uiso   1.00
C945   C     0.88071   0.61996   0.82078   0.00000  Uiso   1.00
C946   C     0.89995   0.37990   0.80017   0.00000  Uiso   1.00
C947   C     0.83510   0.50030   0.66515   0.00000  Uiso   1.00
C948   C     0.76671   0.62010   0.69983   0.00000  Uiso   1.00
C949   C     0.83156   0.49970   0.83485   0.00000  Uiso   1.00
C950   C     0.80702   0.35804   0.72008   0.00000  Uiso   1.00
C951   C     0.85965   0.64196   0.77992   0.00000  Uiso   1.00
C952   C     0.86191   0.35790   0.77741   0.00000  Uiso   1.00
C953   C     0.80475   0.64210   0.72259   0.00000  Uiso   1.00
C954   C     0.68665   0.45738   0.74742   0.00000  Uiso   1.00
Cl955  Cl    0.77464   0.57170   0.51989   0.00000  Uiso   1.00
Cl956  Cl    0.95822   0.59872   0.74587   0.00000  Uiso   1.00
Cl957  Cl    0.95161   0.41077   0.71247   0.00000  Uiso   1.00
Cl958  Cl    0.71505   0.58923   0.78751   0.00000  Uiso   1.00
Cl959  Cl    0.89199   0.42829   0.98011   0.00000  Uiso   1.00
Cl960  Cl    0.85003   0.59681   0.97383   0.00000  Uiso   1.00
Cl961  Cl    0.81660   0.40318   0.52616   0.00000  Uiso   1.00
Cl962  Cl    0.82365   0.59720   0.61229   0.00000  Uiso   1.00
Cl963  Cl    0.84300   0.40279   0.88771   0.00000  Uiso   1.00
Cl964  Cl    0.79991   0.58964   0.87861   0.00000  Uiso   1.00
Cl965  Cl    0.86671   0.41034   0.62138   0.00000  Uiso   1.00
Cl966  Cl    0.70844   0.40128   0.75405   0.00000  Uiso   1.00
Cu967  Cu    0.83333   0.54689   0.75000   0.00000  Uiso   1.00
Cu968  Cu    0.83333   0.45311   0.75000   0.00000  Uiso   1.00
H969   H     0.74702   0.42776   0.64996   0.00000  Uiso   1.00
H970   H     0.91972   0.57229   0.85001   0.00000  Uiso   1.00
H971   H     0.96160   0.37568   0.81515   0.00000  Uiso   1.00
H972   H     0.70507   0.62432   0.68484   0.00000  Uiso   1.00
N973   N     0.83333   0.61736   0.75000   0.00000  Uiso   1.00
N974   N     0.83333   0.38264   0.75000   0.00000  Uiso   1.00
O975   O     0.77321   0.53958   0.75000   0.00000  Uiso   1.00
O976   O     0.75941   0.41735   0.68031   0.00000  Uiso   1.00
O977   O     0.87646   0.63721   0.85633   0.00000  Uiso   1.00
O978   O     0.90732   0.58270   0.81966   0.00000  Uiso   1.00
O979   O     0.89870   0.41472   0.82212   0.00000  Uiso   1.00
O980   O     0.93787   0.35842   0.79811   0.00000  Uiso   1.00
O981   O     0.76797   0.58528   0.67789   0.00000  Uiso   1.00
O982   O     0.72880   0.64158   0.70189   0.00000  Uiso   1.00
O983   O     0.89345   0.46042   0.75000   0.00000  Uiso   1.00
O984   O     0.89345   0.53958   0.75000   0.00000  Uiso   1.00
O985   O     0.77321   0.46042   0.75000   0.00000  Uiso   1.00
O986   O     0.83333   0.53959   0.68573   0.00000  Uiso   1.00
O987   O     0.83334   0.46041   0.81427   0.00000  Uiso   1.00
O988   O     0.83334   0.53959   0.81427   0.00000  Uiso   1.00
O989   O     0.83333   0.46041   0.68573   0.00000  Uiso   1.00
O990   O     0.79017   0.36273   0.64366   0.00000  Uiso   1.00
C991   C     0.08775   0.83295   0.75295   0.00000  Uiso   1.00
C992   C     0.31335   0.87596   0.75254   0.00000  Uiso   1.00
C993   C     0.31077   0.79284   0.73807   0.00000  Uiso   1.00
C994   C     0.02256   0.87382   0.76190   0.00000  Uiso   1.00
C995   C     0.14850   0.87035   0.54552   0.00000  Uiso   1.00
C996   C     0.18481   0.79631   0.95448   0.00000  Uiso   1.00
C997   C     0.16556   0.87622   0.95130   0.00000  Uiso   1.00
C998   C     0.16774   0.79044   0.54869   0.00000  Uiso   1.00
C999   C     0.15703   0.87387   0.59101   0.00000  Uiso   1.00
C1000  C     0.17628   0.79279   0.90899   0.00000  Uiso   1.00
C1001  C     0.15746   0.87424   0.90557   0.00000  Uiso   1.00
C1002  C     0.24558   0.83371   0.74704   0.00000  Uiso   1.00
C1003  C     0.17585   0.79242   0.59443   0.00000  Uiso   1.00
C1004  C     0.16906   0.83401   0.61665   0.00000  Uiso   1.00
C1005  C     0.16426   0.83265   0.88335   0.00000  Uiso   1.00
C1006  C     0.16256   0.83187   0.52377   0.00000  Uiso   1.00
C1007  C     0.17074   0.83479   0.97623   0.00000  Uiso   1.00
C1008  C     0.29018   0.83460   0.74430   0.00000  Uiso   1.00
C1009  C     0.04315   0.83207   0.75567   0.00000  Uiso   1.00
C1010  C     0.11929   0.71336   0.67920   0.00000  Uiso   1.00
C1011  C     0.21404   0.95330   0.82078   0.00000  Uiso   1.00
C1012  C     0.23328   0.71323   0.80017   0.00000  Uiso   1.00
C1013  C     0.16843   0.83363   0.66515   0.00000  Uiso   1.00
C1014  C     0.10005   0.95344   0.69983   0.00000  Uiso   1.00
C1015  C     0.16490   0.83304   0.83485   0.00000  Uiso   1.00
C1016  C     0.14035   0.69138   0.72008   0.00000  Uiso   1.00
C1017  C     0.19298   0.97529   0.77992   0.00000  Uiso   1.00
C1018  C     0.19525   0.69123   0.77741   0.00000  Uiso   1.00
C1019  C     0.13808   0.97543   0.72259   0.00000  Uiso   1.00
C1020  C     0.01998   0.79071   0.74742   0.00000  Uiso   1.00
Cl1021 Cl    0.10798   0.90503   0.51989   0.00000  Uiso   1.00
Cl1022 Cl    0.29156   0.93205   0.74587   0.00000  Uiso   1.00
Cl1023 Cl    0.28494   0.74410   0.71247   0.00000  Uiso   1.00
Cl1024 Cl    0.04838   0.92257   0.78751   0.00000  Uiso   1.00
Cl1025 Cl    0.22533   0.76163   0.98011   0.00000  Uiso   1.00
Cl1026 Cl    0.18336   0.93014   0.97383   0.00000  Uiso   1.00
Cl1027 Cl    0.14993   0.73652   0.52616   0.00000  Uiso   1.00
Cl1028 Cl    0.15699   0.93054   0.61229   0.00000  Uiso   1.00
Cl1029 Cl    0.17634   0.73613   0.88771   0.00000  Uiso   1.00
Cl1030 Cl    0.13325   0.92297   0.87861   0.00000  Uiso   1.00
Cl1031 Cl    0.20004   0.74368   0.62138   0.00000  Uiso   1.00
Cl1032 Cl    0.04177   0.73461   0.75405   0.00000  Uiso   1.00
Cu1033 Cu    0.16667   0.88022   0.75000   0.00000  Uiso   1.00
Cu1034 Cu    0.16667   0.78645   0.75000   0.00000  Uiso   1.00
H1035  H     0.08035   0.76109   0.64996   0.00000  Uiso   1.00
H1036  H     0.25305   0.90562   0.85001   0.00000  Uiso   1.00
H1037  H     0.29493   0.70902   0.81515   0.00000  Uiso   1.00
H1038  H     0.03840   0.95766   0.68484   0.00000  Uiso   1.00
N1039  N     0.16667   0.95069   0.75000   0.00000  Uiso   1.00
N1040  N     0.16667   0.71598   0.75000   0.00000  Uiso   1.00
O1041  O     0.10655   0.87291   0.75000   0.00000  Uiso   1.00
O1042  O     0.09275   0.75068   0.68031   0.00000  Uiso   1.00
O1043  O     0.20979   0.97055   0.85633   0.00000  Uiso   1.00
O1044  O     0.24065   0.91604   0.81966   0.00000  Uiso   1.00
O1045  O     0.23203   0.74805   0.82212   0.00000  Uiso   1.00
O1046  O     0.27120   0.69175   0.79811   0.00000  Uiso   1.00
O1047  O     0.10130   0.91861   0.67789   0.00000  Uiso   1.00
O1048  O     0.06213   0.97492   0.70189   0.00000  Uiso   1.00
O1049  O     0.22679   0.79375   0.75000   0.00000  Uiso   1.00
O1050  O     0.22679   0.87291   0.75000   0.00000  Uiso   1.00
O1051  O     0.10655   0.79375   0.75000   0.00000  Uiso   1.00
O1052  O     0.16666   0.87293   0.68573   0.00000  Uiso   1.00
O1053  O     0.16667   0.79374   0.81427   0.00000  Uiso   1.00
O1054  O     0.16667   0.87293   0.81427   0.00000  Uiso   1.00
O1055  O     0.16666   0.79374   0.68573   0.00000  Uiso   1.00
O1056  O     0.12350   0.69607   0.64366   0.00000  Uiso   1.00
C1057  C     0.42109   0.83295   0.75295   0.00000  Uiso   1.00
C1058  C     0.64668   0.87596   0.75254   0.00000  Uiso   1.00
C1059  C     0.64410   0.79284   0.73807   0.00000  Uiso   1.00
C1060  C     0.35589   0.87382   0.76190   0.00000  Uiso   1.00
C1061  C     0.48183   0.87035   0.54552   0.00000  Uiso   1.00
C1062  C     0.51814   0.79631   0.95448   0.00000  Uiso   1.00
C1063  C     0.49890   0.87622   0.95130   0.00000  Uiso   1.00
C1064  C     0.50107   0.79044   0.54869   0.00000  Uiso   1.00
C1065  C     0.49037   0.87387   0.59101   0.00000  Uiso   1.00
C1066  C     0.50961   0.79279   0.90899   0.00000  Uiso   1.00
C1067  C     0.49079   0.87424   0.90557   0.00000  Uiso   1.00
C1068  C     0.57891   0.83371   0.74704   0.00000  Uiso   1.00
C1069  C     0.50918   0.79242   0.59443   0.00000  Uiso   1.00
C1070  C     0.50239   0.83401   0.61665   0.00000  Uiso   1.00
C1071  C     0.49760   0.83265   0.88335   0.00000  Uiso   1.00
C1072  C     0.49589   0.83187   0.52377   0.00000  Uiso   1.00
C1073  C     0.50407   0.83479   0.97623   0.00000  Uiso   1.00
C1074  C     0.62352   0.83460   0.74430   0.00000  Uiso   1.00
C1075  C     0.37648   0.83207   0.75567   0.00000  Uiso   1.00
C1076  C     0.45263   0.71336   0.67920   0.00000  Uiso   1.00
C1077  C     0.54738   0.95330   0.82078   0.00000  Uiso   1.00
C1078  C     0.56662   0.71323   0.80017   0.00000  Uiso   1.00
C1079  C     0.50177   0.83363   0.66515   0.00000  Uiso   1.00
C1080  C     0.43338   0.95344   0.69983   0.00000  Uiso   1.00
C1081  C     0.49823   0.83304   0.83485   0.00000  Uiso   1.00
C1082  C     0.47369   0.69138   0.72008   0.00000  Uiso   1.00
C1083  C     0.52632   0.97529   0.77992   0.00000  Uiso   1.00
C1084  C     0.52858   0.69123   0.77741   0.00000  Uiso   1.00
C1085  C     0.47142   0.97543   0.72259   0.00000  Uiso   1.00
C1086  C     0.35331   0.79071   0.74742   0.00000  Uiso   1.00
Cl1087 Cl    0.44131   0.90503   0.51989   0.00000  Uiso   1.00
Cl1088 Cl    0.62489   0.93205   0.74587   0.00000  Uiso   1.00
Cl1089 Cl    0.61827   0.74410   0.71247   0.00000  Uiso   1.00
Cl1090 Cl    0.38171   0.92257   0.78751   0.00000  Uiso   1.00
Cl1091 Cl    0.55866   0.76163   0.98011   0.00000  Uiso   1.00
Cl1092 Cl    0.51670   0.93014   0.97383   0.00000  Uiso   1.00
Cl1093 Cl    0.48326   0.73652   0.52616   0.00000  Uiso   1.00
Cl1094 Cl    0.49032   0.93054   0.61229   0.00000  Uiso   1.00
Cl1095 Cl    0.50967   0.73613   0.88771   0.00000  Uiso   1.00
Cl1096 Cl    0.46658   0.92297   0.87861   0.00000  Uiso   1.00
Cl1097 Cl    0.53338   0.74368   0.62138   0.00000  Uiso   1.00
Cl1098 Cl    0.37511   0.73461   0.75405   0.00000  Uiso   1.00
Cu1099 Cu    0.50000   0.88022   0.75000   0.00000  Uiso   1.00
Cu1100 Cu    0.50000   0.78645   0.75000   0.00000  Uiso   1.00
H1101  H     0.41368   0.76109   0.64996   0.00000  Uiso   1.00
H1102  H     0.58638   0.90562   0.85001   0.00000  Uiso   1.00
H1103  H     0.62827   0.70902   0.81515   0.00000  Uiso   1.00
H1104  H     0.37173   0.95766   0.68484   0.00000  Uiso   1.00
N1105  N     0.50000   0.95069   0.75000   0.00000  Uiso   1.00
N1106  N     0.50000   0.71598   0.75000   0.00000  Uiso   1.00
O1107  O     0.43988   0.87291   0.75000   0.00000  Uiso   1.00
O1108  O     0.42608   0.75068   0.68031   0.00000  Uiso   1.00
O1109  O     0.54312   0.97055   0.85633   0.00000  Uiso   1.00
O1110  O     0.57398   0.91604   0.81966   0.00000  Uiso   1.00
O1111  O     0.56537   0.74805   0.82212   0.00000  Uiso   1.00
O1112  O     0.60453   0.69175   0.79811   0.00000  Uiso   1.00
O1113  O     0.43463   0.91861   0.67789   0.00000  Uiso   1.00
O1114  O     0.39546   0.97492   0.70189   0.00000  Uiso   1.00
O1115  O     0.56012   0.79375   0.75000   0.00000  Uiso   1.00
O1116  O     0.56012   0.87291   0.75000   0.00000  Uiso   1.00
O1117  O     0.43988   0.79375   0.75000   0.00000  Uiso   1.00
O1118  O     0.50000   0.87293   0.68573   0.00000  Uiso   1.00
O1119  O     0.50000   0.79374   0.81427   0.00000  Uiso   1.00
O1120  O     0.50000   0.87293   0.81427   0.00000  Uiso   1.00
O1121  O     0.50000   0.79374   0.68573   0.00000  Uiso   1.00
O1122  O     0.45683   0.69607   0.64366   0.00000  Uiso   1.00
C1123  C     0.75442   0.83295   0.75295   0.00000  Uiso   1.00
C1124  C     0.98002   0.87596   0.75254   0.00000  Uiso   1.00
C1125  C     0.97743   0.79284   0.73807   0.00000  Uiso   1.00
C1126  C     0.68923   0.87382   0.76190   0.00000  Uiso   1.00
C1127  C     0.81517   0.87035   0.54552   0.00000  Uiso   1.00
C1128  C     0.85147   0.79631   0.95448   0.00000  Uiso   1.00
C1129  C     0.83223   0.87622   0.95130   0.00000  Uiso   1.00
C1130  C     0.83440   0.79044   0.54869   0.00000  Uiso   1.00
C1131  C     0.82370   0.87387   0.59101   0.00000  Uiso   1.00
C1132  C     0.84295   0.79279   0.90899   0.00000  Uiso   1.00
C1133  C     0.82412   0.87424   0.90557   0.00000  Uiso   1.00
C1134  C     0.91225   0.83371   0.74704   0.00000  Uiso   1.00
C1135  C     0.84252   0.79242   0.59443   0.00000  Uiso   1.00
C1136  C     0.83572   0.83401   0.61665   0.00000  Uiso   1.00
C1137  C     0.83093   0.83265   0.88335   0.00000  Uiso   1.00
C1138  C     0.82923   0.83187   0.52377   0.00000  Uiso   1.00
C1139  C     0.83741   0.83479   0.97623   0.00000  Uiso   1.00
C1140  C     0.95685   0.83460   0.74430   0.00000  Uiso   1.00
C1141  C     0.70981   0.83207   0.75567   0.00000  Uiso   1.00
C1142  C     0.78596   0.71336   0.67920   0.00000  Uiso   1.00
C1143  C     0.88071   0.95330   0.82078   0.00000  Uiso   1.00
C1144  C     0.89995   0.71323   0.80017   0.00000  Uiso   1.00
C1145  C     0.83510   0.83363   0.66515   0.00000  Uiso   1.00
C1146  C     0.76671   0.95344   0.69983   0.00000  Uiso   1.00
C1147  C     0.83156   0.83304   0.83485   0.00000  Uiso   1.00
C1148  C     0.80702   0.69138   0.72008   0.00000  Uiso   1.00
C1149  C     0.85965   0.97529   0.77992   0.00000  Uiso   1.00
C1150  C     0.86191   0.69123   0.77741   0.00000  Uiso   1.00
C1151  C     0.80475   0.97543   0.72259   0.00000  Uiso   1.00
C1152  C     0.68665   0.79071   0.74742   0.00000  Uiso   1.00
Cl1153 Cl    0.77464   0.90503   0.51989   0.00000  Uiso   1.00
Cl1154 Cl    0.95822   0.93205   0.74587   0.00000  Uiso   1.00
Cl1155 Cl    0.95161   0.74410   0.71247   0.00000  Uiso   1.00
Cl1156 Cl    0.71505   0.92257   0.78751   0.00000  Uiso   1.00
Cl1157 Cl    0.89199   0.76163   0.98011   0.00000  Uiso   1.00
Cl1158 Cl    0.85003   0.93014   0.97383   0.00000  Uiso   1.00
Cl1159 Cl    0.81660   0.73652   0.52616   0.00000  Uiso   1.00
Cl1160 Cl    0.82365   0.93054   0.61229   0.00000  Uiso   1.00
Cl1161 Cl    0.84300   0.73613   0.88771   0.00000  Uiso   1.00
Cl1162 Cl    0.79991   0.92297   0.87861   0.00000  Uiso   1.00
Cl1163 Cl    0.86671   0.74368   0.62138   0.00000  Uiso   1.00
Cl1164 Cl    0.70844   0.73461   0.75405   0.00000  Uiso   1.00
Cu1165 Cu    0.83333   0.88022   0.75000   0.00000  Uiso   1.00
Cu1166 Cu    0.83333   0.78645   0.75000   0.00000  Uiso   1.00
H1167  H     0.74702   0.76109   0.64996   0.00000  Uiso   1.00
H1168  H     0.91972   0.90562   0.85001   0.00000  Uiso   1.00
H1169  H     0.96160   0.70902   0.81515   0.00000  Uiso   1.00
H1170  H     0.70507   0.95766   0.68484   0.00000  Uiso   1.00
N1171  N     0.83333   0.95069   0.75000   0.00000  Uiso   1.00
N1172  N     0.83333   0.71598   0.75000   0.00000  Uiso   1.00
O1173  O     0.77321   0.87291   0.75000   0.00000  Uiso   1.00
O1174  O     0.75941   0.75068   0.68031   0.00000  Uiso   1.00
O1175  O     0.87646   0.97055   0.85633   0.00000  Uiso   1.00
O1176  O     0.90732   0.91604   0.81966   0.00000  Uiso   1.00
O1177  O     0.89870   0.74805   0.82212   0.00000  Uiso   1.00
O1178  O     0.93787   0.69175   0.79811   0.00000  Uiso   1.00
O1179  O     0.76797   0.91861   0.67789   0.00000  Uiso   1.00
O1180  O     0.72880   0.97492   0.70189   0.00000  Uiso   1.00
O1181  O     0.89345   0.79375   0.75000   0.00000  Uiso   1.00
O1182  O     0.89345   0.87291   0.75000   0.00000  Uiso   1.00
O1183  O     0.77321   0.79375   0.75000   0.00000  Uiso   1.00
O1184  O     0.83333   0.87293   0.68573   0.00000  Uiso   1.00
O1185  O     0.83334   0.79374   0.81427   0.00000  Uiso   1.00
O1186  O     0.83334   0.87293   0.81427   0.00000  Uiso   1.00
O1187  O     0.83333   0.79374   0.68573   0.00000  Uiso   1.00
O1188  O     0.79017   0.69607   0.64366   0.00000  Uiso   1.00
loop_
_geom_bond_atom_site_label_1
_geom_bond_atom_site_label_2
_geom_bond_distance
_geom_bond_site_symmetry_2
_ccdc_geom_bond_type
C1     O51     1.308   .     A
C1     C19     1.471   .     S
C1     O61     1.300   .     A
C2     C18     1.416   .     A
C2     Cl32    1.773   .     S
C2     C70     1.390   .     S
C3     Cl33    1.775   .     S
C3     C18     1.409   .     A
C3     C96     1.390   .     S
C4     Cl34    1.775   .     S
C4     C19     1.409   .     A
C4     C134    1.390   1_455 S
C5     C9      1.393   .     A
C5     C16     1.406   .     A
C5     Cl31    1.773   .     S
C6     C10     1.393   .     A
C6     Cl35    1.773   .     S
C6     C17     1.406   .     A
C7     Cl36    1.773   .     S
C7     C11     1.396   .     A
C7     C17     1.412   .     A
C8     C13     1.396   .     A
C8     Cl37    1.773   .     S
C8     C16     1.412   .     A
C9     C14     1.418   .     A
C9     Cl38    1.764   .     S
C10    C15     1.418   .     A
C10    Cl39    1.764   .     S
C11    Cl40    1.769   .     S
C11    C15     1.415   .     A
C12    O59     1.308   .     A
C12    C18     1.471   .     S
C12    O60     1.300   .     A
C13    Cl41    1.769   .     S
C13    C14     1.415   .     A
C14    C23     1.487   .     S
C15    C25     1.487   .     S
C16    C611    1.510   1_554 S
C17    C610    1.510   .     S
C19    C30     1.416   .     A
C20    O52     1.391   .     S
C20    C26     1.496   .     S
C20    O66     1.223   .     D
C21    O54     1.391   .     S
C21    C27     1.496   .     S
C21    O53     1.223   .     D
C22    O56     1.399   .     S
C22    O55     1.216   .     D
C22    C28     1.494   .     S
C23    O62     1.306   .     A
C23    O65     1.310   .     A
C24    O58     1.399   .     S
C24    C29     1.494   .     S
C24    O57     1.216   .     D
C25    O63     1.306   .     A
C25    O64     1.310   .     A
C26    N50     1.380   .     A
C26    C425    1.424   1_545 S
C27    N49     1.380   .     A
C27    C226    1.424   .     S
C28    N50     1.381   .     A
C28    C423    1.424   1_545 S
C29    N49     1.381   .     A
C29    C224    1.424   .     S
C30    Cl42    1.773   .     S
C30    C135    1.390   1_455 S
Cu43   Cu44    2.703   .     S
Cu43   O51     1.976   .     S
Cu43   O60     1.980   .     S
Cu43   O64     1.976   .     S
Cu43   N49     2.031   .     S
Cu43   O62     1.980   .     S
Cu44   O61     1.980   .     S
Cu44   O65     1.976   .     S
Cu44   O63     1.980   .     S
Cu44   O59     1.976   .     S
Cu44   N50     2.031   .     S
H45    O52     1.014   .     S
H46    O54     1.014   .     S
H47    O56     1.014   .     S
H48    O58     1.014   .     S
C67    O117    1.308   .     A
C67    C85     1.471   .     S
C67    O127    1.300   .     A
C68    C84     1.416   .     A
C68    Cl98    1.773   .     S
C68    C136    1.390   .     S
C69    Cl99    1.775   .     S
C69    C84     1.409   .     A
C69    C162    1.390   .     S
C70    Cl100   1.775   .     S
C70    C85     1.409   .     A
C71    C75     1.393   .     A
C71    C82     1.406   .     A
C71    Cl97    1.773   .     S
C72    C76     1.393   .     A
C72    Cl101   1.773   .     S
C72    C83     1.406   .     A
C73    Cl102   1.773   .     S
C73    C77     1.396   .     A
C73    C83     1.412   .     A
C74    C79     1.396   .     A
C74    Cl103   1.773   .     S
C74    C82     1.412   .     A
C75    C80     1.418   .     A
C75    Cl104   1.764   .     S
C76    C81     1.418   .     A
C76    Cl105   1.764   .     S
C77    Cl106   1.769   .     S
C77    C81     1.415   .     A
C78    O125    1.308   .     A
C78    C84     1.471   .     S
C78    O126    1.300   .     A
C79    Cl107   1.769   .     S
C79    C80     1.415   .     A
C80    C89     1.487   .     S
C81    C91     1.487   .     S
C82    C677    1.510   1_554 S
C83    C676    1.510   .     S
C85    C96     1.416   .     A
C86    O118    1.391   .     S
C86    C92     1.496   .     S
C86    O132    1.223   .     D
C87    O120    1.391   .     S
C87    C93     1.496   .     S
C87    O119    1.223   .     D
C88    O122    1.399   .     S
C88    O121    1.216   .     D
C88    C94     1.494   .     S
C89    O128    1.306   .     A
C89    O131    1.310   .     A
C90    O124    1.399   .     S
C90    C95     1.494   .     S
C90    O123    1.216   .     D
C91    O129    1.306   .     A
C91    O130    1.310   .     A
C92    N116    1.380   .     A
C92    C491    1.424   1_545 S
C93    N115    1.380   .     A
C93    C292    1.424   .     S
C94    N116    1.381   .     A
C94    C489    1.424   1_545 S
C95    N115    1.381   .     A
C95    C290    1.424   .     S
C96    Cl108   1.773   .     S
Cu109  Cu110   2.703   .     S
Cu109  O117    1.976   .     S
Cu109  O126    1.980   .     S
Cu109  O130    1.976   .     S
Cu109  N115    2.031   .     S
Cu109  O128    1.980   .     S
Cu110  O127    1.980   .     S
Cu110  O131    1.976   .     S
Cu110  O129    1.980   .     S
Cu110  O125    1.976   .     S
Cu110  N116    2.031   .     S
H111   O118    1.014   .     S
H112   O120    1.014   .     S
H113   O122    1.014   .     S
H114   O124    1.014   .     S
C133   O183    1.308   .     A
C133   C151    1.471   .     S
C133   O193    1.300   .     A
C134   C150    1.416   .     A
C134   Cl164   1.773   .     S
C134   C4      1.390   1_655 S
C135   Cl165   1.775   .     S
C135   C150    1.409   .     A
C135   C30     1.390   1_655 S
C136   Cl166   1.775   .     S
C136   C151    1.409   .     A
C137   C141    1.393   .     A
C137   C148    1.406   .     A
C137   Cl163   1.773   .     S
C138   C142    1.393   .     A
C138   Cl167   1.773   .     S
C138   C149    1.406   .     A
C139   Cl168   1.773   .     S
C139   C143    1.396   .     A
C139   C149    1.412   .     A
C140   C145    1.396   .     A
C140   Cl169   1.773   .     S
C140   C148    1.412   .     A
C141   C146    1.418   .     A
C141   Cl170   1.764   .     S
C142   C147    1.418   .     A
C142   Cl171   1.764   .     S
C143   Cl172   1.769   .     S
C143   C147    1.415   .     A
C144   O191    1.308   .     A
C144   C150    1.471   .     S
C144   O192    1.300   .     A
C145   Cl173   1.769   .     S
C145   C146    1.415   .     A
C146   C155    1.487   .     S
C147   C157    1.487   .     S
C148   C743    1.510   1_554 S
C149   C742    1.510   .     S
C151   C162    1.416   .     A
C152   O184    1.391   .     S
C152   C158    1.496   .     S
C152   O198    1.223   .     D
C153   O186    1.391   .     S
C153   C159    1.496   .     S
C153   O185    1.223   .     D
C154   O188    1.399   .     S
C154   O187    1.216   .     D
C154   C160    1.494   .     S
C155   O194    1.306   .     A
C155   O197    1.310   .     A
C156   O190    1.399   .     S
C156   C161    1.494   .     S
C156   O189    1.216   .     D
C157   O195    1.306   .     A
C157   O196    1.310   .     A
C158   N182    1.380   .     A
C158   C557    1.424   1_545 S
C159   N181    1.380   .     A
C159   C358    1.424   .     S
C160   N182    1.381   .     A
C160   C555    1.424   1_545 S
C161   N181    1.381   .     A
C161   C356    1.424   .     S
C162   Cl174   1.773   .     S
Cu175  Cu176   2.703   .     S
Cu175  O183    1.976   .     S
Cu175  O192    1.980   .     S
Cu175  O196    1.976   .     S
Cu175  N181    2.031   .     S
Cu175  O194    1.980   .     S
Cu176  O193    1.980   .     S
Cu176  O197    1.976   .     S
Cu176  O195    1.980   .     S
Cu176  O191    1.976   .     S
Cu176  N182    2.031   .     S
H177   O184    1.014   .     S
H178   O186    1.014   .     S
H179   O188    1.014   .     S
H180   O190    1.014   .     S
C199   O249    1.308   .     A
C199   C217    1.471   .     S
C199   O259    1.300   .     A
C200   C216    1.416   .     A
C200   Cl230   1.773   .     S
C200   C268    1.390   .     S
C201   Cl231   1.775   .     S
C201   C216    1.409   .     A
C201   C294    1.390   .     S
C202   Cl232   1.775   .     S
C202   C217    1.409   .     A
C202   C332    1.390   1_455 S
C203   C207    1.393   .     A
C203   C214    1.406   .     A
C203   Cl229   1.773   .     S
C204   C208    1.393   .     A
C204   Cl233   1.773   .     S
C204   C215    1.406   .     A
C205   Cl234   1.773   .     S
C205   C209    1.396   .     A
C205   C215    1.412   .     A
C206   C211    1.396   .     A
C206   Cl235   1.773   .     S
C206   C214    1.412   .     A
C207   C212    1.418   .     A
C207   Cl236   1.764   .     S
C208   C213    1.418   .     A
C208   Cl237   1.764   .     S
C209   Cl238   1.769   .     S
C209   C213    1.415   .     A
C210   O257    1.308   .     A
C210   C216    1.471   .     S
C210   O258    1.300   .     A
C211   Cl239   1.769   .     S
C211   C212    1.415   .     A
C212   C221    1.487   .     S
C213   C223    1.487   .     S
C214   C809    1.510   1_554 S
C215   C808    1.510   .     S
C217   C228    1.416   .     A
C218   O250    1.391   .     S
C218   C224    1.496   .     S
C218   O264    1.223   .     D
C219   O252    1.391   .     S
C219   C225    1.496   .     S
C219   O251    1.223   .     D
C220   O254    1.399   .     S
C220   O253    1.216   .     D
C220   C226    1.494   .     S
C221   O260    1.306   .     A
C221   O263    1.310   .     A
C222   O256    1.399   .     S
C222   C227    1.494   .     S
C222   O255    1.216   .     D
C223   O261    1.306   .     A
C223   O262    1.310   .     A
C224   N248    1.380   .     A
C225   N247    1.380   .     A
C225   C424    1.424   .     S
C226   N248    1.381   .     A
C227   N247    1.381   .     A
C227   C422    1.424   .     S
C228   Cl240   1.773   .     S
C228   C333    1.390   1_455 S
Cu241  Cu242   2.703   .     S
Cu241  O249    1.976   .     S
Cu241  O258    1.980   .     S
Cu241  O262    1.976   .     S
Cu241  N247    2.031   .     S
Cu241  O260    1.980   .     S
Cu242  O259    1.980   .     S
Cu242  O263    1.976   .     S
Cu242  O261    1.980   .     S
Cu242  O257    1.976   .     S
Cu242  N248    2.031   .     S
H243   O250    1.014   .     S
H244   O252    1.014   .     S
H245   O254    1.014   .     S
H246   O256    1.014   .     S
C265   O315    1.308   .     A
C265   C283    1.471   .     S
C265   O325    1.300   .     A
C266   C282    1.416   .     A
C266   Cl296   1.773   .     S
C266   C334    1.390   .     S
C267   Cl297   1.775   .     S
C267   C282    1.409   .     A
C267   C360    1.390   .     S
C268   Cl298   1.775   .     S
C268   C283    1.409   .     A
C269   C273    1.393   .     A
C269   C280    1.406   .     A
C269   Cl295   1.773   .     S
C270   C274    1.393   .     A
C270   Cl299   1.773   .     S
C270   C281    1.406   .     A
C271   Cl300   1.773   .     S
C271   C275    1.396   .     A
C271   C281    1.412   .     A
C272   C277    1.396   .     A
C272   Cl301   1.773   .     S
C272   C280    1.412   .     A
C273   C278    1.418   .     A
C273   Cl302   1.764   .     S
C274   C279    1.418   .     A
C274   Cl303   1.764   .     S
C275   Cl304   1.769   .     S
C275   C279    1.415   .     A
C276   O323    1.308   .     A
C276   C282    1.471   .     S
C276   O324    1.300   .     A
C277   Cl305   1.769   .     S
C277   C278    1.415   .     A
C278   C287    1.487   .     S
C279   C289    1.487   .     S
C280   C875    1.510   1_554 S
C281   C874    1.510   .     S
C283   C294    1.416   .     A
C284   O316    1.391   .     S
C284   C290    1.496   .     S
C284   O330    1.223   .     D
C285   O318    1.391   .     S
C285   C291    1.496   .     S
C285   O317    1.223   .     D
C286   O320    1.399   .     S
C286   O319    1.216   .     D
C286   C292    1.494   .     S
C287   O326    1.306   .     A
C287   O329    1.310   .     A
C288   O322    1.399   .     S
C288   C293    1.494   .     S
C288   O321    1.216   .     D
C289   O327    1.306   .     A
C289   O328    1.310   .     A
C290   N314    1.380   .     A
C291   N313    1.380   .     A
C291   C490    1.424   .     S
C292   N314    1.381   .     A
C293   N313    1.381   .     A
C293   C488    1.424   .     S
C294   Cl306   1.773   .     S
Cu307  Cu308   2.703   .     S
Cu307  O315    1.976   .     S
Cu307  O324    1.980   .     S
Cu307  O328    1.976   .     S
Cu307  N313    2.031   .     S
Cu307  O326    1.980   .     S
Cu308  O325    1.980   .     S
Cu308  O329    1.976   .     S
Cu308  O327    1.980   .     S
Cu308  O323    1.976   .     S
Cu308  N314    2.031   .     S
H309   O316    1.014   .     S
H310   O318    1.014   .     S
H311   O320    1.014   .     S
H312   O322    1.014   .     S
C331   O381    1.308   .     A
C331   C349    1.471   .     S
C331   O391    1.300   .     A
C332   C348    1.416   .     A
C332   Cl362   1.773   .     S
C332   C202    1.390   1_655 S
C333   Cl363   1.775   .     S
C333   C348    1.409   .     A
C333   C228    1.390   1_655 S
C334   Cl364   1.775   .     S
C334   C349    1.409   .     A
C335   C339    1.393   .     A
C335   C346    1.406   .     A
C335   Cl361   1.773   .     S
C336   C340    1.393   .     A
C336   Cl365   1.773   .     S
C336   C347    1.406   .     A
C337   Cl366   1.773   .     S
C337   C341    1.396   .     A
C337   C347    1.412   .     A
C338   C343    1.396   .     A
C338   Cl367   1.773   .     S
C338   C346    1.412   .     A
C339   C344    1.418   .     A
C339   Cl368   1.764   .     S
C340   C345    1.418   .     A
C340   Cl369   1.764   .     S
C341   Cl370   1.769   .     S
C341   C345    1.415   .     A
C342   O389    1.308   .     A
C342   C348    1.471   .     S
C342   O390    1.300   .     A
C343   Cl371   1.769   .     S
C343   C344    1.415   .     A
C344   C353    1.487   .     S
C345   C355    1.487   .     S
C346   C941    1.510   1_554 S
C347   C940    1.510   .     S
C349   C360    1.416   .     A
C350   O382    1.391   .     S
C350   C356    1.496   .     S
C350   O396    1.223   .     D
C351   O384    1.391   .     S
C351   C357    1.496   .     S
C351   O383    1.223   .     D
C352   O386    1.399   .     S
C352   O385    1.216   .     D
C352   C358    1.494   .     S
C353   O392    1.306   .     A
C353   O395    1.310   .     A
C354   O388    1.399   .     S
C354   C359    1.494   .     S
C354   O387    1.216   .     D
C355   O393    1.306   .     A
C355   O394    1.310   .     A
C356   N380    1.380   .     A
C357   N379    1.380   .     A
C357   C556    1.424   .     S
C358   N380    1.381   .     A
C359   N379    1.381   .     A
C359   C554    1.424   .     S
C360   Cl372   1.773   .     S
Cu373  Cu374   2.703   .     S
Cu373  O381    1.976   .     S
Cu373  O390    1.980   .     S
Cu373  O394    1.976   .     S
Cu373  N379    2.031   .     S
Cu373  O392    1.980   .     S
Cu374  O391    1.980   .     S
Cu374  O395    1.976   .     S
Cu374  O393    1.980   .     S
Cu374  O389    1.976   .     S
Cu374  N380    2.031   .     S
H375   O382    1.014   .     S
H376   O384    1.014   .     S
H377   O386    1.014   .     S
H378   O388    1.014   .     S
C397   O447    1.308   .     A
C397   C415    1.471   .     S
C397   O457    1.300   .     A
C398   C414    1.416   .     A
C398   Cl428   1.773   .     S
C398   C466    1.390   .     S
C399   Cl429   1.775   .     S
C399   C414    1.409   .     A
C399   C492    1.390   .     S
C400   Cl430   1.775   .     S
C400   C415    1.409   .     A
C400   C530    1.390   1_455 S
C401   C405    1.393   .     A
C401   C412    1.406   .     A
C401   Cl427   1.773   .     S
C402   C406    1.393   .     A
C402   Cl431   1.773   .     S
C402   C413    1.406   .     A
C403   Cl432   1.773   .     S
C403   C407    1.396   .     A
C403   C413    1.412   .     A
C404   C409    1.396   .     A
C404   Cl433   1.773   .     S
C404   C412    1.412   .     A
C405   C410    1.418   .     A
C405   Cl434   1.764   .     S
C406   C411    1.418   .     A
C406   Cl435   1.764   .     S
C407   Cl436   1.769   .     S
C407   C411    1.415   .     A
C408   O455    1.308   .     A
C408   C414    1.471   .     S
C408   O456    1.300   .     A
C409   Cl437   1.769   .     S
C409   C410    1.415   .     A
C410   C419    1.487   .     S
C411   C421    1.487   .     S
C412   C1007   1.510   1_554 S
C413   C1006   1.510   .     S
C415   C426    1.416   .     A
C416   O448    1.391   .     S
C416   C422    1.496   .     S
C416   O462    1.223   .     D
C417   O450    1.391   .     S
C417   C423    1.496   .     S
C417   O449    1.223   .     D
C418   O452    1.399   .     S
C418   O451    1.216   .     D
C418   C424    1.494   .     S
C419   O458    1.306   .     A
C419   O461    1.310   .     A
C420   O454    1.399   .     S
C420   C425    1.494   .     S
C420   O453    1.216   .     D
C421   O459    1.306   .     A
C421   O460    1.310   .     A
C422   N446    1.380   .     A
C423   N445    1.380   .     A
C423   C28     1.424   1_565 S
C424   N446    1.381   .     A
C425   N445    1.381   .     A
C425   C26     1.424   1_565 S
C426   Cl438   1.773   .     S
C426   C531    1.390   1_455 S
Cu439  Cu440   2.703   .     S
Cu439  O447    1.976   .     S
Cu439  O456    1.980   .     S
Cu439  O460    1.976   .     S
Cu439  N445    2.031   .     S
Cu439  O458    1.980   .     S
Cu440  O457    1.980   .     S
Cu440  O461    1.976   .     S
Cu440  O459    1.980   .     S
Cu440  O455    1.976   .     S
Cu440  N446    2.031   .     S
H441   O448    1.014   .     S
H442   O450    1.014   .     S
H443   O452    1.014   .     S
H444   O454    1.014   .     S
C463   O513    1.308   .     A
C463   C481    1.471   .     S
C463   O523    1.300   .     A
C464   C480    1.416   .     A
C464   Cl494   1.773   .     S
C464   C532    1.390   .     S
C465   Cl495   1.775   .     S
C465   C480    1.409   .     A
C465   C558    1.390   .     S
C466   Cl496   1.775   .     S
C466   C481    1.409   .     A
C467   C471    1.393   .     A
C467   C478    1.406   .     A
C467   Cl493   1.773   .     S
C468   C472    1.393   .     A
C468   Cl497   1.773   .     S
C468   C479    1.406   .     A
C469   Cl498   1.773   .     S
C469   C473    1.396   .     A
C469   C479    1.412   .     A
C470   C475    1.396   .     A
C470   Cl499   1.773   .     S
C470   C478    1.412   .     A
C471   C476    1.418   .     A
C471   Cl500   1.764   .     S
C472   C477    1.418   .     A
C472   Cl501   1.764   .     S
C473   Cl502   1.769   .     S
C473   C477    1.415   .     A
C474   O521    1.308   .     A
C474   C480    1.471   .     S
C474   O522    1.300   .     A
C475   Cl503   1.769   .     S
C475   C476    1.415   .     A
C476   C485    1.487   .     S
C477   C487    1.487   .     S
C478   C1073   1.510   1_554 S
C479   C1072   1.510   .     S
C481   C492    1.416   .     A
C482   O514    1.391   .     S
C482   C488    1.496   .     S
C482   O528    1.223   .     D
C483   O516    1.391   .     S
C483   C489    1.496   .     S
C483   O515    1.223   .     D
C484   O518    1.399   .     S
C484   O517    1.216   .     D
C484   C490    1.494   .     S
C485   O524    1.306   .     A
C485   O527    1.310   .     A
C486   O520    1.399   .     S
C486   C491    1.494   .     S
C486   O519    1.216   .     D
C487   O525    1.306   .     A
C487   O526    1.310   .     A
C488   N512    1.380   .     A
C489   N511    1.380   .     A
C489   C94     1.424   1_565 S
C490   N512    1.381   .     A
C491   N511    1.381   .     A
C491   C92     1.424   1_565 S
C492   Cl504   1.773   .     S
Cu505  Cu506   2.703   .     S
Cu505  O513    1.976   .     S
Cu505  O522    1.980   .     S
Cu505  O526    1.976   .     S
Cu505  N511    2.031   .     S
Cu505  O524    1.980   .     S
Cu506  O523    1.980   .     S
Cu506  O527    1.976   .     S
Cu506  O525    1.980   .     S
Cu506  O521    1.976   .     S
Cu506  N512    2.031   .     S
H507   O514    1.014   .     S
H508   O516    1.014   .     S
H509   O518    1.014   .     S
H510   O520    1.014   .     S
C529   O579    1.308   .     A
C529   C547    1.471   .     S
C529   O589    1.300   .     A
C530   C546    1.416   .     A
C530   Cl560   1.773   .     S
C530   C400    1.390   1_655 S
C531   Cl561   1.775   .     S
C531   C546    1.409   .     A
C531   C426    1.390   1_655 S
C532   Cl562   1.775   .     S
C532   C547    1.409   .     A
C533   C537    1.393   .     A
C533   C544    1.406   .     A
C533   Cl559   1.773   .     S
C534   C538    1.393   .     A
C534   Cl563   1.773   .     S
C534   C545    1.406   .     A
C535   Cl564   1.773   .     S
C535   C539    1.396   .     A
C535   C545    1.412   .     A
C536   C541    1.396   .     A
C536   Cl565   1.773   .     S
C536   C544    1.412   .     A
C537   C542    1.418   .     A
C537   Cl566   1.764   .     S
C538   C543    1.418   .     A
C538   Cl567   1.764   .     S
C539   Cl568   1.769   .     S
C539   C543    1.415   .     A
C540   O587    1.308   .     A
C540   C546    1.471   .     S
C540   O588    1.300   .     A
C541   Cl569   1.769   .     S
C541   C542    1.415   .     A
C542   C551    1.487   .     S
C543   C553    1.487   .     S
C544   C1139   1.510   1_554 S
C545   C1138   1.510   .     S
C547   C558    1.416   .     A
C548   O580    1.391   .     S
C548   C554    1.496   .     S
C548   O594    1.223   .     D
C549   O582    1.391   .     S
C549   C555    1.496   .     S
C549   O581    1.223   .     D
C550   O584    1.399   .     S
C550   O583    1.216   .     D
C550   C556    1.494   .     S
C551   O590    1.306   .     A
C551   O593    1.310   .     A
C552   O586    1.399   .     S
C552   C557    1.494   .     S
C552   O585    1.216   .     D
C553   O591    1.306   .     A
C553   O592    1.310   .     A
C554   N578    1.380   .     A
C555   N577    1.380   .     A
C555   C160    1.424   1_565 S
C556   N578    1.381   .     A
C557   N577    1.381   .     A
C557   C158    1.424   1_565 S
C558   Cl570   1.773   .     S
Cu571  Cu572   2.703   .     S
Cu571  O579    1.976   .     S
Cu571  O588    1.980   .     S
Cu571  O592    1.976   .     S
Cu571  N577    2.031   .     S
Cu571  O590    1.980   .     S
Cu572  O589    1.980   .     S
Cu572  O593    1.976   .     S
Cu572  O591    1.980   .     S
Cu572  O587    1.976   .     S
Cu572  N578    2.031   .     S
H573   O580    1.014   .     S
H574   O582    1.014   .     S
H575   O584    1.014   .     S
H576   O586    1.014   .     S
C595   O645    1.308   .     A
C595   C613    1.471   .     S
C595   O655    1.300   .     A
C596   C612    1.416   .     A
C596   Cl626   1.773   .     S
C596   C664    1.390   .     S
C597   Cl627   1.775   .     S
C597   C612    1.409   .     A
C597   C690    1.390   .     S
C598   Cl628   1.775   .     S
C598   C613    1.409   .     A
C598   C728    1.390   1_455 S
C599   C603    1.393   .     A
C599   C610    1.406   .     A
C599   Cl625   1.773   .     S
C600   C604    1.393   .     A
C600   Cl629   1.773   .     S
C600   C611    1.406   .     A
C601   Cl630   1.773   .     S
C601   C605    1.396   .     A
C601   C611    1.412   .     A
C602   C607    1.396   .     A
C602   Cl631   1.773   .     S
C602   C610    1.412   .     A
C603   C608    1.418   .     A
C603   Cl632   1.764   .     S
C604   C609    1.418   .     A
C604   Cl633   1.764   .     S
C605   Cl634   1.769   .     S
C605   C609    1.415   .     A
C606   O653    1.308   .     A
C606   C612    1.471   .     S
C606   O654    1.300   .     A
C607   Cl635   1.769   .     S
C607   C608    1.415   .     A
C608   C617    1.487   .     S
C609   C619    1.487   .     S
C611   C16     1.510   1_556 S
C613   C624    1.416   .     A
C614   O646    1.391   .     S
C614   C620    1.496   .     S
C614   O660    1.223   .     D
C615   O648    1.391   .     S
C615   C621    1.496   .     S
C615   O647    1.223   .     D
C616   O650    1.399   .     S
C616   O649    1.216   .     D
C616   C622    1.494   .     S
C617   O656    1.306   .     A
C617   O659    1.310   .     A
C618   O652    1.399   .     S
C618   C623    1.494   .     S
C618   O651    1.216   .     D
C619   O657    1.306   .     A
C619   O658    1.310   .     A
C620   N644    1.380   .     A
C620   C1019   1.424   1_545 S
C621   N643    1.380   .     A
C621   C820    1.424   .     S
C622   N644    1.381   .     A
C622   C1017   1.424   1_545 S
C623   N643    1.381   .     A
C623   C818    1.424   .     S
C624   Cl636   1.773   .     S
C624   C729    1.390   1_455 S
Cu637  Cu638   2.703   .     S
Cu637  O645    1.976   .     S
Cu637  O654    1.980   .     S
Cu637  O658    1.976   .     S
Cu637  N643    2.031   .     S
Cu637  O656    1.980   .     S
Cu638  O655    1.980   .     S
Cu638  O659    1.976   .     S
Cu638  O657    1.980   .     S
Cu638  O653    1.976   .     S
Cu638  N644    2.031   .     S
H639   O646    1.014   .     S
H640   O648    1.014   .     S
H641   O650    1.014   .     S
H642   O652    1.014   .     S
C661   O711    1.308   .     A
C661   C679    1.471   .     S
C661   O721    1.300   .     A
C662   C678    1.416   .     A
C662   Cl692   1.773   .     S
C662   C730    1.390   .     S
C663   Cl693   1.775   .     S
C663   C678    1.409   .     A
C663   C756    1.390   .     S
C664   Cl694   1.775   .     S
C664   C679    1.409   .     A
C665   C669    1.393   .     A
C665   C676    1.406   .     A
C665   Cl691   1.773   .     S
C666   C670    1.393   .     A
C666   Cl695   1.773   .     S
C666   C677    1.406   .     A
C667   Cl696   1.773   .     S
C667   C671    1.396   .     A
C667   C677    1.412   .     A
C668   C673    1.396   .     A
C668   Cl697   1.773   .     S
C668   C676    1.412   .     A
C669   C674    1.418   .     A
C669   Cl698   1.764   .     S
C670   C675    1.418   .     A
C670   Cl699   1.764   .     S
C671   Cl700   1.769   .     S
C671   C675    1.415   .     A
C672   O719    1.308   .     A
C672   C678    1.471   .     S
C672   O720    1.300   .     A
C673   Cl701   1.769   .     S
C673   C674    1.415   .     A
C674   C683    1.487   .     S
C675   C685    1.487   .     S
C677   C82     1.510   1_556 S
C679   C690    1.416   .     A
C680   O712    1.391   .     S
C680   C686    1.496   .     S
C680   O726    1.223   .     D
C681   O714    1.391   .     S
C681   C687    1.496   .     S
C681   O713    1.223   .     D
C682   O716    1.399   .     S
C682   O715    1.216   .     D
C682   C688    1.494   .     S
C683   O722    1.306   .     A
C683   O725    1.310   .     A
C684   O718    1.399   .     S
C684   C689    1.494   .     S
C684   O717    1.216   .     D
C685   O723    1.306   .     A
C685   O724    1.310   .     A
C686   N710    1.380   .     A
C686   C1085   1.424   1_545 S
C687   N709    1.380   .     A
C687   C886    1.424   .     S
C688   N710    1.381   .     A
C688   C1083   1.424   1_545 S
C689   N709    1.381   .     A
C689   C884    1.424   .     S
C690   Cl702   1.773   .     S
Cu703  Cu704   2.703   .     S
Cu703  O711    1.976   .     S
Cu703  O720    1.980   .     S
Cu703  O724    1.976   .     S
Cu703  N709    2.031   .     S
Cu703  O722    1.980   .     S
Cu704  O721    1.980   .     S
Cu704  O725    1.976   .     S
Cu704  O723    1.980   .     S
Cu704  O719    1.976   .     S
Cu704  N710    2.031   .     S
H705   O712    1.014   .     S
H706   O714    1.014   .     S
H707   O716    1.014   .     S
H708   O718    1.014   .     S
C727   O777    1.308   .     A
C727   C745    1.471   .     S
C727   O787    1.300   .     A
C728   C744    1.416   .     A
C728   Cl758   1.773   .     S
C728   C598    1.390   1_655 S
C729   Cl759   1.775   .     S
C729   C744    1.409   .     A
C729   C624    1.390   1_655 S
C730   Cl760   1.775   .     S
C730   C745    1.409   .     A
C731   C735    1.393   .     A
C731   C742    1.406   .     A
C731   Cl757   1.773   .     S
C732   C736    1.393   .     A
C732   Cl761   1.773   .     S
C732   C743    1.406   .     A
C733   Cl762   1.773   .     S
C733   C737    1.396   .     A
C733   C743    1.412   .     A
C734   C739    1.396   .     A
C734   Cl763   1.773   .     S
C734   C742    1.412   .     A
C735   C740    1.418   .     A
C735   Cl764   1.764   .     S
C736   C741    1.418   .     A
C736   Cl765   1.764   .     S
C737   Cl766   1.769   .     S
C737   C741    1.415   .     A
C738   O785    1.308   .     A
C738   C744    1.471   .     S
C738   O786    1.300   .     A
C739   Cl767   1.769   .     S
C739   C740    1.415   .     A
C740   C749    1.487   .     S
C741   C751    1.487   .     S
C743   C148    1.510   1_556 S
C745   C756    1.416   .     A
C746   O778    1.391   .     S
C746   C752    1.496   .     S
C746   O792    1.223   .     D
C747   O780    1.391   .     S
C747   C753    1.496   .     S
C747   O779    1.223   .     D
C748   O782    1.399   .     S
C748   O781    1.216   .     D
C748   C754    1.494   .     S
C749   O788    1.306   .     A
C749   O791    1.310   .     A
C750   O784    1.399   .     S
C750   C755    1.494   .     S
C750   O783    1.216   .     D
C751   O789    1.306   .     A
C751   O790    1.310   .     A
C752   N776    1.380   .     A
C752   C1151   1.424   1_545 S
C753   N775    1.380   .     A
C753   C952    1.424   .     S
C754   N776    1.381   .     A
C754   C1149   1.424   1_545 S
C755   N775    1.381   .     A
C755   C950    1.424   .     S
C756   Cl768   1.773   .     S
Cu769  Cu770   2.703   .     S
Cu769  O777    1.976   .     S
Cu769  O786    1.980   .     S
Cu769  O790    1.976   .     S
Cu769  N775    2.031   .     S
Cu769  O788    1.980   .     S
Cu770  O787    1.980   .     S
Cu770  O791    1.976   .     S
Cu770  O789    1.980   .     S
Cu770  O785    1.976   .     S
Cu770  N776    2.031   .     S
H771   O778    1.014   .     S
H772   O780    1.014   .     S
H773   O782    1.014   .     S
H774   O784    1.014   .     S
C793   O843    1.308   .     A
C793   C811    1.471   .     S
C793   O853    1.300   .     A
C794   C810    1.416   .     A
C794   Cl824   1.773   .     S
C794   C862    1.390   .     S
C795   Cl825   1.775   .     S
C795   C810    1.409   .     A
C795   C888    1.390   .     S
C796   Cl826   1.775   .     S
C796   C811    1.409   .     A
C796   C926    1.390   1_455 S
C797   C801    1.393   .     A
C797   C808    1.406   .     A
C797   Cl823   1.773   .     S
C798   C802    1.393   .     A
C798   Cl827   1.773   .     S
C798   C809    1.406   .     A
C799   Cl828   1.773   .     S
C799   C803    1.396   .     A
C799   C809    1.412   .     A
C800   C805    1.396   .     A
C800   Cl829   1.773   .     S
C800   C808    1.412   .     A
C801   C806    1.418   .     A
C801   Cl830   1.764   .     S
C802   C807    1.418   .     A
C802   Cl831   1.764   .     S
C803   Cl832   1.769   .     S
C803   C807    1.415   .     A
C804   O851    1.308   .     A
C804   C810    1.471   .     S
C804   O852    1.300   .     A
C805   Cl833   1.769   .     S
C805   C806    1.415   .     A
C806   C815    1.487   .     S
C807   C817    1.487   .     S
C809   C214    1.510   1_556 S
C811   C822    1.416   .     A
C812   O844    1.391   .     S
C812   C818    1.496   .     S
C812   O858    1.223   .     D
C813   O846    1.391   .     S
C813   C819    1.496   .     S
C813   O845    1.223   .     D
C814   O848    1.399   .     S
C814   O847    1.216   .     D
C814   C820    1.494   .     S
C815   O854    1.306   .     A
C815   O857    1.310   .     A
C816   O850    1.399   .     S
C816   C821    1.494   .     S
C816   O849    1.216   .     D
C817   O855    1.306   .     A
C817   O856    1.310   .     A
C818   N842    1.380   .     A
C819   N841    1.380   .     A
C819   C1018   1.424   .     S
C820   N842    1.381   .     A
C821   N841    1.381   .     A
C821   C1016   1.424   .     S
C822   Cl834   1.773   .     S
C822   C927    1.390   1_455 S
Cu835  Cu836   2.703   .     S
Cu835  O843    1.976   .     S
Cu835  O852    1.980   .     S
Cu835  O856    1.976   .     S
Cu835  N841    2.031   .     S
Cu835  O854    1.980   .     S
Cu836  O853    1.980   .     S
Cu836  O857    1.976   .     S
Cu836  O855    1.980   .     S
Cu836  O851    1.976   .     S
Cu836  N842    2.031   .     S
H837   O844    1.014   .     S
H838   O846    1.014   .     S
H839   O848    1.014   .     S
H840   O850    1.014   .     S
C859   O909    1.308   .     A
C859   C877    1.471   .     S
C859   O919    1.300   .     A
C860   C876    1.416   .     A
C860   Cl890   1.773   .     S
C860   C928    1.390   .     S
C861   Cl891   1.775   .     S
C861   C876    1.409   .     A
C861   C954    1.390   .     S
C862   Cl892   1.775   .     S
C862   C877    1.409   .     A
C863   C867    1.393   .     A
C863   C874    1.406   .     A
C863   Cl889   1.773   .     S
C864   C868    1.393   .     A
C864   Cl893   1.773   .     S
C864   C875    1.406   .     A
C865   Cl894   1.773   .     S
C865   C869    1.396   .     A
C865   C875    1.412   .     A
C866   C871    1.396   .     A
C866   Cl895   1.773   .     S
C866   C874    1.412   .     A
C867   C872    1.418   .     A
C867   Cl896   1.764   .     S
C868   C873    1.418   .     A
C868   Cl897   1.764   .     S
C869   Cl898   1.769   .     S
C869   C873    1.415   .     A
C870   O917    1.308   .     A
C870   C876    1.471   .     S
C870   O918    1.300   .     A
C871   Cl899   1.769   .     S
C871   C872    1.415   .     A
C872   C881    1.487   .     S
C873   C883    1.487   .     S
C875   C280    1.510   1_556 S
C877   C888    1.416   .     A
C878   O910    1.391   .     S
C878   C884    1.496   .     S
C878   O924    1.223   .     D
C879   O912    1.391   .     S
C879   C885    1.496   .     S
C879   O911    1.223   .     D
C880   O914    1.399   .     S
C880   O913    1.216   .     D
C880   C886    1.494   .     S
C881   O920    1.306   .     A
C881   O923    1.310   .     A
C882   O916    1.399   .     S
C882   C887    1.494   .     S
C882   O915    1.216   .     D
C883   O921    1.306   .     A
C883   O922    1.310   .     A
C884   N908    1.380   .     A
C885   N907    1.380   .     A
C885   C1084   1.424   .     S
C886   N908    1.381   .     A
C887   N907    1.381   .     A
C887   C1082   1.424   .     S
C888   Cl900   1.773   .     S
Cu901  Cu902   2.703   .     S
Cu901  O909    1.976   .     S
Cu901  O918    1.980   .     S
Cu901  O922    1.976   .     S
Cu901  N907    2.031   .     S
Cu901  O920    1.980   .     S
Cu902  O919    1.980   .     S
Cu902  O923    1.976   .     S
Cu902  O921    1.980   .     S
Cu902  O917    1.976   .     S
Cu902  N908    2.031   .     S
H903   O910    1.014   .     S
H904   O912    1.014   .     S
H905   O914    1.014   .     S
H906   O916    1.014   .     S
C925   O975    1.308   .     A
C925   C943    1.471   .     S
C925   O985    1.300   .     A
C926   C942    1.416   .     A
C926   Cl956   1.773   .     S
C926   C796    1.390   1_655 S
C927   Cl957   1.775   .     S
C927   C942    1.409   .     A
C927   C822    1.390   1_655 S
C928   Cl958   1.775   .     S
C928   C943    1.409   .     A
C929   C933    1.393   .     A
C929   C940    1.406   .     A
C929   Cl955   1.773   .     S
C930   C934    1.393   .     A
C930   Cl959   1.773   .     S
C930   C941    1.406   .     A
C931   Cl960   1.773   .     S
C931   C935    1.396   .     A
C931   C941    1.412   .     A
C932   C937    1.396   .     A
C932   Cl961   1.773   .     S
C932   C940    1.412   .     A
C933   C938    1.418   .     A
C933   Cl962   1.764   .     S
C934   C939    1.418   .     A
C934   Cl963   1.764   .     S
C935   Cl964   1.769   .     S
C935   C939    1.415   .     A
C936   O983    1.308   .     A
C936   C942    1.471   .     S
C936   O984    1.300   .     A
C937   Cl965   1.769   .     S
C937   C938    1.415   .     A
C938   C947    1.487   .     S
C939   C949    1.487   .     S
C941   C346    1.510   1_556 S
C943   C954    1.416   .     A
C944   O976    1.391   .     S
C944   C950    1.496   .     S
C944   O990    1.223   .     D
C945   O978    1.391   .     S
C945   C951    1.496   .     S
C945   O977    1.223   .     D
C946   O980    1.399   .     S
C946   O979    1.216   .     D
C946   C952    1.494   .     S
C947   O986    1.306   .     A
C947   O989    1.310   .     A
C948   O982    1.399   .     S
C948   C953    1.494   .     S
C948   O981    1.216   .     D
C949   O987    1.306   .     A
C949   O988    1.310   .     A
C950   N974    1.380   .     A
C951   N973    1.380   .     A
C951   C1150   1.424   .     S
C952   N974    1.381   .     A
C953   N973    1.381   .     A
C953   C1148   1.424   .     S
C954   Cl966   1.773   .     S
Cu967  Cu968   2.703   .     S
Cu967  O975    1.976   .     S
Cu967  O984    1.980   .     S
Cu967  O988    1.976   .     S
Cu967  N973    2.031   .     S
Cu967  O986    1.980   .     S
Cu968  O985    1.980   .     S
Cu968  O989    1.976   .     S
Cu968  O987    1.980   .     S
Cu968  O983    1.976   .     S
Cu968  N974    2.031   .     S
H969   O976    1.014   .     S
H970   O978    1.014   .     S
H971   O980    1.014   .     S
H972   O982    1.014   .     S
C991   O1041   1.308   .     A
C991   C1009   1.471   .     S
C991   O1051   1.300   .     A
C992   C1008   1.416   .     A
C992   Cl1022  1.773   .     S
C992   C1060   1.390   .     S
C993   Cl1023  1.775   .     S
C993   C1008   1.409   .     A
C993   C1086   1.390   .     S
C994   Cl1024  1.775   .     S
C994   C1009   1.409   .     A
C994   C1124   1.390   1_455 S
C995   C999    1.393   .     A
C995   C1006   1.406   .     A
C995   Cl1021  1.773   .     S
C996   C1000   1.393   .     A
C996   Cl1025  1.773   .     S
C996   C1007   1.406   .     A
C997   Cl1026  1.773   .     S
C997   C1001   1.396   .     A
C997   C1007   1.412   .     A
C998   C1003   1.396   .     A
C998   Cl1027  1.773   .     S
C998   C1006   1.412   .     A
C999   C1004   1.418   .     A
C999   Cl1028  1.764   .     S
C1000  C1005   1.418   .     A
C1000  Cl1029  1.764   .     S
C1001  Cl1030  1.769   .     S
C1001  C1005   1.415   .     A
C1002  O1049   1.308   .     A
C1002  C1008   1.471   .     S
C1002  O1050   1.300   .     A
C1003  Cl1031  1.769   .     S
C1003  C1004   1.415   .     A
C1004  C1013   1.487   .     S
C1005  C1015   1.487   .     S
C1007  C412    1.510   1_556 S
C1009  C1020   1.416   .     A
C1010  O1042   1.391   .     S
C1010  C1016   1.496   .     S
C1010  O1056   1.223   .     D
C1011  O1044   1.391   .     S
C1011  C1017   1.496   .     S
C1011  O1043   1.223   .     D
C1012  O1046   1.399   .     S
C1012  O1045   1.216   .     D
C1012  C1018   1.494   .     S
C1013  O1052   1.306   .     A
C1013  O1055   1.310   .     A
C1014  O1048   1.399   .     S
C1014  C1019   1.494   .     S
C1014  O1047   1.216   .     D
C1015  O1053   1.306   .     A
C1015  O1054   1.310   .     A
C1016  N1040   1.380   .     A
C1017  N1039   1.380   .     A
C1017  C622    1.424   1_565 S
C1018  N1040   1.381   .     A
C1019  N1039   1.381   .     A
C1019  C620    1.424   1_565 S
C1020  Cl1032  1.773   .     S
C1020  C1125   1.390   1_455 S
Cu1033 Cu1034  2.703   .     S
Cu1033 O1041   1.976   .     S
Cu1033 O1050   1.980   .     S
Cu1033 O1054   1.976   .     S
Cu1033 N1039   2.031   .     S
Cu1033 O1052   1.980   .     S
Cu1034 O1051   1.980   .     S
Cu1034 O1055   1.976   .     S
Cu1034 O1053   1.980   .     S
Cu1034 O1049   1.976   .     S
Cu1034 N1040   2.031   .     S
H1035  O1042   1.014   .     S
H1036  O1044   1.014   .     S
H1037  O1046   1.014   .     S
H1038  O1048   1.014   .     S
C1057  O1107   1.308   .     A
C1057  C1075   1.471   .     S
C1057  O1117   1.300   .     A
C1058  C1074   1.416   .     A
C1058  Cl1088  1.773   .     S
C1058  C1126   1.390   .     S
C1059  Cl1089  1.775   .     S
C1059  C1074   1.409   .     A
C1059  C1152   1.390   .     S
C1060  Cl1090  1.775   .     S
C1060  C1075   1.409   .     A
C1061  C1065   1.393   .     A
C1061  C1072   1.406   .     A
C1061  Cl1087  1.773   .     S
C1062  C1066   1.393   .     A
C1062  Cl1091  1.773   .     S
C1062  C1073   1.406   .     A
C1063  Cl1092  1.773   .     S
C1063  C1067   1.396   .     A
C1063  C1073   1.412   .     A
C1064  C1069   1.396   .     A
C1064  Cl1093  1.773   .     S
C1064  C1072   1.412   .     A
C1065  C1070   1.418   .     A
C1065  Cl1094  1.764   .     S
C1066  C1071   1.418   .     A
C1066  Cl1095  1.764   .     S
C1067  Cl1096  1.769   .     S
C1067  C1071   1.415   .     A
C1068  O1115   1.308   .     A
C1068  C1074   1.471   .     S
C1068  O1116   1.300   .     A
C1069  Cl1097  1.769   .     S
C1069  C1070   1.415   .     A
C1070  C1079   1.487   .     S
C1071  C1081   1.487   .     S
C1073  C478    1.510   1_556 S
C1075  C1086   1.416   .     A
C1076  O1108   1.391   .     S
C1076  C1082   1.496   .     S
C1076  O1122   1.223   .     D
C1077  O1110   1.391   .     S
C1077  C1083   1.496   .     S
C1077  O1109   1.223   .     D
C1078  O1112   1.399   .     S
C1078  O1111   1.216   .     D
C1078  C1084   1.494   .     S
C1079  O1118   1.306   .     A
C1079  O1121   1.310   .     A
C1080  O1114   1.399   .     S
C1080  C1085   1.494   .     S
C1080  O1113   1.216   .     D
C1081  O1119   1.306   .     A
C1081  O1120   1.310   .     A
C1082  N1106   1.380   .     A
C1083  N1105   1.380   .     A
C1083  C688    1.424   1_565 S
C1084  N1106   1.381   .     A
C1085  N1105   1.381   .     A
C1085  C686    1.424   1_565 S
C1086  Cl1098  1.773   .     S
Cu1099 Cu1100  2.703   .     S
Cu1099 O1107   1.976   .     S
Cu1099 O1116   1.980   .     S
Cu1099 O1120   1.976   .     S
Cu1099 N1105   2.031   .     S
Cu1099 O1118   1.980   .     S
Cu1100 O1117   1.980   .     S
Cu1100 O1121   1.976   .     S
Cu1100 O1119   1.980   .     S
Cu1100 O1115   1.976   .     S
Cu1100 N1106   2.031   .     S
H1101  O1108   1.014   .     S
H1102  O1110   1.014   .     S
H1103  O1112   1.014   .     S
H1104  O1114   1.014   .     S
C1123  O1173   1.308   .     A
C1123  C1141   1.471   .     S
C1123  O1183   1.300   .     A
C1124  C1140   1.416   .     A
C1124  Cl1154  1.773   .     S
C1124  C994    1.390   1_655 S
C1125  Cl1155  1.775   .     S
C1125  C1140   1.409   .     A
C1125  C1020   1.390   1_655 S
C1126  Cl1156  1.775   .     S
C1126  C1141   1.409   .     A
C1127  C1131   1.393   .     A
C1127  C1138   1.406   .     A
C1127  Cl1153  1.773   .     S
C1128  C1132   1.393   .     A
C1128  Cl1157  1.773   .     S
C1128  C1139   1.406   .     A
C1129  Cl1158  1.773   .     S
C1129  C1133   1.396   .     A
C1129  C1139   1.412   .     A
C1130  C1135   1.396   .     A
C1130  Cl1159  1.773   .     S
C1130  C1138   1.412   .     A
C1131  C1136   1.418   .     A
C1131  Cl1160  1.764   .     S
C1132  C1137   1.418   .     A
C1132  Cl1161  1.764   .     S
C1133  Cl1162  1.769   .     S
C1133  C1137   1.415   .     A
C1134  O1181   1.308   .     A
C1134  C1140   1.471   .     S
C1134  O1182   1.300   .     A
C1135  Cl1163  1.769   .     S
C1135  C1136   1.415   .     A
C1136  C1145   1.487   .     S
C1137  C1147   1.487   .     S
C1139  C544    1.510   1_556 S
C1141  C1152   1.416   .     A
C1142  O1174   1.391   .     S
C1142  C1148   1.496   .     S
C1142  O1188   1.223   .     D
C1143  O1176   1.391   .     S
C1143  C1149   1.496   .     S
C1143  O1175   1.223   .     D
C1144  O1178   1.399   .     S
C1144  O1177   1.216   .     D
C1144  C1150   1.494   .     S
C1145  O1184   1.306   .     A
C1145  O1187   1.310   .     A
C1146  O1180   1.399   .     S
C1146  C1151   1.494   .     S
C1146  O1179   1.216   .     D
C1147  O1185   1.306   .     A
C1147  O1186   1.310   .     A
C1148  N1172   1.380   .     A
C1149  N1171   1.380   .     A
C1149  C754    1.424   1_565 S
C1150  N1172   1.381   .     A
C1151  N1171   1.381   .     A
C1151  C752    1.424   1_565 S
C1152  Cl1164  1.773   .     S
Cu1165 Cu1166  2.703   .     S
Cu1165 O1173   1.976   .     S
Cu1165 O1182   1.980   .     S
Cu1165 O1186   1.976   .     S
Cu1165 N1171   2.031   .     S
Cu1165 O1184   1.980   .     S
Cu1166 O1183   1.980   .     S
Cu1166 O1187   1.976   .     S
Cu1166 O1185   1.980   .     S
Cu1166 O1181   1.976   .     S
Cu1166 N1172   2.031   .     S
H1167  O1174   1.014   .     S
H1168  O1176   1.014   .     S
H1169  O1178   1.014   .     S
H1170  O1180   1.014   .     S
